MODEL 1
REMARK VINA RESULT:      -9.9      0.000      0.000
REMARK  7 active torsions:
REMARK  status: ('A' for Active; 'I' for Inactive)
REMARK    1  A    between atoms: C_2  and  O_3 
REMARK    2  A    between atoms: O_3  and  C_4 
REMARK    3  A    between atoms: C_5  and  O_6 
REMARK    4  A    between atoms: C_9  and  C_10 
REMARK    5  A    between atoms: N_11  and  N_12 
REMARK       I    between atoms: N_12  and  C_13 
REMARK    6  A    between atoms: C_13  and  C_14 
REMARK    7  A    between atoms: C_18  and  C_19 
ROOT
HETATM    1  C   UNL     1      -3.179   4.374 -31.520  1.00  0.00     0.121 A 
HETATM    2  N   UNL     1      -4.208   4.022 -30.693  1.00  0.00    -0.272 N 
HETATM    3  H   UNL     1      -4.556   4.550 -29.897  1.00  0.00     0.189 HD
HETATM    4  N   UNL     1      -4.742   2.825 -30.958  1.00  0.00    -0.174 NA
HETATM    5  C   UNL     1      -4.063   2.367 -32.021  1.00  0.00     0.090 A 
HETATM    6  C   UNL     1      -3.098   3.339 -32.431  1.00  0.00     0.071 A 
ENDROOT
BRANCH   1   7
HETATM    7  C   UNL     1      -2.406   5.569 -31.291  1.00  0.00     0.289 C 
HETATM    8  N   UNL     1      -1.722   5.588 -30.081  1.00  0.00    -0.242 N 
HETATM    9  H   UNL     1      -1.533   4.706 -29.621  1.00  0.00     0.192 HD
HETATM   10  O   UNL     1      -2.401   6.482 -32.111  1.00  0.00    -0.264 OA
BRANCH   8  11
HETATM   11  N   UNL     1      -1.039   6.652 -29.542  1.00  0.00    -0.184 NA
HETATM   12  C   UNL     1      -0.947   6.709 -28.250  1.00  0.00     0.150 C 
BRANCH  12  13
HETATM   13  C   UNL     1      -0.217   7.791 -27.557  1.00  0.00    -0.014 A 
HETATM   14  C   UNL     1       1.107   8.043 -27.942  1.00  0.00     0.016 A 
HETATM   15  C   UNL     1       1.810   9.088 -27.350  1.00  0.00     0.040 A 
HETATM   16  C   UNL     1       1.184   9.864 -26.384  1.00  0.00     0.099 A 
HETATM   17  C   UNL     1      -0.134   9.615 -25.976  1.00  0.00     0.102 A 
HETATM   18  C   UNL     1      -0.839   8.571 -26.572  1.00  0.00     0.052 A 
BRANCH  16  19
HETATM   19  O   UNL     1       1.892  10.894 -25.828  1.00  0.00    -0.358 OA
HETATM   20  H   UNL     1       2.826  10.703 -26.041  1.00  0.00     0.218 HD
ENDBRANCH  16  19
BRANCH  17  21
HETATM   21  O   UNL     1      -0.606  10.468 -25.013  1.00  0.00    -0.349 OA
BRANCH  21  22
HETATM   22  C   UNL     1      -1.011   9.881 -23.776  1.00  0.00     0.171 C 
HETATM   23  C   UNL     1       0.063  10.186 -22.746  1.00  0.00     0.034 C 
ENDBRANCH  21  22
ENDBRANCH  17  21
ENDBRANCH  12  13
ENDBRANCH   8  11
ENDBRANCH   1   7
BRANCH   5  24
HETATM   24  C   UNL     1      -4.267   1.019 -32.580  1.00  0.00     0.005 A 
HETATM   25  C   UNL     1      -5.369   0.685 -33.428  1.00  0.00    -0.012 A 
HETATM   26  C   UNL     1      -5.447  -0.632 -33.822  1.00  0.00    -0.012 A 
HETATM   27  C   UNL     1      -6.408   1.509 -33.935  1.00  0.00     0.013 A 
HETATM   28  C   UNL     1      -6.448  -1.155 -34.622  1.00  0.00    -0.046 A 
HETATM   29  C   UNL     1      -4.540  -1.611 -33.464  1.00  0.00    -0.046 A 
HETATM   30  C   UNL     1      -7.476  -0.362 -35.109  1.00  0.00     0.008 A 
HETATM   31  C   UNL     1      -6.239  -2.613 -34.836  1.00  0.00     0.044 A 
HETATM   32  C   UNL     1      -7.436   0.991 -34.752  1.00  0.00     0.001 A 
HETATM   33  C   UNL     1      -4.927  -2.923 -34.054  1.00  0.00     0.044 A 
HETATM   34  C   UNL     1      -3.455  -1.327 -32.655  1.00  0.00     0.009 A 
HETATM   35  C   UNL     1      -3.339   0.002 -32.218  1.00  0.00     0.015 A 
ENDBRANCH   5  24
TORSDOF 7
ENDMDL
MODEL 2
REMARK VINA RESULT:      -9.5      0.635      2.014
REMARK  7 active torsions:
REMARK  status: ('A' for Active; 'I' for Inactive)
REMARK    1  A    between atoms: C_2  and  O_3 
REMARK    2  A    between atoms: O_3  and  C_4 
REMARK    3  A    between atoms: C_5  and  O_6 
REMARK    4  A    between atoms: C_9  and  C_10 
REMARK    5  A    between atoms: N_11  and  N_12 
REMARK       I    between atoms: N_12  and  C_13 
REMARK    6  A    between atoms: C_13  and  C_14 
REMARK    7  A    between atoms: C_18  and  C_19 
ROOT
HETATM    1  C   UNL     1      -2.926   4.557 -31.606  1.00  0.00     0.121 A 
HETATM    2  N   UNL     1      -4.077   4.550 -30.869  1.00  0.00    -0.272 N 
HETATM    3  H   UNL     1      -4.292   5.143 -30.072  1.00  0.00     0.189 HD
HETATM    4  N   UNL     1      -4.956   3.609 -31.232  1.00  0.00    -0.174 NA
HETATM    5  C   UNL     1      -4.385   2.978 -32.269  1.00  0.00     0.090 A 
HETATM    6  C   UNL     1      -3.123   3.579 -32.562  1.00  0.00     0.071 A 
ENDROOT
BRANCH   1   7
HETATM    7  C   UNL     1      -1.820   5.417 -31.265  1.00  0.00     0.289 C 
HETATM    8  N   UNL     1      -1.661   5.633 -29.902  1.00  0.00    -0.242 N 
HETATM    9  H   UNL     1      -2.067   4.965 -29.257  1.00  0.00     0.192 HD
HETATM   10  O   UNL     1      -1.120   5.917 -32.139  1.00  0.00    -0.264 OA
BRANCH   8  11
HETATM   11  N   UNL     1      -0.794   6.520 -29.308  1.00  0.00    -0.184 NA
HETATM   12  C   UNL     1      -1.188   7.099 -28.217  1.00  0.00     0.150 C 
BRANCH  12  13
HETATM   13  C   UNL     1      -0.335   8.052 -27.477  1.00  0.00    -0.014 A 
HETATM   14  C   UNL     1       1.005   8.175 -27.867  1.00  0.00     0.016 A 
HETATM   15  C   UNL     1       1.827   9.100 -27.229  1.00  0.00     0.040 A 
HETATM   16  C   UNL     1       1.300   9.885 -26.211  1.00  0.00     0.099 A 
HETATM   17  C   UNL     1      -0.033   9.762 -25.798  1.00  0.00     0.102 A 
HETATM   18  C   UNL     1      -0.857   8.839 -26.441  1.00  0.00     0.052 A 
BRANCH  16  19
HETATM   19  O   UNL     1       2.125  10.797 -25.611  1.00  0.00    -0.358 OA
HETATM   20  H   UNL     1       2.541  10.313 -24.871  1.00  0.00     0.218 HD
ENDBRANCH  16  19
BRANCH  17  21
HETATM   21  O   UNL     1      -0.398  10.607 -24.782  1.00  0.00    -0.349 OA
BRANCH  21  22
HETATM   22  C   UNL     1      -0.879  10.000 -23.583  1.00  0.00     0.171 C 
HETATM   23  C   UNL     1       0.194  10.161 -22.521  1.00  0.00     0.034 C 
ENDBRANCH  21  22
ENDBRANCH  17  21
ENDBRANCH  12  13
ENDBRANCH   8  11
ENDBRANCH   1   7
BRANCH   5  24
HETATM   24  C   UNL     1      -4.982   1.792 -32.909  1.00  0.00     0.005 A 
HETATM   25  C   UNL     1      -4.460   0.470 -32.743  1.00  0.00    -0.012 A 
HETATM   26  C   UNL     1      -5.099  -0.522 -33.452  1.00  0.00    -0.012 A 
HETATM   27  C   UNL     1      -3.372   0.015 -31.951  1.00  0.00     0.013 A 
HETATM   28  C   UNL     1      -4.731  -1.856 -33.443  1.00  0.00    -0.046 A 
HETATM   29  C   UNL     1      -6.189  -0.316 -34.276  1.00  0.00    -0.046 A 
HETATM   30  C   UNL     1      -3.661  -2.308 -32.686  1.00  0.00     0.008 A 
HETATM   31  C   UNL     1      -5.621  -2.650 -34.334  1.00  0.00     0.044 A 
HETATM   32  C   UNL     1      -2.986  -1.341 -31.930  1.00  0.00     0.001 A 
HETATM   33  C   UNL     1      -6.625  -1.599 -34.895  1.00  0.00     0.044 A 
HETATM   34  C   UNL     1      -6.731   0.944 -34.454  1.00  0.00     0.009 A 
HETATM   35  C   UNL     1      -6.105   1.991 -33.760  1.00  0.00     0.015 A 
ENDBRANCH   5  24
TORSDOF 7
ENDMDL
MODEL 3
REMARK VINA RESULT:      -9.3      2.722     11.910
REMARK  7 active torsions:
REMARK  status: ('A' for Active; 'I' for Inactive)
REMARK    1  A    between atoms: C_2  and  O_3 
REMARK    2  A    between atoms: O_3  and  C_4 
REMARK    3  A    between atoms: C_5  and  O_6 
REMARK    4  A    between atoms: C_9  and  C_10 
REMARK    5  A    between atoms: N_11  and  N_12 
REMARK       I    between atoms: N_12  and  C_13 
REMARK    6  A    between atoms: C_13  and  C_14 
REMARK    7  A    between atoms: C_18  and  C_19 
ROOT
HETATM    1  C   UNL     1      -0.886   5.405 -30.583  1.00  0.00     0.121 A 
HETATM    2  N   UNL     1       0.058   4.706 -29.885  1.00  0.00    -0.272 N 
HETATM    3  H   UNL     1       0.346   3.745 -30.048  1.00  0.00     0.189 HD
HETATM    4  N   UNL     1       0.587   5.375 -28.854  1.00  0.00    -0.174 NA
HETATM    5  C   UNL     1      -0.006   6.579 -28.877  1.00  0.00     0.090 A 
HETATM    6  C   UNL     1      -0.909   6.649 -29.983  1.00  0.00     0.071 A 
ENDROOT
BRANCH   1   7
HETATM    7  C   UNL     1      -1.650   4.789 -31.639  1.00  0.00     0.289 C 
HETATM    8  N   UNL     1      -2.673   3.958 -31.198  1.00  0.00    -0.242 N 
HETATM    9  H   UNL     1      -3.026   4.086 -30.257  1.00  0.00     0.192 HD
HETATM   10  O   UNL     1      -1.369   4.987 -32.817  1.00  0.00    -0.264 OA
BRANCH   8  11
HETATM   11  N   UNL     1      -3.452   3.133 -31.974  1.00  0.00    -0.184 NA
HETATM   12  C   UNL     1      -3.397   1.861 -31.734  1.00  0.00     0.150 C 
BRANCH  12  13
HETATM   13  C   UNL     1      -4.206   0.879 -32.486  1.00  0.00    -0.014 A 
HETATM   14  C   UNL     1      -5.508   1.243 -32.852  1.00  0.00     0.016 A 
HETATM   15  C   UNL     1      -6.284   0.368 -33.607  1.00  0.00     0.040 A 
HETATM   16  C   UNL     1      -5.749  -0.858 -33.982  1.00  0.00     0.099 A 
HETATM   17  C   UNL     1      -4.454  -1.244 -33.610  1.00  0.00     0.102 A 
HETATM   18  C   UNL     1      -3.677  -0.365 -32.858  1.00  0.00     0.052 A 
BRANCH  16  19
HETATM   19  O   UNL     1      -6.526  -1.695 -34.736  1.00  0.00    -0.358 OA
HETATM   20  H   UNL     1      -6.084  -1.735 -35.606  1.00  0.00     0.218 HD
ENDBRANCH  16  19
BRANCH  17  21
HETATM   21  O   UNL     1      -4.075  -2.483 -34.057  1.00  0.00    -0.349 OA
BRANCH  21  22
HETATM   22  C   UNL     1      -3.612  -3.408 -33.074  1.00  0.00     0.171 C 
HETATM   23  C   UNL     1      -3.638  -4.794 -33.694  1.00  0.00     0.034 C 
ENDBRANCH  21  22
ENDBRANCH  17  21
ENDBRANCH  12  13
ENDBRANCH   8  11
ENDBRANCH   1   7
BRANCH   5  24
HETATM   24  C   UNL     1       0.217   7.599 -27.838  1.00  0.00     0.005 A 
HETATM   25  C   UNL     1      -0.711   7.851 -26.779  1.00  0.00    -0.012 A 
HETATM   26  C   UNL     1      -0.381   8.875 -25.921  1.00  0.00    -0.012 A 
HETATM   27  C   UNL     1      -1.937   7.203 -26.472  1.00  0.00     0.013 A 
HETATM   28  C   UNL     1      -1.158   9.287 -24.852  1.00  0.00    -0.046 A 
HETATM   29  C   UNL     1       0.768   9.636 -26.016  1.00  0.00    -0.046 A 
HETATM   30  C   UNL     1      -2.364   8.670 -24.553  1.00  0.00     0.008 A 
HETATM   31  C   UNL     1      -0.516  10.429 -24.147  1.00  0.00     0.044 A 
HETATM   32  C   UNL     1      -2.740   7.609 -25.386  1.00  0.00     0.001 A 
HETATM   33  C   UNL     1       0.808  10.661 -24.936  1.00  0.00     0.044 A 
HETATM   34  C   UNL     1       1.698   9.417 -27.017  1.00  0.00     0.009 A 
HETATM   35  C   UNL     1       1.398   8.389 -27.925  1.00  0.00     0.015 A 
ENDBRANCH   5  24
TORSDOF 7
ENDMDL
MODEL 4
REMARK VINA RESULT:      -9.1      1.714      3.238
REMARK  7 active torsions:
REMARK  status: ('A' for Active; 'I' for Inactive)
REMARK    1  A    between atoms: C_2  and  O_3 
REMARK    2  A    between atoms: O_3  and  C_4 
REMARK    3  A    between atoms: C_5  and  O_6 
REMARK    4  A    between atoms: C_9  and  C_10 
REMARK    5  A    between atoms: N_11  and  N_12 
REMARK       I    between atoms: N_12  and  C_13 
REMARK    6  A    between atoms: C_13  and  C_14 
REMARK    7  A    between atoms: C_18  and  C_19 
ROOT
HETATM    1  C   UNL     1      -4.055   2.742 -31.582  1.00  0.00     0.121 A 
HETATM    2  N   UNL     1      -4.991   2.258 -30.713  1.00  0.00    -0.272 N 
HETATM    3  H   UNL     1      -5.240   2.648 -29.808  1.00  0.00     0.189 HD
HETATM    4  N   UNL     1      -5.571   1.118 -31.107  1.00  0.00    -0.174 NA
HETATM    5  C   UNL     1      -5.021   0.841 -32.299  1.00  0.00     0.090 A 
HETATM    6  C   UNL     1      -4.092   1.869 -32.652  1.00  0.00     0.071 A 
ENDROOT
BRANCH   1   7
HETATM    7  C   UNL     1      -3.242   3.886 -31.252  1.00  0.00     0.289 C 
HETATM    8  N   UNL     1      -3.954   4.970 -30.753  1.00  0.00    -0.242 N 
HETATM    9  H   UNL     1      -4.870   4.803 -30.353  1.00  0.00     0.192 HD
HETATM   10  O   UNL     1      -2.029   3.871 -31.437  1.00  0.00    -0.264 OA
BRANCH   8  11
HETATM   11  N   UNL     1      -3.461   6.229 -30.502  1.00  0.00    -0.184 NA
HETATM   12  C   UNL     1      -3.025   6.472 -29.306  1.00  0.00     0.150 C 
BRANCH  12  13
HETATM   13  C   UNL     1      -2.450   7.779 -28.925  1.00  0.00    -0.014 A 
HETATM   14  C   UNL     1      -2.728   8.882 -29.742  1.00  0.00     0.016 A 
HETATM   15  C   UNL     1      -2.249  10.141 -29.388  1.00  0.00     0.040 A 
HETATM   16  C   UNL     1      -1.500  10.278 -28.227  1.00  0.00     0.099 A 
HETATM   17  C   UNL     1      -1.199   9.181 -27.407  1.00  0.00     0.102 A 
HETATM   18  C   UNL     1      -1.683   7.922 -27.760  1.00  0.00     0.052 A 
BRANCH  16  19
HETATM   19  O   UNL     1      -1.053  11.527 -27.894  1.00  0.00    -0.358 OA
HETATM   20  H   UNL     1      -0.114  11.540 -28.161  1.00  0.00     0.218 HD
ENDBRANCH  16  19
BRANCH  17  21
HETATM   21  O   UNL     1      -0.450   9.482 -26.300  1.00  0.00    -0.349 OA
BRANCH  21  22
HETATM   22  C   UNL     1       0.623   8.594 -25.989  1.00  0.00     0.171 C 
HETATM   23  C   UNL     1       1.701   8.785 -27.042  1.00  0.00     0.034 C 
ENDBRANCH  21  22
ENDBRANCH  17  21
ENDBRANCH  12  13
ENDBRANCH   8  11
ENDBRANCH   1   7
BRANCH   5  24
HETATM   24  C   UNL     1      -5.308  -0.399 -33.042  1.00  0.00     0.005 A 
HETATM   25  C   UNL     1      -4.571  -1.611 -32.853  1.00  0.00    -0.012 A 
HETATM   26  C   UNL     1      -4.928  -2.664 -33.664  1.00  0.00    -0.012 A 
HETATM   27  C   UNL     1      -3.516  -1.900 -31.949  1.00  0.00     0.013 A 
HETATM   28  C   UNL     1      -4.321  -3.908 -33.650  1.00  0.00    -0.046 A 
HETATM   29  C   UNL     1      -5.935  -2.618 -34.609  1.00  0.00    -0.046 A 
HETATM   30  C   UNL     1      -3.279  -4.196 -32.781  1.00  0.00     0.008 A 
HETATM   31  C   UNL     1      -4.938  -4.803 -34.666  1.00  0.00     0.044 A 
HETATM   32  C   UNL     1      -2.887  -3.163 -31.921  1.00  0.00     0.001 A 
HETATM   33  C   UNL     1      -6.050  -3.925 -35.314  1.00  0.00     0.044 A 
HETATM   34  C   UNL     1      -6.679  -1.471 -34.814  1.00  0.00     0.009 A 
HETATM   35  C   UNL     1      -6.344  -0.364 -34.018  1.00  0.00     0.015 A 
ENDBRANCH   5  24
TORSDOF 7
ENDMDL
MODEL 5
REMARK VINA RESULT:      -9.1      2.743     11.737
REMARK  7 active torsions:
REMARK  status: ('A' for Active; 'I' for Inactive)
REMARK    1  A    between atoms: C_2  and  O_3 
REMARK    2  A    between atoms: O_3  and  C_4 
REMARK    3  A    between atoms: C_5  and  O_6 
REMARK    4  A    between atoms: C_9  and  C_10 
REMARK    5  A    between atoms: N_11  and  N_12 
REMARK       I    between atoms: N_12  and  C_13 
REMARK    6  A    between atoms: C_13  and  C_14 
REMARK    7  A    between atoms: C_18  and  C_19 
ROOT
HETATM    1  C   UNL     1      -0.683   5.437 -30.461  1.00  0.00     0.121 A 
HETATM    2  N   UNL     1       0.195   4.730 -29.690  1.00  0.00    -0.272 N 
HETATM    3  H   UNL     1       0.471   3.760 -29.817  1.00  0.00     0.189 HD
HETATM    4  N   UNL     1       0.669   5.405 -28.636  1.00  0.00    -0.174 NA
HETATM    5  C   UNL     1       0.108   6.621 -28.719  1.00  0.00     0.090 A 
HETATM    6  C   UNL     1      -0.717   6.691 -29.884  1.00  0.00     0.071 A 
ENDROOT
BRANCH   1   7
HETATM    7  C   UNL     1      -1.388   4.819 -31.557  1.00  0.00     0.289 C 
HETATM    8  N   UNL     1      -2.286   3.830 -31.176  1.00  0.00    -0.242 N 
HETATM    9  H   UNL     1      -2.629   3.831 -30.222  1.00  0.00     0.192 HD
HETATM   10  O   UNL     1      -1.163   5.151 -32.717  1.00  0.00    -0.264 OA
BRANCH   8  11
HETATM   11  N   UNL     1      -2.972   2.980 -32.011  1.00  0.00    -0.184 NA
HETATM   12  C   UNL     1      -3.389   1.859 -31.510  1.00  0.00     0.150 C 
BRANCH  12  13
HETATM   13  C   UNL     1      -4.159   0.878 -32.303  1.00  0.00    -0.014 A 
HETATM   14  C   UNL     1      -3.476  -0.231 -32.819  1.00  0.00     0.016 A 
HETATM   15  C   UNL     1      -4.175  -1.205 -33.526  1.00  0.00     0.040 A 
HETATM   16  C   UNL     1      -5.544  -1.056 -33.709  1.00  0.00     0.099 A 
HETATM   17  C   UNL     1      -6.239   0.055 -33.214  1.00  0.00     0.102 A 
HETATM   18  C   UNL     1      -5.538   1.028 -32.502  1.00  0.00     0.052 A 
BRANCH  16  19
HETATM   19  O   UNL     1      -6.211  -2.034 -34.395  1.00  0.00    -0.358 OA
HETATM   20  H   UNL     1      -7.155  -1.884 -34.196  1.00  0.00     0.218 HD
ENDBRANCH  16  19
BRANCH  17  21
HETATM   21  O   UNL     1      -7.584   0.055 -33.479  1.00  0.00    -0.349 OA
BRANCH  21  22
HETATM   22  C   UNL     1      -8.457   0.299 -32.377  1.00  0.00     0.171 C 
HETATM   23  C   UNL     1      -9.884   0.207 -32.888  1.00  0.00     0.034 C 
ENDBRANCH  21  22
ENDBRANCH  17  21
ENDBRANCH  12  13
ENDBRANCH   8  11
ENDBRANCH   1   7
BRANCH   5  24
HETATM   24  C   UNL     1       0.284   7.654 -27.684  1.00  0.00     0.005 A 
HETATM   25  C   UNL     1      -0.669   7.887 -26.643  1.00  0.00    -0.012 A 
HETATM   26  C   UNL     1      -0.383   8.927 -25.787  1.00  0.00    -0.012 A 
HETATM   27  C   UNL     1      -1.881   7.207 -26.352  1.00  0.00     0.013 A 
HETATM   28  C   UNL     1      -1.190   9.323 -24.735  1.00  0.00    -0.046 A 
HETATM   29  C   UNL     1       0.746   9.719 -25.868  1.00  0.00    -0.046 A 
HETATM   30  C   UNL     1      -2.382   8.675 -24.451  1.00  0.00     0.008 A 
HETATM   31  C   UNL     1      -0.592  10.488 -24.027  1.00  0.00     0.044 A 
HETATM   32  C   UNL     1      -2.714   7.598 -25.282  1.00  0.00     0.001 A 
HETATM   33  C   UNL     1       0.738  10.752 -24.795  1.00  0.00     0.044 A 
HETATM   34  C   UNL     1       1.698   9.519 -26.851  1.00  0.00     0.009 A 
HETATM   35  C   UNL     1       1.444   8.477 -27.757  1.00  0.00     0.015 A 
ENDBRANCH   5  24
TORSDOF 7
ENDMDL
MODEL 6
REMARK VINA RESULT:      -9.0      8.695     11.675
REMARK  7 active torsions:
REMARK  status: ('A' for Active; 'I' for Inactive)
REMARK    1  A    between atoms: C_2  and  O_3 
REMARK    2  A    between atoms: O_3  and  C_4 
REMARK    3  A    between atoms: C_5  and  O_6 
REMARK    4  A    between atoms: C_9  and  C_10 
REMARK    5  A    between atoms: N_11  and  N_12 
REMARK       I    between atoms: N_12  and  C_13 
REMARK    6  A    between atoms: C_13  and  C_14 
REMARK    7  A    between atoms: C_18  and  C_19 
ROOT
HETATM    1  C   UNL     1     -10.820   1.258 -34.184  1.00  0.00     0.121 A 
HETATM    2  N   UNL     1     -11.159   0.439 -33.144  1.00  0.00    -0.272 N 
HETATM    3  H   UNL     1     -12.097   0.246 -32.804  1.00  0.00     0.189 HD
HETATM    4  N   UNL     1     -10.114  -0.091 -32.498  1.00  0.00    -0.174 NA
HETATM    5  C   UNL     1      -9.033   0.369 -33.146  1.00  0.00     0.090 A 
HETATM    6  C   UNL     1      -9.442   1.187 -34.244  1.00  0.00     0.071 A 
ENDROOT
BRANCH   1   7
HETATM    7  C   UNL     1     -11.816   2.014 -34.901  1.00  0.00     0.289 C 
HETATM    8  N   UNL     1     -11.525   3.367 -35.033  1.00  0.00    -0.242 N 
HETATM    9  H   UNL     1     -10.561   3.664 -34.939  1.00  0.00     0.192 HD
HETATM   10  O   UNL     1     -12.835   1.474 -35.320  1.00  0.00    -0.264 OA
BRANCH   8  11
HETATM   11  N   UNL     1     -12.359   4.340 -35.530  1.00  0.00    -0.184 NA
HETATM   12  C   UNL     1     -12.011   5.575 -35.347  1.00  0.00     0.150 C 
BRANCH  12  13
HETATM   13  C   UNL     1     -12.813   6.706 -35.857  1.00  0.00    -0.014 A 
HETATM   14  C   UNL     1     -14.202   6.662 -35.676  1.00  0.00     0.016 A 
HETATM   15  C   UNL     1     -14.987   7.732 -36.095  1.00  0.00     0.040 A 
HETATM   16  C   UNL     1     -14.375   8.828 -36.690  1.00  0.00     0.099 A 
HETATM   17  C   UNL     1     -12.989   8.881 -36.893  1.00  0.00     0.102 A 
HETATM   18  C   UNL     1     -12.203   7.811 -36.469  1.00  0.00     0.052 A 
BRANCH  16  19
HETATM   19  O   UNL     1     -15.167   9.873 -37.080  1.00  0.00    -0.358 OA
HETATM   20  H   UNL     1     -14.685  10.295 -37.817  1.00  0.00     0.218 HD
ENDBRANCH  16  19
BRANCH  17  21
HETATM   21  O   UNL     1     -12.542  10.029 -37.493  1.00  0.00    -0.349 OA
BRANCH  21  22
HETATM   22  C   UNL     1     -11.699   9.872 -38.634  1.00  0.00     0.171 C 
HETATM   23  C   UNL     1     -12.554   9.336 -39.769  1.00  0.00     0.034 C 
ENDBRANCH  21  22
ENDBRANCH  17  21
ENDBRANCH  12  13
ENDBRANCH   8  11
ENDBRANCH   1   7
BRANCH   5  24
HETATM   24  C   UNL     1      -7.656   0.105 -32.691  1.00  0.00     0.005 A 
HETATM   25  C   UNL     1      -6.789  -0.834 -33.332  1.00  0.00    -0.012 A 
HETATM   26  C   UNL     1      -5.552  -1.005 -32.750  1.00  0.00    -0.012 A 
HETATM   27  C   UNL     1      -7.005  -1.628 -34.489  1.00  0.00     0.013 A 
HETATM   28  C   UNL     1      -4.584  -1.881 -33.206  1.00  0.00    -0.046 A 
HETATM   29  C   UNL     1      -5.116  -0.329 -31.627  1.00  0.00    -0.046 A 
HETATM   30  C   UNL     1      -4.791  -2.672 -34.326  1.00  0.00     0.008 A 
HETATM   31  C   UNL     1      -3.378  -1.828 -32.335  1.00  0.00     0.044 A 
HETATM   32  C   UNL     1      -6.027  -2.526 -34.967  1.00  0.00     0.001 A 
HETATM   33  C   UNL     1      -3.738  -0.757 -31.261  1.00  0.00     0.044 A 
HETATM   34  C   UNL     1      -5.919   0.596 -30.985  1.00  0.00     0.009 A 
HETATM   35  C   UNL     1      -7.196   0.796 -31.534  1.00  0.00     0.015 A 
ENDBRANCH   5  24
TORSDOF 7
ENDMDL
MODEL 7
REMARK VINA RESULT:      -8.9      3.541     11.647
REMARK  7 active torsions:
REMARK  status: ('A' for Active; 'I' for Inactive)
REMARK    1  A    between atoms: C_2  and  O_3 
REMARK    2  A    between atoms: O_3  and  C_4 
REMARK    3  A    between atoms: C_5  and  O_6 
REMARK    4  A    between atoms: C_9  and  C_10 
REMARK    5  A    between atoms: N_11  and  N_12 
REMARK       I    between atoms: N_12  and  C_13 
REMARK    6  A    between atoms: C_13  and  C_14 
REMARK    7  A    between atoms: C_18  and  C_19 
ROOT
HETATM    1  C   UNL     1      -3.165   6.544 -33.060  1.00  0.00     0.121 A 
HETATM    2  N   UNL     1      -2.254   7.386 -33.633  1.00  0.00    -0.272 N 
HETATM    3  H   UNL     1      -1.950   7.382 -34.602  1.00  0.00     0.189 HD
HETATM    4  N   UNL     1      -1.686   8.245 -32.779  1.00  0.00    -0.174 NA
HETATM    5  C   UNL     1      -2.258   7.988 -31.592  1.00  0.00     0.090 A 
HETATM    6  C   UNL     1      -3.229   6.951 -31.741  1.00  0.00     0.071 A 
ENDROOT
BRANCH   1   7
HETATM    7  C   UNL     1      -3.772   5.471 -33.807  1.00  0.00     0.289 C 
HETATM    8  N   UNL     1      -4.165   4.385 -33.034  1.00  0.00    -0.242 N 
HETATM    9  H   UNL     1      -4.316   4.527 -32.043  1.00  0.00     0.192 HD
HETATM   10  O   UNL     1      -3.887   5.540 -35.027  1.00  0.00    -0.264 OA
BRANCH   8  11
HETATM   11  N   UNL     1      -4.625   3.174 -33.496  1.00  0.00    -0.184 NA
HETATM   12  C   UNL     1      -5.024   2.312 -32.614  1.00  0.00     0.150 C 
BRANCH  12  13
HETATM   13  C   UNL     1      -5.561   0.988 -32.991  1.00  0.00    -0.014 A 
HETATM   14  C   UNL     1      -6.951   0.852 -33.112  1.00  0.00     0.016 A 
HETATM   15  C   UNL     1      -7.492  -0.365 -33.516  1.00  0.00     0.040 A 
HETATM   16  C   UNL     1      -6.641  -1.427 -33.791  1.00  0.00     0.099 A 
HETATM   17  C   UNL     1      -5.250  -1.313 -33.659  1.00  0.00     0.102 A 
HETATM   18  C   UNL     1      -4.708  -0.092 -33.258  1.00  0.00     0.052 A 
BRANCH  16  19
HETATM   19  O   UNL     1      -7.197  -2.608 -34.201  1.00  0.00    -0.358 OA
HETATM   20  H   UNL     1      -6.921  -2.708 -35.132  1.00  0.00     0.218 HD
ENDBRANCH  16  19
BRANCH  17  21
HETATM   21  O   UNL     1      -4.550  -2.450 -33.966  1.00  0.00    -0.349 OA
BRANCH  21  22
HETATM   22  C   UNL     1      -3.724  -2.994 -32.937  1.00  0.00     0.171 C 
HETATM   23  C   UNL     1      -3.452  -4.448 -33.282  1.00  0.00     0.034 C 
ENDBRANCH  21  22
ENDBRANCH  17  21
ENDBRANCH  12  13
ENDBRANCH   8  11
ENDBRANCH   1   7
BRANCH   5  24
HETATM   24  C   UNL     1      -1.838   8.650 -30.344  1.00  0.00     0.005 A 
HETATM   25  C   UNL     1      -0.906   8.069 -29.428  1.00  0.00    -0.012 A 
HETATM   26  C   UNL     1      -0.661   8.789 -28.281  1.00  0.00    -0.012 A 
HETATM   27  C   UNL     1      -0.184   6.849 -29.518  1.00  0.00     0.013 A 
HETATM   28  C   UNL     1       0.189   8.386 -27.266  1.00  0.00    -0.046 A 
HETATM   29  C   UNL     1      -1.238  10.009 -27.985  1.00  0.00    -0.046 A 
HETATM   30  C   UNL     1       0.887   7.190 -27.337  1.00  0.00     0.008 A 
HETATM   31  C   UNL     1       0.205   9.391 -26.168  1.00  0.00     0.044 A 
HETATM   32  C   UNL     1       0.687   6.425 -28.492  1.00  0.00     0.001 A 
HETATM   33  C   UNL     1      -0.762  10.507 -26.665  1.00  0.00     0.044 A 
HETATM   34  C   UNL     1      -2.136  10.611 -28.850  1.00  0.00     0.009 A 
HETATM   35  C   UNL     1      -2.427   9.907 -30.029  1.00  0.00     0.015 A 
ENDBRANCH   5  24
TORSDOF 7
ENDMDL
MODEL 8
REMARK VINA RESULT:      -8.7      3.577     11.828
REMARK  7 active torsions:
REMARK  status: ('A' for Active; 'I' for Inactive)
REMARK    1  A    between atoms: C_2  and  O_3 
REMARK    2  A    between atoms: O_3  and  C_4 
REMARK    3  A    between atoms: C_5  and  O_6 
REMARK    4  A    between atoms: C_9  and  C_10 
REMARK    5  A    between atoms: N_11  and  N_12 
REMARK       I    between atoms: N_12  and  C_13 
REMARK    6  A    between atoms: C_13  and  C_14 
REMARK    7  A    between atoms: C_18  and  C_19 
ROOT
HETATM    1  C   UNL     1      -3.823   5.540 -32.500  1.00  0.00     0.121 A 
HETATM    2  N   UNL     1      -3.505   6.743 -33.065  1.00  0.00    -0.272 N 
HETATM    3  H   UNL     1      -3.815   7.091 -33.968  1.00  0.00     0.189 HD
HETATM    4  N   UNL     1      -2.647   7.477 -32.347  1.00  0.00    -0.174 NA
HETATM    5  C   UNL     1      -2.401   6.751 -31.246  1.00  0.00     0.090 A 
HETATM    6  C   UNL     1      -3.162   5.542 -31.287  1.00  0.00     0.071 A 
ENDROOT
BRANCH   1   7
HETATM    7  C   UNL     1      -4.628   4.570 -33.200  1.00  0.00     0.289 C 
HETATM    8  N   UNL     1      -4.858   3.397 -32.491  1.00  0.00    -0.242 N 
HETATM    9  H   UNL     1      -4.760   3.415 -31.483  1.00  0.00     0.192 HD
HETATM   10  O   UNL     1      -5.033   4.791 -34.337  1.00  0.00    -0.264 OA
BRANCH   8  11
HETATM   11  N   UNL     1      -5.457   2.255 -32.969  1.00  0.00    -0.184 NA
HETATM   12  C   UNL     1      -4.765   1.159 -32.932  1.00  0.00     0.150 C 
BRANCH  12  13
HETATM   13  C   UNL     1      -5.310  -0.135 -33.394  1.00  0.00    -0.014 A 
HETATM   14  C   UNL     1      -6.702  -0.276 -33.458  1.00  0.00     0.016 A 
HETATM   15  C   UNL     1      -7.254  -1.461 -33.939  1.00  0.00     0.040 A 
HETATM   16  C   UNL     1      -6.409  -2.486 -34.344  1.00  0.00     0.099 A 
HETATM   17  C   UNL     1      -5.014  -2.366 -34.270  1.00  0.00     0.102 A 
HETATM   18  C   UNL     1      -4.463  -1.178 -33.793  1.00  0.00     0.052 A 
BRANCH  16  19
HETATM   19  O   UNL     1      -6.976  -3.633 -34.825  1.00  0.00    -0.358 OA
HETATM   20  H   UNL     1      -6.523  -4.358 -34.351  1.00  0.00     0.218 HD
ENDBRANCH  16  19
BRANCH  17  21
HETATM   21  O   UNL     1      -4.321  -3.465 -34.706  1.00  0.00    -0.349 OA
BRANCH  21  22
HETATM   22  C   UNL     1      -3.520  -4.145 -33.741  1.00  0.00     0.171 C 
HETATM   23  C   UNL     1      -4.225  -5.442 -33.386  1.00  0.00     0.034 C 
ENDBRANCH  21  22
ENDBRANCH  17  21
ENDBRANCH  12  13
ENDBRANCH   8  11
ENDBRANCH   1   7
BRANCH   5  24
HETATM   24  C   UNL     1      -1.416   7.154 -30.227  1.00  0.00     0.005 A 
HETATM   25  C   UNL     1      -1.578   8.307 -29.397  1.00  0.00    -0.012 A 
HETATM   26  C   UNL     1      -0.541   8.578 -28.533  1.00  0.00    -0.012 A 
HETATM   27  C   UNL     1      -2.656   9.229 -29.324  1.00  0.00     0.013 A 
HETATM   28  C   UNL     1      -0.501   9.657 -27.668  1.00  0.00    -0.046 A 
HETATM   29  C   UNL     1       0.602   7.812 -28.420  1.00  0.00    -0.046 A 
HETATM   30  C   UNL     1      -1.541  10.571 -27.600  1.00  0.00     0.008 A 
HETATM   31  C   UNL     1       0.770   9.659 -26.894  1.00  0.00     0.044 A 
HETATM   32  C   UNL     1      -2.630  10.334 -28.446  1.00  0.00     0.001 A 
HETATM   33  C   UNL     1       1.520   8.390 -27.399  1.00  0.00     0.044 A 
HETATM   34  C   UNL     1       0.794   6.682 -29.195  1.00  0.00     0.009 A 
HETATM   35  C   UNL     1      -0.232   6.372 -30.102  1.00  0.00     0.015 A 
ENDBRANCH   5  24
TORSDOF 7
ENDMDL
MODEL 9
REMARK VINA RESULT:      -8.7      8.841     11.974
REMARK  7 active torsions:
REMARK  status: ('A' for Active; 'I' for Inactive)
REMARK    1  A    between atoms: C_2  and  O_3 
REMARK    2  A    between atoms: O_3  and  C_4 
REMARK    3  A    between atoms: C_5  and  O_6 
REMARK    4  A    between atoms: C_9  and  C_10 
REMARK    5  A    between atoms: N_11  and  N_12 
REMARK       I    between atoms: N_12  and  C_13 
REMARK    6  A    between atoms: C_13  and  C_14 
REMARK    7  A    between atoms: C_18  and  C_19 
ROOT
HETATM    1  C   UNL     1     -10.735   1.229 -34.261  1.00  0.00     0.121 A 
HETATM    2  N   UNL     1     -11.083   0.402 -33.230  1.00  0.00    -0.272 N 
HETATM    3  H   UNL     1     -12.024   0.201 -32.904  1.00  0.00     0.189 HD
HETATM    4  N   UNL     1     -10.044  -0.128 -32.575  1.00  0.00    -0.174 NA
HETATM    5  C   UNL     1      -8.957   0.341 -33.206  1.00  0.00     0.090 A 
HETATM    6  C   UNL     1      -9.356   1.165 -34.304  1.00  0.00     0.071 A 
ENDROOT
BRANCH   1   7
HETATM    7  C   UNL     1     -11.725   1.985 -34.986  1.00  0.00     0.289 C 
HETATM    8  N   UNL     1     -11.358   3.296 -35.260  1.00  0.00    -0.242 N 
HETATM    9  H   UNL     1     -10.373   3.534 -35.251  1.00  0.00     0.192 HD
HETATM   10  O   UNL     1     -12.802   1.481 -35.292  1.00  0.00    -0.264 OA
BRANCH   8  11
HETATM   11  N   UNL     1     -12.159   4.277 -35.797  1.00  0.00    -0.184 NA
HETATM   12  C   UNL     1     -11.966   5.493 -35.392  1.00  0.00     0.150 C 
BRANCH  12  13
HETATM   13  C   UNL     1     -12.748   6.633 -35.914  1.00  0.00    -0.014 A 
HETATM   14  C   UNL     1     -12.059   7.807 -36.244  1.00  0.00     0.016 A 
HETATM   15  C   UNL     1     -12.752   8.885 -36.789  1.00  0.00     0.040 A 
HETATM   16  C   UNL     1     -14.121   8.775 -36.994  1.00  0.00     0.099 A 
HETATM   17  C   UNL     1     -14.828   7.613 -36.654  1.00  0.00     0.102 A 
HETATM   18  C   UNL     1     -14.132   6.533 -36.112  1.00  0.00     0.052 A 
BRANCH  16  19
HETATM   19  O   UNL     1     -14.776   9.842 -37.544  1.00  0.00    -0.358 OA
HETATM   20  H   UNL     1     -14.071  10.417 -37.898  1.00  0.00     0.218 HD
ENDBRANCH  16  19
BRANCH  17  21
HETATM   21  O   UNL     1     -16.172   7.663 -36.917  1.00  0.00    -0.349 OA
BRANCH  21  22
HETATM   22  C   UNL     1     -17.051   7.350 -35.836  1.00  0.00     0.171 C 
HETATM   23  C   UNL     1     -18.413   7.030 -36.426  1.00  0.00     0.034 C 
ENDBRANCH  21  22
ENDBRANCH  17  21
ENDBRANCH  12  13
ENDBRANCH   8  11
ENDBRANCH   1   7
BRANCH   5  24
HETATM   24  C   UNL     1      -7.585   0.081 -32.735  1.00  0.00     0.005 A 
HETATM   25  C   UNL     1      -6.706  -0.853 -33.368  1.00  0.00    -0.012 A 
HETATM   26  C   UNL     1      -5.476  -1.021 -32.772  1.00  0.00    -0.012 A 
HETATM   27  C   UNL     1      -6.906  -1.645 -34.530  1.00  0.00     0.013 A 
HETATM   28  C   UNL     1      -4.499  -1.893 -33.219  1.00  0.00    -0.046 A 
HETATM   29  C   UNL     1      -5.056  -0.347 -31.642  1.00  0.00    -0.046 A 
HETATM   30  C   UNL     1      -4.691  -2.682 -34.343  1.00  0.00     0.008 A 
HETATM   31  C   UNL     1      -3.305  -1.838 -32.333  1.00  0.00     0.044 A 
HETATM   32  C   UNL     1      -5.920  -2.538 -34.998  1.00  0.00     0.001 A 
HETATM   33  C   UNL     1      -3.681  -0.772 -31.261  1.00  0.00     0.044 A 
HETATM   34  C   UNL     1      -5.870   0.574 -31.007  1.00  0.00     0.009 A 
HETATM   35  C   UNL     1      -7.141   0.770 -31.571  1.00  0.00     0.015 A 
ENDBRANCH   5  24
TORSDOF 7
ENDMDL
MODEL 10
REMARK VINA RESULT:      -8.6      8.454     10.960
REMARK  7 active torsions:
REMARK  status: ('A' for Active; 'I' for Inactive)
REMARK    1  A    between atoms: C_2  and  O_3 
REMARK    2  A    between atoms: O_3  and  C_4 
REMARK    3  A    between atoms: C_5  and  O_6 
REMARK    4  A    between atoms: C_9  and  C_10 
REMARK    5  A    between atoms: N_11  and  N_12 
REMARK       I    between atoms: N_12  and  C_13 
REMARK    6  A    between atoms: C_13  and  C_14 
REMARK    7  A    between atoms: C_18  and  C_19 
ROOT
HETATM    1  C   UNL     1      -8.518   1.557 -33.812  1.00  0.00     0.121 A 
HETATM    2  N   UNL     1      -7.399   2.283 -34.111  1.00  0.00    -0.272 N 
HETATM    3  H   UNL     1      -7.370   3.227 -34.487  1.00  0.00     0.189 HD
HETATM    4  N   UNL     1      -6.250   1.621 -33.932  1.00  0.00    -0.174 NA
HETATM    5  C   UNL     1      -6.611   0.414 -33.470  1.00  0.00     0.090 A 
HETATM    6  C   UNL     1      -8.033   0.354 -33.339  1.00  0.00     0.071 A 
ENDROOT
BRANCH   1   7
HETATM    7  C   UNL     1      -9.839   2.071 -34.073  1.00  0.00     0.289 C 
HETATM    8  N   UNL     1      -9.862   3.237 -34.829  1.00  0.00    -0.242 N 
HETATM    9  H   UNL     1      -9.056   3.456 -35.403  1.00  0.00     0.192 HD
HETATM   10  O   UNL     1     -10.833   1.510 -33.622  1.00  0.00    -0.264 OA
BRANCH   8  11
HETATM   11  N   UNL     1     -10.961   4.020 -35.096  1.00  0.00    -0.184 NA
HETATM   12  C   UNL     1     -10.764   5.292 -35.247  1.00  0.00     0.150 C 
BRANCH  12  13
HETATM   13  C   UNL     1     -11.863   6.230 -35.560  1.00  0.00    -0.014 A 
HETATM   14  C   UNL     1     -13.157   5.888 -35.146  1.00  0.00     0.016 A 
HETATM   15  C   UNL     1     -14.210   6.769 -35.375  1.00  0.00     0.040 A 
HETATM   16  C   UNL     1     -13.957   7.975 -36.016  1.00  0.00     0.099 A 
HETATM   17  C   UNL     1     -12.671   8.324 -36.452  1.00  0.00     0.102 A 
HETATM   18  C   UNL     1     -11.616   7.443 -36.217  1.00  0.00     0.052 A 
BRANCH  16  19
HETATM   19  O   UNL     1     -15.006   8.829 -36.217  1.00  0.00    -0.358 OA
HETATM   20  H   UNL     1     -15.303   8.655 -37.131  1.00  0.00     0.218 HD
ENDBRANCH  16  19
BRANCH  17  21
HETATM   21  O   UNL     1     -12.587   9.545 -37.068  1.00  0.00    -0.349 OA
BRANCH  21  22
HETATM   22  C   UNL     1     -11.828   9.606 -38.275  1.00  0.00     0.171 C 
HETATM   23  C   UNL     1     -12.689   9.040 -39.391  1.00  0.00     0.034 C 
ENDBRANCH  21  22
ENDBRANCH  17  21
ENDBRANCH  12  13
ENDBRANCH   8  11
ENDBRANCH   1   7
BRANCH   5  24
HETATM   24  C   UNL     1      -5.644  -0.674 -33.238  1.00  0.00     0.005 A 
HETATM   25  C   UNL     1      -5.737  -1.950 -33.876  1.00  0.00    -0.012 A 
HETATM   26  C   UNL     1      -4.787  -2.877 -33.510  1.00  0.00    -0.012 A 
HETATM   27  C   UNL     1      -6.668  -2.418 -34.842  1.00  0.00     0.013 A 
HETATM   28  C   UNL     1      -4.722  -4.171 -33.997  1.00  0.00    -0.046 A 
HETATM   29  C   UNL     1      -3.775  -2.641 -32.599  1.00  0.00    -0.046 A 
HETATM   30  C   UNL     1      -5.635  -4.642 -34.928  1.00  0.00     0.008 A 
HETATM   31  C   UNL     1      -3.586  -4.906 -33.377  1.00  0.00     0.044 A 
HETATM   32  C   UNL     1      -6.614  -3.734 -35.349  1.00  0.00     0.001 A 
HETATM   33  C   UNL     1      -2.931  -3.857 -32.430  1.00  0.00     0.044 A 
HETATM   34  C   UNL     1      -3.643  -1.417 -31.969  1.00  0.00     0.009 A 
HETATM   35  C   UNL     1      -4.597  -0.443 -32.301  1.00  0.00     0.015 A 
ENDBRANCH   5  24
TORSDOF 7
ENDMDL
