MODEL 1
REMARK VINA RESULT:      -8.1      0.000      0.000
REMARK  6 active torsions:
REMARK  status: ('A' for Active; 'I' for Inactive)
REMARK    1  A    between atoms: C_2  and  C_3 
REMARK    2  A    between atoms: C_3  and  O_4 
REMARK    3  A    between atoms: O_4  and  C_5 
REMARK    4  A    between atoms: C_6  and  O_7 
REMARK    5  A    between atoms: C_10  and  C_11 
REMARK    6  A    between atoms: C_25  and  O_26 
ROOT
HETATM    1  C   UNL     1      -4.576   2.092 -30.768  1.00  0.00     0.269 C 
HETATM    2  N   UNL     1      -5.759   2.459 -29.902  1.00  0.00    -0.061 N 
HETATM    3  H   UNL     1      -5.400   2.656 -28.963  1.00  0.00     0.278 HD
HETATM    4  H   UNL     1      -6.374   1.641 -29.826  1.00  0.00     0.278 HD
HETATM    5  C   UNL     1      -6.552   3.654 -30.375  1.00  0.00     0.238 C 
HETATM    6  C   UNL     1      -5.678   4.921 -30.394  1.00  0.00     0.069 C 
HETATM    7  C   UNL     1      -4.368   4.632 -31.044  1.00  0.00    -0.019 A 
HETATM    8  C   UNL     1      -3.898   3.343 -31.209  1.00  0.00     0.052 A 
HETATM    9  N   UNL     1      -2.683   3.412 -31.842  1.00  0.00    -0.356 N 
HETATM   10  H   UNL     1      -2.098   2.633 -32.121  1.00  0.00     0.166 HD
HETATM   11  C   UNL     1      -2.348   4.733 -32.055  1.00  0.00     0.043 A 
HETATM   12  C   UNL     1      -3.387   5.519 -31.556  1.00  0.00     0.002 A 
HETATM   13  C   UNL     1      -1.207   5.287 -32.645  1.00  0.00     0.033 A 
HETATM   14  C   UNL     1      -1.116   6.684 -32.707  1.00  0.00     0.039 A 
HETATM   15  C   UNL     1      -2.129   7.498 -32.201  1.00  0.00     0.069 A 
HETATM   16  C   UNL     1      -3.273   6.919 -31.636  1.00  0.00     0.051 A 
ENDROOT
BRANCH   1  17
HETATM   17  C   UNL     1      -4.987   1.136 -31.870  1.00  0.00    -0.019 A 
HETATM   18  C   UNL     1      -4.184   0.012 -32.115  1.00  0.00     0.049 A 
HETATM   19  C   UNL     1      -4.541  -0.918 -33.093  1.00  0.00     0.102 A 
HETATM   20  C   UNL     1      -5.720  -0.777 -33.835  1.00  0.00     0.102 A 
HETATM   21  C   UNL     1      -6.526   0.335 -33.592  1.00  0.00     0.040 A 
HETATM   22  C   UNL     1      -6.167   1.281 -32.618  1.00  0.00     0.012 A 
BRANCH  19  23
HETATM   23  O   UNL     1      -3.749  -2.027 -33.237  1.00  0.00    -0.353 OA
HETATM   24  C   UNL     1      -3.149  -2.376 -31.989  1.00  0.00     0.210 C 
ENDBRANCH  19  23
BRANCH  20  25
HETATM   25  O   UNL     1      -5.979  -1.762 -34.747  1.00  0.00    -0.348 OA
BRANCH  25  26
HETATM   26  C   UNL     1      -6.898  -2.791 -34.380  1.00  0.00     0.175 C 
BRANCH  26  27
HETATM   27  C   UNL     1      -6.540  -4.043 -35.175  1.00  0.00     0.022 C 
HETATM   28  C   UNL     1      -5.363  -4.784 -34.568  1.00  0.00     0.007 C 
ENDBRANCH  26  27
ENDBRANCH  25  26
ENDBRANCH  20  25
ENDBRANCH   1  17
BRANCH  15  29
HETATM   29  O   UNL     1      -2.133   8.866 -32.198  1.00  0.00    -0.356 OA
HETATM   30  C   UNL     1      -2.346   9.508 -30.945  1.00  0.00     0.210 C 
ENDBRANCH  15  29
TORSDOF 6
ENDMDL
MODEL 2
REMARK VINA RESULT:      -8.0      4.402      7.100
REMARK  6 active torsions:
REMARK  status: ('A' for Active; 'I' for Inactive)
REMARK    1  A    between atoms: C_2  and  C_3 
REMARK    2  A    between atoms: C_3  and  O_4 
REMARK    3  A    between atoms: O_4  and  C_5 
REMARK    4  A    between atoms: C_6  and  O_7 
REMARK    5  A    between atoms: C_10  and  C_11 
REMARK    6  A    between atoms: C_25  and  O_26 
ROOT
HETATM    1  C   UNL     1      -7.454   2.403 -33.491  1.00  0.00     0.269 C 
HETATM    2  N   UNL     1      -7.047   3.162 -32.249  1.00  0.00    -0.061 N 
HETATM    3  H   UNL     1      -7.098   4.161 -32.472  1.00  0.00     0.278 HD
HETATM    4  H   UNL     1      -6.066   2.947 -32.042  1.00  0.00     0.278 HD
HETATM    5  C   UNL     1      -7.897   2.897 -31.029  1.00  0.00     0.238 C 
HETATM    6  C   UNL     1      -9.359   3.313 -31.277  1.00  0.00     0.069 C 
HETATM    7  C   UNL     1      -9.823   2.798 -32.596  1.00  0.00    -0.019 A 
HETATM    8  C   UNL     1      -8.941   2.384 -33.576  1.00  0.00     0.052 A 
HETATM    9  N   UNL     1      -9.674   1.961 -34.656  1.00  0.00    -0.356 N 
HETATM   10  H   UNL     1      -9.314   1.580 -35.523  1.00  0.00     0.166 HD
HETATM   11  C   UNL     1     -11.018   2.131 -34.397  1.00  0.00     0.043 A 
HETATM   12  C   UNL     1     -11.138   2.662 -33.111  1.00  0.00     0.002 A 
HETATM   13  C   UNL     1     -12.130   1.859 -35.200  1.00  0.00     0.033 A 
HETATM   14  C   UNL     1     -13.399   2.160 -34.686  1.00  0.00     0.039 A 
HETATM   15  C   UNL     1     -13.551   2.708 -33.413  1.00  0.00     0.069 A 
HETATM   16  C   UNL     1     -12.423   2.949 -32.617  1.00  0.00     0.051 A 
ENDROOT
BRANCH   1  17
HETATM   17  C   UNL     1      -6.769   1.053 -33.549  1.00  0.00    -0.019 A 
HETATM   18  C   UNL     1      -5.418   0.971 -33.180  1.00  0.00     0.049 A 
HETATM   19  C   UNL     1      -4.754  -0.257 -33.180  1.00  0.00     0.102 A 
HETATM   20  C   UNL     1      -5.417  -1.443 -33.515  1.00  0.00     0.102 A 
HETATM   21  C   UNL     1      -6.762  -1.370 -33.877  1.00  0.00     0.040 A 
HETATM   22  C   UNL     1      -7.434  -0.137 -33.891  1.00  0.00     0.012 A 
BRANCH  19  23
HETATM   23  O   UNL     1      -3.453  -0.277 -32.745  1.00  0.00    -0.353 OA
HETATM   24  C   UNL     1      -3.391   0.006 -31.348  1.00  0.00     0.210 C 
ENDBRANCH  19  23
BRANCH  20  25
HETATM   25  O   UNL     1      -4.671  -2.587 -33.455  1.00  0.00    -0.348 OA
BRANCH  25  26
HETATM   26  C   UNL     1      -4.443  -3.303 -34.671  1.00  0.00     0.175 C 
BRANCH  26  27
HETATM   27  C   UNL     1      -5.182  -4.634 -34.574  1.00  0.00     0.022 C 
HETATM   28  C   UNL     1      -6.465  -4.632 -35.387  1.00  0.00     0.007 C 
ENDBRANCH  26  27
ENDBRANCH  25  26
ENDBRANCH  20  25
ENDBRANCH   1  17
BRANCH  15  29
HETATM   29  O   UNL     1     -14.737   3.050 -32.822  1.00  0.00    -0.356 OA
HETATM   30  C   UNL     1     -15.436   2.019 -32.133  1.00  0.00     0.210 C 
ENDBRANCH  15  29
TORSDOF 6
ENDMDL
MODEL 3
REMARK VINA RESULT:      -8.0      1.141      2.068
REMARK  6 active torsions:
REMARK  status: ('A' for Active; 'I' for Inactive)
REMARK    1  A    between atoms: C_2  and  C_3 
REMARK    2  A    between atoms: C_3  and  O_4 
REMARK    3  A    between atoms: O_4  and  C_5 
REMARK    4  A    between atoms: C_6  and  O_7 
REMARK    5  A    between atoms: C_10  and  C_11 
REMARK    6  A    between atoms: C_25  and  O_26 
ROOT
HETATM    1  C   UNL     1      -5.095   1.176 -30.432  1.00  0.00     0.269 C 
HETATM    2  N   UNL     1      -6.326   1.462 -29.604  1.00  0.00    -0.061 N 
HETATM    3  H   UNL     1      -6.010   1.676 -28.652  1.00  0.00     0.278 HD
HETATM    4  H   UNL     1      -6.891   0.608 -29.552  1.00  0.00     0.278 HD
HETATM    5  C   UNL     1      -7.177   2.608 -30.097  1.00  0.00     0.238 C 
HETATM    6  C   UNL     1      -6.383   3.928 -30.082  1.00  0.00     0.069 C 
HETATM    7  C   UNL     1      -5.038   3.725 -30.690  1.00  0.00    -0.019 A 
HETATM    8  C   UNL     1      -4.483   2.470 -30.846  1.00  0.00     0.052 A 
HETATM    9  N   UNL     1      -3.255   2.619 -31.438  1.00  0.00    -0.356 N 
HETATM   10  H   UNL     1      -2.613   1.880 -31.702  1.00  0.00     0.166 HD
HETATM   11  C   UNL     1      -2.997   3.959 -31.635  1.00  0.00     0.043 A 
HETATM   12  C   UNL     1      -4.099   4.676 -31.166  1.00  0.00     0.002 A 
HETATM   13  C   UNL     1      -1.875   4.588 -32.185  1.00  0.00     0.033 A 
HETATM   14  C   UNL     1      -1.869   5.988 -32.237  1.00  0.00     0.039 A 
HETATM   15  C   UNL     1      -2.947   6.733 -31.762  1.00  0.00     0.069 A 
HETATM   16  C   UNL     1      -4.070   6.081 -31.237  1.00  0.00     0.051 A 
ENDROOT
BRANCH   1  17
HETATM   17  C   UNL     1      -5.409   0.204 -31.551  1.00  0.00    -0.019 A 
HETATM   18  C   UNL     1      -6.676   0.263 -32.152  1.00  0.00     0.049 A 
HETATM   19  C   UNL     1      -7.000  -0.586 -33.213  1.00  0.00     0.102 A 
HETATM   20  C   UNL     1      -6.069  -1.495 -33.728  1.00  0.00     0.102 A 
HETATM   21  C   UNL     1      -4.805  -1.554 -33.140  1.00  0.00     0.040 A 
HETATM   22  C   UNL     1      -4.477  -0.712 -32.065  1.00  0.00     0.012 A 
BRANCH  19  23
HETATM   23  O   UNL     1      -8.231  -0.432 -33.798  1.00  0.00    -0.353 OA
HETATM   24  C   UNL     1      -8.286   0.794 -34.527  1.00  0.00     0.210 C 
ENDBRANCH  19  23
BRANCH  20  25
HETATM   25  O   UNL     1      -6.490  -2.256 -34.783  1.00  0.00    -0.348 OA
BRANCH  25  26
HETATM   26  C   UNL     1      -6.981  -3.569 -34.508  1.00  0.00     0.175 C 
BRANCH  26  27
HETATM   27  C   UNL     1      -6.106  -4.563 -35.266  1.00  0.00     0.022 C 
HETATM   28  C   UNL     1      -4.925  -5.031 -34.434  1.00  0.00     0.007 C 
ENDBRANCH  26  27
ENDBRANCH  25  26
ENDBRANCH  20  25
ENDBRANCH   1  17
BRANCH  15  29
HETATM   29  O   UNL     1      -3.038   8.099 -31.753  1.00  0.00    -0.356 OA
HETATM   30  C   UNL     1      -2.473   8.776 -30.634  1.00  0.00     0.210 C 
ENDBRANCH  15  29
TORSDOF 6
ENDMDL
MODEL 4
REMARK VINA RESULT:      -7.7      3.522      7.908
REMARK  6 active torsions:
REMARK  status: ('A' for Active; 'I' for Inactive)
REMARK    1  A    between atoms: C_2  and  C_3 
REMARK    2  A    between atoms: C_3  and  O_4 
REMARK    3  A    between atoms: O_4  and  C_5 
REMARK    4  A    between atoms: C_6  and  O_7 
REMARK    5  A    between atoms: C_10  and  C_11 
REMARK    6  A    between atoms: C_25  and  O_26 
ROOT
HETATM    1  C   UNL     1      -7.652   1.400 -30.888  1.00  0.00     0.269 C 
HETATM    2  N   UNL     1      -6.725   1.633 -29.718  1.00  0.00    -0.061 N 
HETATM    3  H   UNL     1      -6.867   0.863 -29.057  1.00  0.00     0.278 HD
HETATM    4  H   UNL     1      -7.009   2.497 -29.243  1.00  0.00     0.278 HD
HETATM    5  C   UNL     1      -5.257   1.701 -30.068  1.00  0.00     0.238 C 
HETATM    6  C   UNL     1      -4.778   0.374 -30.685  1.00  0.00     0.069 C 
HETATM    7  C   UNL     1      -5.739  -0.085 -31.727  1.00  0.00    -0.019 A 
HETATM    8  C   UNL     1      -7.030   0.402 -31.802  1.00  0.00     0.052 A 
HETATM    9  N   UNL     1      -7.652  -0.205 -32.863  1.00  0.00    -0.356 N 
HETATM   10  H   UNL     1      -8.598  -0.041 -33.189  1.00  0.00     0.166 HD
HETATM   11  C   UNL     1      -6.788  -1.105 -33.452  1.00  0.00     0.043 A 
HETATM   12  C   UNL     1      -5.582  -1.053 -32.751  1.00  0.00     0.002 A 
HETATM   13  C   UNL     1      -6.984  -1.957 -34.543  1.00  0.00     0.033 A 
HETATM   14  C   UNL     1      -5.926  -2.798 -34.915  1.00  0.00     0.039 A 
HETATM   15  C   UNL     1      -4.715  -2.783 -34.224  1.00  0.00     0.069 A 
HETATM   16  C   UNL     1      -4.534  -1.903 -33.150  1.00  0.00     0.051 A 
ENDROOT
BRANCH   1  17
HETATM   17  C   UNL     1      -8.065   2.713 -31.521  1.00  0.00    -0.019 A 
HETATM   18  C   UNL     1      -7.264   3.243 -32.545  1.00  0.00     0.049 A 
HETATM   19  C   UNL     1      -7.623   4.430 -33.186  1.00  0.00     0.102 A 
HETATM   20  C   UNL     1      -8.801   5.110 -32.854  1.00  0.00     0.102 A 
HETATM   21  C   UNL     1      -9.605   4.585 -31.842  1.00  0.00     0.040 A 
HETATM   22  C   UNL     1      -9.244   3.398 -31.184  1.00  0.00     0.012 A 
BRANCH  19  23
HETATM   23  O   UNL     1      -6.833   4.858 -34.222  1.00  0.00    -0.353 OA
HETATM   24  C   UNL     1      -5.547   5.245 -33.740  1.00  0.00     0.210 C 
ENDBRANCH  19  23
BRANCH  20  25
HETATM   25  O   UNL     1      -9.061   6.248 -33.566  1.00  0.00    -0.348 OA
BRANCH  25  26
HETATM   26  C   UNL     1     -10.321   6.349 -34.230  1.00  0.00     0.175 C 
BRANCH  26  27
HETATM   27  C   UNL     1     -10.298   5.397 -35.423  1.00  0.00     0.022 C 
HETATM   28  C   UNL     1     -11.441   4.399 -35.376  1.00  0.00     0.007 C 
ENDBRANCH  26  27
ENDBRANCH  25  26
ENDBRANCH  20  25
ENDBRANCH   1  17
BRANCH  15  29
HETATM   29  O   UNL     1      -3.627  -3.569 -34.494  1.00  0.00    -0.356 OA
HETATM   30  C   UNL     1      -3.481  -4.756 -33.722  1.00  0.00     0.210 C 
ENDBRANCH  15  29
TORSDOF 6
ENDMDL
MODEL 5
REMARK VINA RESULT:      -7.7      2.526      3.832
REMARK  6 active torsions:
REMARK  status: ('A' for Active; 'I' for Inactive)
REMARK    1  A    between atoms: C_2  and  C_3 
REMARK    2  A    between atoms: C_3  and  O_4 
REMARK    3  A    between atoms: O_4  and  C_5 
REMARK    4  A    between atoms: C_6  and  O_7 
REMARK    5  A    between atoms: C_10  and  C_11 
REMARK    6  A    between atoms: C_25  and  O_26 
ROOT
HETATM    1  C   UNL     1      -4.097   5.572 -33.713  1.00  0.00     0.269 C 
HETATM    2  N   UNL     1      -3.275   5.565 -34.981  1.00  0.00    -0.061 N 
HETATM    3  H   UNL     1      -3.225   6.532 -35.317  1.00  0.00     0.278 HD
HETATM    4  H   UNL     1      -3.776   5.022 -35.692  1.00  0.00     0.278 HD
HETATM    5  C   UNL     1      -1.869   5.036 -34.830  1.00  0.00     0.238 C 
HETATM    6  C   UNL     1      -1.059   5.901 -33.846  1.00  0.00     0.069 C 
HETATM    7  C   UNL     1      -1.858   6.165 -32.617  1.00  0.00    -0.019 A 
HETATM    8  C   UNL     1      -3.229   6.000 -32.581  1.00  0.00     0.052 A 
HETATM    9  N   UNL     1      -3.662   6.312 -31.317  1.00  0.00    -0.356 N 
HETATM   10  H   UNL     1      -4.614   6.268 -30.972  1.00  0.00     0.166 HD
HETATM   11  C   UNL     1      -2.589   6.712 -30.547  1.00  0.00     0.043 A 
HETATM   12  C   UNL     1      -1.445   6.635 -31.344  1.00  0.00     0.002 A 
HETATM   13  C   UNL     1      -2.546   7.136 -29.215  1.00  0.00     0.033 A 
HETATM   14  C   UNL     1      -1.304   7.515 -28.688  1.00  0.00     0.039 A 
HETATM   15  C   UNL     1      -0.146   7.467 -29.463  1.00  0.00     0.069 A 
HETATM   16  C   UNL     1      -0.210   7.015 -30.788  1.00  0.00     0.051 A 
ENDROOT
BRANCH   1  17
HETATM   17  C   UNL     1      -4.823   4.254 -33.531  1.00  0.00    -0.019 A 
HETATM   18  C   UNL     1      -4.330   3.344 -32.583  1.00  0.00     0.049 A 
HETATM   19  C   UNL     1      -4.986   2.134 -32.352  1.00  0.00     0.102 A 
HETATM   20  C   UNL     1      -6.165   1.803 -33.030  1.00  0.00     0.102 A 
HETATM   21  C   UNL     1      -6.664   2.706 -33.969  1.00  0.00     0.040 A 
HETATM   22  C   UNL     1      -6.003   3.920 -34.216  1.00  0.00     0.012 A 
BRANCH  19  23
HETATM   23  O   UNL     1      -4.490   1.319 -31.366  1.00  0.00    -0.353 OA
HETATM   24  C   UNL     1      -3.340   0.615 -31.834  1.00  0.00     0.210 C 
ENDBRANCH  19  23
BRANCH  20  25
HETATM   25  O   UNL     1      -6.731   0.602 -32.704  1.00  0.00    -0.348 OA
BRANCH  25  26
HETATM   26  C   UNL     1      -7.158  -0.249 -33.768  1.00  0.00     0.175 C 
BRANCH  26  27
HETATM   27  C   UNL     1      -6.108  -1.343 -33.941  1.00  0.00     0.022 C 
HETATM   28  C   UNL     1      -6.672  -2.564 -34.646  1.00  0.00     0.007 C 
ENDBRANCH  26  27
ENDBRANCH  25  26
ENDBRANCH  20  25
ENDBRANCH   1  17
BRANCH  15  29
HETATM   29  O   UNL     1       1.109   7.826 -29.053  1.00  0.00    -0.356 OA
HETATM   30  C   UNL     1       1.215   8.474 -27.790  1.00  0.00     0.210 C 
ENDBRANCH  15  29
TORSDOF 6
ENDMDL
MODEL 6
REMARK VINA RESULT:      -7.5      5.230      8.620
REMARK  6 active torsions:
REMARK  status: ('A' for Active; 'I' for Inactive)
REMARK    1  A    between atoms: C_2  and  C_3 
REMARK    2  A    between atoms: C_3  and  O_4 
REMARK    3  A    between atoms: O_4  and  C_5 
REMARK    4  A    between atoms: C_6  and  O_7 
REMARK    5  A    between atoms: C_10  and  C_11 
REMARK    6  A    between atoms: C_25  and  O_26 
ROOT
HETATM    1  C   UNL     1      -9.826   1.168 -32.072  1.00  0.00     0.269 C 
HETATM    2  N   UNL     1      -9.535   1.912 -30.790  1.00  0.00    -0.061 N 
HETATM    3  H   UNL     1      -9.621   1.240 -30.021  1.00  0.00     0.278 HD
HETATM    4  H   UNL     1     -10.261   2.624 -30.653  1.00  0.00     0.278 HD
HETATM    5  C   UNL     1      -8.169   2.554 -30.717  1.00  0.00     0.238 C 
HETATM    6  C   UNL     1      -7.058   1.492 -30.811  1.00  0.00     0.069 C 
HETATM    7  C   UNL     1      -7.344   0.547 -31.927  1.00  0.00    -0.019 A 
HETATM    8  C   UNL     1      -8.602   0.427 -32.485  1.00  0.00     0.052 A 
HETATM    9  N   UNL     1      -8.535  -0.510 -33.485  1.00  0.00    -0.356 N 
HETATM   10  H   UNL     1      -9.290  -0.803 -34.095  1.00  0.00     0.166 HD
HETATM   11  C   UNL     1      -7.256  -1.021 -33.554  1.00  0.00     0.043 A 
HETATM   12  C   UNL     1      -6.490  -0.379 -32.580  1.00  0.00     0.002 A 
HETATM   13  C   UNL     1      -6.724  -2.001 -34.398  1.00  0.00     0.033 A 
HETATM   14  C   UNL     1      -5.377  -2.352 -34.227  1.00  0.00     0.039 A 
HETATM   15  C   UNL     1      -4.591  -1.741 -33.252  1.00  0.00     0.069 A 
HETATM   16  C   UNL     1      -5.139  -0.745 -32.434  1.00  0.00     0.051 A 
ENDROOT
BRANCH   1  17
HETATM   17  C   UNL     1     -10.422   2.095 -33.112  1.00  0.00    -0.019 A 
HETATM   18  C   UNL     1     -11.629   1.725 -33.726  1.00  0.00     0.049 A 
HETATM   19  C   UNL     1     -12.237   2.564 -34.662  1.00  0.00     0.102 A 
HETATM   20  C   UNL     1     -11.685   3.806 -34.993  1.00  0.00     0.102 A 
HETATM   21  C   UNL     1     -10.489   4.184 -34.382  1.00  0.00     0.040 A 
HETATM   22  C   UNL     1      -9.865   3.340 -33.449  1.00  0.00     0.012 A 
BRANCH  19  23
HETATM   23  O   UNL     1     -13.447   2.173 -35.175  1.00  0.00    -0.353 OA
HETATM   24  C   UNL     1     -13.975   1.077 -34.428  1.00  0.00     0.210 C 
ENDBRANCH  19  23
BRANCH  20  25
HETATM   25  O   UNL     1     -12.381   4.552 -35.903  1.00  0.00    -0.348 OA
BRANCH  25  26
HETATM   26  C   UNL     1     -13.120   5.676 -35.424  1.00  0.00     0.175 C 
BRANCH  26  27
HETATM   27  C   UNL     1     -13.621   6.457 -36.635  1.00  0.00     0.022 C 
HETATM   28  C   UNL     1     -13.098   7.883 -36.647  1.00  0.00     0.007 C 
ENDBRANCH  26  27
ENDBRANCH  25  26
ENDBRANCH  20  25
ENDBRANCH   1  17
BRANCH  15  29
HETATM   29  O   UNL     1      -3.275  -2.017 -32.993  1.00  0.00    -0.356 OA
HETATM   30  C   UNL     1      -3.005  -2.951 -31.953  1.00  0.00     0.210 C 
ENDBRANCH  15  29
TORSDOF 6
ENDMDL
MODEL 7
REMARK VINA RESULT:      -7.5      3.392      9.059
REMARK  6 active torsions:
REMARK  status: ('A' for Active; 'I' for Inactive)
REMARK    1  A    between atoms: C_2  and  C_3 
REMARK    2  A    between atoms: C_3  and  O_4 
REMARK    3  A    between atoms: O_4  and  C_5 
REMARK    4  A    between atoms: C_6  and  O_7 
REMARK    5  A    between atoms: C_10  and  C_11 
REMARK    6  A    between atoms: C_25  and  O_26 
ROOT
HETATM    1  C   UNL     1      -1.371   4.836 -32.539  1.00  0.00     0.269 C 
HETATM    2  N   UNL     1      -1.404   5.521 -33.886  1.00  0.00    -0.061 N 
HETATM    3  H   UNL     1      -1.219   4.806 -34.596  1.00  0.00     0.278 HD
HETATM    4  H   UNL     1      -0.634   6.197 -33.928  1.00  0.00     0.278 HD
HETATM    5  C   UNL     1      -2.707   6.208 -34.223  1.00  0.00     0.238 C 
HETATM    6  C   UNL     1      -3.865   5.195 -34.273  1.00  0.00     0.069 C 
HETATM    7  C   UNL     1      -3.818   4.300 -33.082  1.00  0.00    -0.019 A 
HETATM    8  C   UNL     1      -2.680   4.164 -32.310  1.00  0.00     0.052 A 
HETATM    9  N   UNL     1      -2.959   3.285 -31.294  1.00  0.00    -0.356 N 
HETATM   10  H   UNL     1      -2.334   2.997 -30.550  1.00  0.00     0.166 HD
HETATM   11  C   UNL     1      -4.253   2.826 -31.424  1.00  0.00     0.043 A 
HETATM   12  C   UNL     1      -4.811   3.443 -32.544  1.00  0.00     0.002 A 
HETATM   13  C   UNL     1      -4.966   1.913 -30.640  1.00  0.00     0.033 A 
HETATM   14  C   UNL     1      -6.278   1.604 -31.024  1.00  0.00     0.039 A 
HETATM   15  C   UNL     1      -6.858   2.190 -32.148  1.00  0.00     0.069 A 
HETATM   16  C   UNL     1      -6.133   3.121 -32.904  1.00  0.00     0.051 A 
ENDROOT
BRANCH   1  17
HETATM   17  C   UNL     1      -0.919   5.795 -31.456  1.00  0.00    -0.019 A 
HETATM   18  C   UNL     1      -1.891   6.558 -30.789  1.00  0.00     0.049 A 
HETATM   19  C   UNL     1      -1.529   7.426 -29.758  1.00  0.00     0.102 A 
HETATM   20  C   UNL     1      -0.199   7.541 -29.336  1.00  0.00     0.102 A 
HETATM   21  C   UNL     1       0.771   6.780 -29.989  1.00  0.00     0.040 A 
HETATM   22  C   UNL     1       0.416   5.914 -31.036  1.00  0.00     0.012 A 
BRANCH  19  23
HETATM   23  O   UNL     1      -2.534   8.092 -29.104  1.00  0.00    -0.353 OA
HETATM   24  C   UNL     1      -3.375   7.170 -28.412  1.00  0.00     0.210 C 
ENDBRANCH  19  23
BRANCH  20  25
HETATM   25  O   UNL     1       0.032   8.404 -28.301  1.00  0.00    -0.348 OA
BRANCH  25  26
HETATM   26  C   UNL     1       1.379   8.571 -27.855  1.00  0.00     0.175 C 
BRANCH  26  27
HETATM   27  C   UNL     1       1.544   7.778 -26.562  1.00  0.00     0.022 C 
HETATM   28  C   UNL     1       2.306   8.562 -25.509  1.00  0.00     0.007 C 
ENDBRANCH  26  27
ENDBRANCH  25  26
ENDBRANCH  20  25
ENDBRANCH   1  17
BRANCH  15  29
HETATM   29  O   UNL     1      -8.121   1.950 -32.618  1.00  0.00    -0.356 OA
HETATM   30  C   UNL     1      -9.049   1.372 -31.706  1.00  0.00     0.210 C 
ENDBRANCH  15  29
TORSDOF 6
ENDMDL
MODEL 8
REMARK VINA RESULT:      -7.4      3.909      4.915
REMARK  6 active torsions:
REMARK  status: ('A' for Active; 'I' for Inactive)
REMARK    1  A    between atoms: C_2  and  C_3 
REMARK    2  A    between atoms: C_3  and  O_4 
REMARK    3  A    between atoms: O_4  and  C_5 
REMARK    4  A    between atoms: C_6  and  O_7 
REMARK    5  A    between atoms: C_10  and  C_11 
REMARK    6  A    between atoms: C_25  and  O_26 
ROOT
HETATM    1  C   UNL     1      -9.075   0.633 -31.744  1.00  0.00     0.269 C 
HETATM    2  N   UNL     1     -10.323   0.597 -32.597  1.00  0.00    -0.061 N 
HETATM    3  H   UNL     1     -11.124   0.532 -31.961  1.00  0.00     0.278 HD
HETATM    4  H   UNL     1     -10.310  -0.261 -33.158  1.00  0.00     0.278 HD
HETATM    5  C   UNL     1     -10.518   1.794 -33.497  1.00  0.00     0.238 C 
HETATM    6  C   UNL     1     -10.649   3.087 -32.671  1.00  0.00     0.069 C 
HETATM    7  C   UNL     1      -9.583   3.143 -31.631  1.00  0.00    -0.019 A 
HETATM    8  C   UNL     1      -8.880   2.020 -31.237  1.00  0.00     0.052 A 
HETATM    9  N   UNL     1      -7.973   2.400 -30.281  1.00  0.00    -0.356 N 
HETATM   10  H   UNL     1      -7.297   1.806 -29.814  1.00  0.00     0.166 HD
HETATM   11  C   UNL     1      -8.107   3.749 -30.028  1.00  0.00     0.043 A 
HETATM   12  C   UNL     1      -9.117   4.237 -30.858  1.00  0.00     0.002 A 
HETATM   13  C   UNL     1      -7.416   4.569 -29.130  1.00  0.00     0.033 A 
HETATM   14  C   UNL     1      -7.783   5.920 -29.060  1.00  0.00     0.039 A 
HETATM   15  C   UNL     1      -8.800   6.434 -29.863  1.00  0.00     0.069 A 
HETATM   16  C   UNL     1      -9.462   5.599 -30.773  1.00  0.00     0.051 A 
ENDROOT
BRANCH   1  17
HETATM   17  C   UNL     1      -7.899   0.025 -32.481  1.00  0.00    -0.019 A 
HETATM   18  C   UNL     1      -6.718  -0.227 -31.765  1.00  0.00     0.049 A 
HETATM   19  C   UNL     1      -5.621  -0.821 -32.390  1.00  0.00     0.102 A 
HETATM   20  C   UNL     1      -5.671  -1.212 -33.733  1.00  0.00     0.102 A 
HETATM   21  C   UNL     1      -6.844  -0.972 -34.449  1.00  0.00     0.040 A 
HETATM   22  C   UNL     1      -7.948  -0.363 -33.830  1.00  0.00     0.012 A 
BRANCH  19  23
HETATM   23  O   UNL     1      -4.522  -1.100 -31.618  1.00  0.00    -0.353 OA
HETATM   24  C   UNL     1      -3.939   0.108 -31.128  1.00  0.00     0.210 C 
ENDBRANCH  19  23
BRANCH  20  25
HETATM   25  O   UNL     1      -4.545  -1.807 -34.230  1.00  0.00    -0.348 OA
BRANCH  25  26
HETATM   26  C   UNL     1      -4.707  -2.845 -35.198  1.00  0.00     0.175 C 
BRANCH  26  27
HETATM   27  C   UNL     1      -5.258  -4.073 -34.478  1.00  0.00     0.022 C 
HETATM   28  C   UNL     1      -6.506  -4.614 -35.153  1.00  0.00     0.007 C 
ENDBRANCH  26  27
ENDBRANCH  25  26
ENDBRANCH  20  25
ENDBRANCH   1  17
BRANCH  15  29
HETATM   29  O   UNL     1      -9.245   7.728 -29.865  1.00  0.00    -0.356 OA
HETATM   30  C   UNL     1     -10.187   8.085 -30.871  1.00  0.00     0.210 C 
ENDBRANCH  15  29
TORSDOF 6
ENDMDL
MODEL 9
REMARK VINA RESULT:      -7.3      3.573      8.350
REMARK  6 active torsions:
REMARK  status: ('A' for Active; 'I' for Inactive)
REMARK    1  A    between atoms: C_2  and  C_3 
REMARK    2  A    between atoms: C_3  and  O_4 
REMARK    3  A    between atoms: O_4  and  C_5 
REMARK    4  A    between atoms: C_6  and  O_7 
REMARK    5  A    between atoms: C_10  and  C_11 
REMARK    6  A    between atoms: C_25  and  O_26 
ROOT
HETATM    1  C   UNL     1      -6.278   0.970 -31.478  1.00  0.00     0.269 C 
HETATM    2  N   UNL     1      -5.866  -0.429 -31.873  1.00  0.00    -0.061 N 
HETATM    3  H   UNL     1      -6.316  -1.076 -31.217  1.00  0.00     0.278 HD
HETATM    4  H   UNL     1      -4.853  -0.521 -31.743  1.00  0.00     0.278 HD
HETATM    5  C   UNL     1      -6.240  -0.834 -33.280  1.00  0.00     0.238 C 
HETATM    6  C   UNL     1      -7.768  -0.810 -33.470  1.00  0.00     0.069 C 
HETATM    7  C   UNL     1      -8.336   0.452 -32.917  1.00  0.00    -0.019 A 
HETATM    8  C   UNL     1      -7.637   1.243 -32.025  1.00  0.00     0.052 A 
HETATM    9  N   UNL     1      -8.420   2.326 -31.714  1.00  0.00    -0.356 N 
HETATM   10  H   UNL     1      -8.176   3.096 -31.103  1.00  0.00     0.166 HD
HETATM   11  C   UNL     1      -9.629   2.223 -32.368  1.00  0.00     0.043 A 
HETATM   12  C   UNL     1      -9.604   1.050 -33.125  1.00  0.00     0.002 A 
HETATM   13  C   UNL     1     -10.739   3.074 -32.345  1.00  0.00     0.033 A 
HETATM   14  C   UNL     1     -11.864   2.705 -33.096  1.00  0.00     0.039 A 
HETATM   15  C   UNL     1     -11.876   1.531 -33.848  1.00  0.00     0.069 A 
HETATM   16  C   UNL     1     -10.744   0.707 -33.875  1.00  0.00     0.051 A 
ENDROOT
BRANCH   1  17
HETATM   17  C   UNL     1      -5.203   1.974 -31.843  1.00  0.00    -0.019 A 
HETATM   18  C   UNL     1      -5.512   2.975 -32.777  1.00  0.00     0.049 A 
HETATM   19  C   UNL     1      -4.567   3.946 -33.116  1.00  0.00     0.102 A 
HETATM   20  C   UNL     1      -3.302   3.971 -32.519  1.00  0.00     0.102 A 
HETATM   21  C   UNL     1      -2.991   2.982 -31.585  1.00  0.00     0.040 A 
HETATM   22  C   UNL     1      -3.931   1.995 -31.247  1.00  0.00     0.012 A 
BRANCH  19  23
HETATM   23  O   UNL     1      -4.954   4.934 -33.985  1.00  0.00    -0.353 OA
HETATM   24  C   UNL     1      -6.349   5.201 -33.846  1.00  0.00     0.210 C 
ENDBRANCH  19  23
BRANCH  20  25
HETATM   25  O   UNL     1      -2.470   4.982 -32.912  1.00  0.00    -0.348 OA
BRANCH  25  26
HETATM   26  C   UNL     1      -2.087   5.952 -31.936  1.00  0.00     0.175 C 
BRANCH  26  27
HETATM   27  C   UNL     1      -0.744   6.538 -32.362  1.00  0.00     0.022 C 
HETATM   28  C   UNL     1       0.257   6.553 -31.221  1.00  0.00     0.007 C 
ENDBRANCH  26  27
ENDBRANCH  25  26
ENDBRANCH  20  25
ENDBRANCH   1  17
BRANCH  15  29
HETATM   29  O   UNL     1     -12.922   1.072 -34.602  1.00  0.00    -0.356 OA
HETATM   30  C   UNL     1     -13.931   0.331 -33.924  1.00  0.00     0.210 C 
ENDBRANCH  15  29
TORSDOF 6
ENDMDL
MODEL 10
REMARK VINA RESULT:      -7.2      1.966      8.118
REMARK  6 active torsions:
REMARK  status: ('A' for Active; 'I' for Inactive)
REMARK    1  A    between atoms: C_2  and  C_3 
REMARK    2  A    between atoms: C_3  and  O_4 
REMARK    3  A    between atoms: O_4  and  C_5 
REMARK    4  A    between atoms: C_6  and  O_7 
REMARK    5  A    between atoms: C_10  and  C_11 
REMARK    6  A    between atoms: C_25  and  O_26 
ROOT
HETATM    1  C   UNL     1      -6.973   3.039 -30.668  1.00  0.00     0.269 C 
HETATM    2  N   UNL     1      -6.779   2.363 -29.330  1.00  0.00    -0.061 N 
HETATM    3  H   UNL     1      -7.687   1.979 -29.048  1.00  0.00     0.278 HD
HETATM    4  H   UNL     1      -6.523   3.076 -28.638  1.00  0.00     0.278 HD
HETATM    5  C   UNL     1      -5.761   1.248 -29.318  1.00  0.00     0.238 C 
HETATM    6  C   UNL     1      -6.178   0.112 -30.269  1.00  0.00     0.069 C 
HETATM    7  C   UNL     1      -6.606   0.672 -31.582  1.00  0.00    -0.019 A 
HETATM    8  C   UNL     1      -6.951   2.002 -31.737  1.00  0.00     0.052 A 
HETATM    9  N   UNL     1      -7.286   2.203 -33.052  1.00  0.00    -0.356 N 
HETATM   10  H   UNL     1      -7.562   3.079 -33.481  1.00  0.00     0.166 HD
HETATM   11  C   UNL     1      -7.194   1.011 -33.739  1.00  0.00     0.043 A 
HETATM   12  C   UNL     1      -6.776   0.032 -32.836  1.00  0.00     0.002 A 
HETATM   13  C   UNL     1      -7.453   0.726 -35.084  1.00  0.00     0.033 A 
HETATM   14  C   UNL     1      -7.303  -0.599 -35.513  1.00  0.00     0.039 A 
HETATM   15  C   UNL     1      -6.904  -1.603 -34.632  1.00  0.00     0.069 A 
HETATM   16  C   UNL     1      -6.627  -1.289 -33.295  1.00  0.00     0.051 A 
ENDROOT
BRANCH   1  17
HETATM   17  C   UNL     1      -6.001   4.189 -30.839  1.00  0.00    -0.019 A 
HETATM   18  C   UNL     1      -5.097   4.146 -31.912  1.00  0.00     0.049 A 
HETATM   19  C   UNL     1      -4.208   5.200 -32.134  1.00  0.00     0.102 A 
HETATM   20  C   UNL     1      -4.211   6.339 -31.320  1.00  0.00     0.102 A 
HETATM   21  C   UNL     1      -5.112   6.390 -30.256  1.00  0.00     0.040 A 
HETATM   22  C   UNL     1      -6.000   5.329 -30.019  1.00  0.00     0.012 A 
BRANCH  19  23
HETATM   23  O   UNL     1      -3.397   5.126 -33.237  1.00  0.00    -0.353 OA
HETATM   24  C   UNL     1      -2.382   4.141 -33.044  1.00  0.00     0.210 C 
ENDBRANCH  19  23
BRANCH  20  25
HETATM   25  O   UNL     1      -3.313   7.316 -31.649  1.00  0.00    -0.348 OA
BRANCH  25  26
HETATM   26  C   UNL     1      -2.106   7.400 -30.890  1.00  0.00     0.175 C 
BRANCH  26  27
HETATM   27  C   UNL     1      -0.936   7.394 -31.870  1.00  0.00     0.022 C 
HETATM   28  C   UNL     1       0.296   6.731 -31.280  1.00  0.00     0.007 C 
ENDBRANCH  26  27
ENDBRANCH  25  26
ENDBRANCH  20  25
ENDBRANCH   1  17
BRANCH  15  29
HETATM   29  O   UNL     1      -6.740  -2.926 -34.943  1.00  0.00    -0.356 OA
HETATM   30  C   UNL     1      -5.440  -3.476 -34.758  1.00  0.00     0.210 C 
ENDBRANCH  15  29
TORSDOF 6
ENDMDL
