MODEL 1
REMARK VINA RESULT:      -9.2      0.000      0.000
REMARK  6 active torsions:
REMARK  status: ('A' for Active; 'I' for Inactive)
REMARK    1  A    between atoms: C_4  and  C_5 
REMARK    2  A    between atoms: C_5  and  N_6 
REMARK    3  A    between atoms: C_8  and  C_9 
REMARK       I    between atoms: C_9  and  N_10 
REMARK    4  A    between atoms: N_13  and  C_15 
REMARK    5  A    between atoms: C_29  and  S_30 
REMARK    6  A    between atoms: S_30  and  C_31 
ROOT
HETATM    1  N   UNL     1      -8.589   1.237 -33.184  1.00  0.00    -0.053 N 
HETATM    2  H   UNL     1      -7.854   1.426 -33.878  1.00  0.00     0.281 HD
HETATM    3  C   UNL     1      -8.823   2.598 -32.474  1.00  0.00     0.281 C 
HETATM    4  C   UNL     1     -10.341   2.621 -32.333  1.00  0.00     0.060 C 
HETATM    5  C   UNL     1     -10.832   2.095 -33.677  1.00  0.00     0.083 C 
HETATM    6  C   UNL     1      -9.874   0.937 -33.971  1.00  0.00     0.252 C 
ENDROOT
BRANCH   3   7
HETATM    7  C   UNL     1      -8.031   2.944 -31.196  1.00  0.00     0.251 C 
HETATM    8  N   UNL     1      -6.685   3.291 -31.299  1.00  0.00    -0.347 N 
HETATM    9  C   UNL     1      -5.984   3.760 -30.098  1.00  0.00     0.153 C 
HETATM   10  C   UNL     1      -5.767   2.914 -32.376  1.00  0.00     0.153 C 
HETATM   11  C   UNL     1      -5.109   4.985 -30.410  1.00  0.00     0.255 C 
HETATM   12  N   UNL     1      -4.150   4.743 -31.591  1.00  0.00    -0.063 N 
HETATM   13  H   UNL     1      -3.431   4.086 -31.261  1.00  0.00     0.280 HD
HETATM   14  C   UNL     1      -4.863   4.091 -32.787  1.00  0.00     0.255 C 
HETATM   15  O   UNL     1      -8.571   2.905 -30.092  1.00  0.00    -0.271 OA
BRANCH  12  16
HETATM   16  C   UNL     1      -3.441   6.057 -32.018  1.00  0.00     0.196 C 
HETATM   17  C   UNL     1      -2.746   6.765 -30.824  1.00  0.00     0.017 C 
HETATM   18  C   UNL     1      -1.566   5.929 -30.295  1.00  0.00     0.011 C 
HETATM   19  C   UNL     1      -2.207   8.126 -31.315  1.00  0.00     0.011 C 
HETATM   20  C   UNL     1      -0.533   5.706 -31.411  1.00  0.00    -0.013 C 
HETATM   21  C   UNL     1      -1.201   4.976 -32.588  1.00  0.00     0.011 C 
HETATM   22  C   UNL     1      -0.011   7.071 -31.895  1.00  0.00     0.009 C 
HETATM   23  C   UNL     1      -2.381   5.807 -33.126  1.00  0.00     0.017 C 
HETATM   24  C   UNL     1      -1.843   7.174 -33.600  1.00  0.00     0.011 C 
HETATM   25  C   UNL     1      -1.175   7.918 -32.434  1.00  0.00    -0.013 C 
ENDBRANCH  12  16
ENDBRANCH   3   7
BRANCH   1  26
HETATM   26  C   UNL     1      -8.042   0.030 -32.431  1.00  0.00     0.274 C 
BRANCH  26  27
HETATM   27  C   UNL     1      -6.928  -0.765 -33.071  1.00  0.00    -0.033 A 
HETATM   28  C   UNL     1      -5.650  -0.790 -32.479  1.00  0.00     0.009 A 
HETATM   29  C   UNL     1      -4.610  -1.536 -33.035  1.00  0.00     0.001 A 
HETATM   30  C   UNL     1      -4.832  -2.288 -34.183  1.00  0.00     0.000 A 
HETATM   31  C   UNL     1      -6.095  -2.302 -34.767  1.00  0.00     0.001 A 
HETATM   32  C   UNL     1      -7.136  -1.548 -34.214  1.00  0.00     0.009 A 
ENDBRANCH  26  27
ENDBRANCH   1  26
BRANCH   5  33
HETATM   33  S   UNL     1     -10.720   3.421 -34.942  1.00  0.00    -0.084 SA
BRANCH  33  34
HETATM   34  C   UNL     1     -11.684   4.687 -34.142  1.00  0.00     0.188 A 
HETATM   35  N   UNL     1     -11.057   5.816 -33.773  1.00  0.00    -0.235 NA
HETATM   36  C   UNL     1     -11.828   6.748 -33.176  1.00  0.00     0.121 A 
HETATM   37  C   UNL     1     -13.163   6.565 -32.900  1.00  0.00     0.038 A 
HETATM   38  C   UNL     1     -13.686   5.351 -33.277  1.00  0.00     0.121 A 
HETATM   39  N   UNL     1     -12.965   4.392 -33.892  1.00  0.00    -0.235 NA
ENDBRANCH  33  34
ENDBRANCH   5  33
TORSDOF 6
ENDMDL
MODEL 2
REMARK VINA RESULT:      -9.1      2.330      6.085
REMARK  6 active torsions:
REMARK  status: ('A' for Active; 'I' for Inactive)
REMARK    1  A    between atoms: C_4  and  C_5 
REMARK    2  A    between atoms: C_5  and  N_6 
REMARK    3  A    between atoms: C_8  and  C_9 
REMARK       I    between atoms: C_9  and  N_10 
REMARK    4  A    between atoms: N_13  and  C_15 
REMARK    5  A    between atoms: C_29  and  S_30 
REMARK    6  A    between atoms: S_30  and  C_31 
ROOT
HETATM    1  N   UNL     1      -8.975   2.124 -33.708  1.00  0.00    -0.053 N 
HETATM    2  H   UNL     1      -9.314   2.020 -32.742  1.00  0.00     0.281 HD
HETATM    3  C   UNL     1      -7.530   2.671 -33.564  1.00  0.00     0.281 C 
HETATM    4  C   UNL     1      -6.789   1.887 -34.642  1.00  0.00     0.060 C 
HETATM    5  C   UNL     1      -7.344   0.473 -34.499  1.00  0.00     0.083 C 
HETATM    6  C   UNL     1      -8.842   0.706 -34.285  1.00  0.00     0.252 C 
ENDROOT
BRANCH   3   7
HETATM    7  C   UNL     1      -7.281   4.194 -33.561  1.00  0.00     0.251 C 
HETATM    8  N   UNL     1      -6.283   4.722 -32.743  1.00  0.00    -0.347 N 
HETATM    9  C   UNL     1      -5.958   6.148 -32.859  1.00  0.00     0.153 C 
HETATM   10  C   UNL     1      -5.749   4.120 -31.520  1.00  0.00     0.153 C 
HETATM   11  C   UNL     1      -4.437   6.371 -32.860  1.00  0.00     0.255 C 
HETATM   12  N   UNL     1      -3.740   5.708 -31.657  1.00  0.00    -0.063 N 
HETATM   13  H   UNL     1      -4.002   6.250 -30.823  1.00  0.00     0.280 HD
HETATM   14  C   UNL     1      -4.218   4.262 -31.441  1.00  0.00     0.255 C 
HETATM   15  O   UNL     1      -7.960   4.943 -34.261  1.00  0.00    -0.271 OA
BRANCH  12  16
HETATM   16  C   UNL     1      -2.195   5.765 -31.801  1.00  0.00     0.196 C 
HETATM   17  C   UNL     1      -1.691   7.183 -32.183  1.00  0.00     0.017 C 
HETATM   18  C   UNL     1      -1.938   8.185 -31.040  1.00  0.00     0.011 C 
HETATM   19  C   UNL     1      -0.173   7.103 -32.451  1.00  0.00     0.011 C 
HETATM   20  C   UNL     1      -1.210   7.725 -29.767  1.00  0.00    -0.013 C 
HETATM   21  C   UNL     1      -1.723   6.333 -29.359  1.00  0.00     0.011 C 
HETATM   22  C   UNL     1       0.301   7.641 -30.052  1.00  0.00     0.009 C 
HETATM   23  C   UNL     1      -1.477   5.323 -30.496  1.00  0.00     0.017 C 
HETATM   24  C   UNL     1       0.040   5.257 -30.774  1.00  0.00     0.011 C 
HETATM   25  C   UNL     1       0.567   6.639 -31.187  1.00  0.00    -0.013 C 
ENDBRANCH  12  16
ENDBRANCH   3   7
BRANCH   1  26
HETATM   26  C   UNL     1     -10.077   2.947 -34.366  1.00  0.00     0.274 C 
BRANCH  26  27
HETATM   27  C   UNL     1     -11.513   2.574 -34.082  1.00  0.00    -0.033 A 
HETATM   28  C   UNL     1     -12.163   1.614 -34.881  1.00  0.00     0.009 A 
HETATM   29  C   UNL     1     -13.481   1.233 -34.625  1.00  0.00     0.001 A 
HETATM   30  C   UNL     1     -14.169   1.790 -33.553  1.00  0.00     0.000 A 
HETATM   31  C   UNL     1     -13.535   2.719 -32.733  1.00  0.00     0.001 A 
HETATM   32  C   UNL     1     -12.217   3.107 -32.994  1.00  0.00     0.009 A 
ENDBRANCH  26  27
ENDBRANCH   1  26
BRANCH   5  33
HETATM   33  S   UNL     1      -6.563  -0.359 -33.061  1.00  0.00    -0.084 SA
BRANCH  33  34
HETATM   34  C   UNL     1      -6.124  -1.913 -33.809  1.00  0.00     0.188 A 
HETATM   35  N   UNL     1      -4.819  -2.195 -33.955  1.00  0.00    -0.235 NA
HETATM   36  C   UNL     1      -4.535  -3.386 -34.521  1.00  0.00     0.121 A 
HETATM   37  C   UNL     1      -5.495  -4.256 -34.981  1.00  0.00     0.038 A 
HETATM   38  C   UNL     1      -6.796  -3.840 -34.826  1.00  0.00     0.121 A 
HETATM   39  N   UNL     1      -7.136  -2.669 -34.251  1.00  0.00    -0.235 NA
ENDBRANCH  33  34
ENDBRANCH   5  33
TORSDOF 6
ENDMDL
MODEL 3
REMARK VINA RESULT:      -8.9      2.516      8.670
REMARK  6 active torsions:
REMARK  status: ('A' for Active; 'I' for Inactive)
REMARK    1  A    between atoms: C_4  and  C_5 
REMARK    2  A    between atoms: C_5  and  N_6 
REMARK    3  A    between atoms: C_8  and  C_9 
REMARK       I    between atoms: C_9  and  N_10 
REMARK    4  A    between atoms: N_13  and  C_15 
REMARK    5  A    between atoms: C_29  and  S_30 
REMARK    6  A    between atoms: S_30  and  C_31 
ROOT
HETATM    1  N   UNL     1      -4.096   2.001 -32.285  1.00  0.00    -0.053 N 
HETATM    2  H   UNL     1      -4.137   2.493 -33.188  1.00  0.00     0.281 HD
HETATM    3  C   UNL     1      -5.577   1.702 -31.928  1.00  0.00     0.281 C 
HETATM    4  C   UNL     1      -5.484   0.290 -31.362  1.00  0.00     0.060 C 
HETATM    5  C   UNL     1      -4.522  -0.413 -32.314  1.00  0.00     0.083 C 
HETATM    6  C   UNL     1      -3.436   0.640 -32.554  1.00  0.00     0.252 C 
ENDROOT
BRANCH   3   7
HETATM    7  C   UNL     1      -6.380   2.708 -31.077  1.00  0.00     0.251 C 
HETATM    8  N   UNL     1      -7.199   3.640 -31.712  1.00  0.00    -0.347 N 
HETATM    9  C   UNL     1      -8.068   4.491 -30.891  1.00  0.00     0.153 C 
HETATM   10  C   UNL     1      -7.055   4.138 -33.082  1.00  0.00     0.153 C 
HETATM   11  C   UNL     1      -9.477   4.592 -31.497  1.00  0.00     0.255 C 
HETATM   12  N   UNL     1      -9.457   5.029 -32.974  1.00  0.00    -0.063 N 
HETATM   13  H   UNL     1      -9.182   6.020 -32.988  1.00  0.00     0.280 HD
HETATM   14  C   UNL     1      -8.417   4.245 -33.791  1.00  0.00     0.255 C 
HETATM   15  O   UNL     1      -6.294   2.703 -29.851  1.00  0.00    -0.271 OA
BRANCH  12  16
HETATM   16  C   UNL     1     -10.867   4.913 -33.614  1.00  0.00     0.196 C 
HETATM   17  C   UNL     1     -11.843   6.001 -33.090  1.00  0.00     0.017 C 
HETATM   18  C   UNL     1     -11.405   7.405 -33.548  1.00  0.00     0.011 C 
HETATM   19  C   UNL     1     -13.247   5.710 -33.663  1.00  0.00     0.011 C 
HETATM   20  C   UNL     1     -11.363   7.471 -35.083  1.00  0.00    -0.013 C 
HETATM   21  C   UNL     1     -10.375   6.419 -35.614  1.00  0.00     0.011 C 
HETATM   22  C   UNL     1     -12.766   7.171 -35.640  1.00  0.00     0.009 C 
HETATM   23  C   UNL     1     -10.808   5.011 -35.164  1.00  0.00     0.017 C 
HETATM   24  C   UNL     1     -12.218   4.728 -35.723  1.00  0.00     0.011 C 
HETATM   25  C   UNL     1     -13.218   5.769 -35.198  1.00  0.00    -0.013 C 
ENDBRANCH  12  16
ENDBRANCH   3   7
BRANCH   1  26
HETATM   26  C   UNL     1      -3.242   2.932 -31.431  1.00  0.00     0.274 C 
BRANCH  26  27
HETATM   27  C   UNL     1      -2.508   4.059 -32.119  1.00  0.00    -0.033 A 
HETATM   28  C   UNL     1      -1.565   4.824 -31.406  1.00  0.00     0.009 A 
HETATM   29  C   UNL     1      -0.855   5.854 -32.023  1.00  0.00     0.001 A 
HETATM   30  C   UNL     1      -1.059   6.128 -33.372  1.00  0.00     0.000 A 
HETATM   31  C   UNL     1      -1.965   5.364 -34.102  1.00  0.00     0.001 A 
HETATM   32  C   UNL     1      -2.682   4.336 -33.482  1.00  0.00     0.009 A 
ENDBRANCH  26  27
ENDBRANCH   1  26
BRANCH   5  33
HETATM   33  S   UNL     1      -5.399  -0.866 -33.862  1.00  0.00    -0.084 SA
BRANCH  33  34
HETATM   34  C   UNL     1      -4.963  -2.589 -33.966  1.00  0.00     0.188 A 
HETATM   35  N   UNL     1      -5.778  -3.403 -34.657  1.00  0.00    -0.235 NA
HETATM   36  C   UNL     1      -5.405  -4.698 -34.714  1.00  0.00     0.121 A 
HETATM   37  C   UNL     1      -4.296  -5.197 -34.072  1.00  0.00     0.038 A 
HETATM   38  C   UNL     1      -3.565  -4.282 -33.352  1.00  0.00     0.121 A 
HETATM   39  N   UNL     1      -3.884  -2.974 -33.276  1.00  0.00    -0.235 NA
ENDBRANCH  33  34
ENDBRANCH   5  33
TORSDOF 6
ENDMDL
MODEL 4
REMARK VINA RESULT:      -8.6      2.261      5.910
REMARK  6 active torsions:
REMARK  status: ('A' for Active; 'I' for Inactive)
REMARK    1  A    between atoms: C_4  and  C_5 
REMARK    2  A    between atoms: C_5  and  N_6 
REMARK    3  A    between atoms: C_8  and  C_9 
REMARK       I    between atoms: C_9  and  N_10 
REMARK    4  A    between atoms: N_13  and  C_15 
REMARK    5  A    between atoms: C_29  and  S_30 
REMARK    6  A    between atoms: S_30  and  C_31 
ROOT
HETATM    1  N   UNL     1      -9.658   1.795 -33.508  1.00  0.00    -0.053 N 
HETATM    2  H   UNL     1     -10.136   1.433 -32.672  1.00  0.00     0.281 HD
HETATM    3  C   UNL     1      -8.395   2.514 -32.961  1.00  0.00     0.281 C 
HETATM    4  C   UNL     1      -7.336   2.106 -33.979  1.00  0.00     0.060 C 
HETATM    5  C   UNL     1      -7.622   0.626 -34.216  1.00  0.00     0.083 C 
HETATM    6  C   UNL     1      -9.151   0.573 -34.289  1.00  0.00     0.252 C 
ENDROOT
BRANCH   3   7
HETATM    7  C   UNL     1      -8.452   4.020 -32.630  1.00  0.00     0.251 C 
HETATM    8  N   UNL     1      -7.323   4.648 -32.106  1.00  0.00    -0.347 N 
HETATM    9  C   UNL     1      -7.342   6.105 -31.933  1.00  0.00     0.153 C 
HETATM   10  C   UNL     1      -6.234   4.008 -31.364  1.00  0.00     0.153 C 
HETATM   11  C   UNL     1      -6.025   6.737 -32.410  1.00  0.00     0.255 C 
HETATM   12  N   UNL     1      -4.787   6.087 -31.762  1.00  0.00    -0.063 N 
HETATM   13  H   UNL     1      -4.780   6.377 -30.775  1.00  0.00     0.280 HD
HETATM   14  C   UNL     1      -4.860   4.552 -31.796  1.00  0.00     0.255 C 
HETATM   15  O   UNL     1      -9.483   4.665 -32.810  1.00  0.00    -0.271 OA
BRANCH  12  16
HETATM   16  C   UNL     1      -3.476   6.595 -32.421  1.00  0.00     0.196 C 
HETATM   17  C   UNL     1      -2.797   7.719 -31.593  1.00  0.00     0.017 C 
HETATM   18  C   UNL     1      -2.284   7.180 -30.244  1.00  0.00     0.011 C 
HETATM   19  C   UNL     1      -1.597   8.259 -32.399  1.00  0.00     0.011 C 
HETATM   20  C   UNL     1      -1.267   6.052 -30.478  1.00  0.00    -0.013 C 
HETATM   21  C   UNL     1      -1.936   4.917 -31.271  1.00  0.00     0.011 C 
HETATM   22  C   UNL     1      -0.080   6.602 -31.290  1.00  0.00     0.009 C 
HETATM   23  C   UNL     1      -2.450   5.446 -32.624  1.00  0.00     0.017 C 
HETATM   24  C   UNL     1      -1.251   6.001 -33.422  1.00  0.00     0.011 C 
HETATM   25  C   UNL     1      -0.573   7.139 -32.644  1.00  0.00    -0.013 C 
ENDBRANCH  12  16
ENDBRANCH   3   7
BRANCH   1  26
HETATM   26  C   UNL     1     -10.763   2.560 -34.226  1.00  0.00     0.274 C 
BRANCH  26  27
HETATM   27  C   UNL     1     -12.197   2.194 -33.924  1.00  0.00    -0.033 A 
HETATM   28  C   UNL     1     -12.804   1.114 -34.593  1.00  0.00     0.009 A 
HETATM   29  C   UNL     1     -14.119   0.739 -34.316  1.00  0.00     0.001 A 
HETATM   30  C   UNL     1     -14.848   1.424 -33.349  1.00  0.00     0.000 A 
HETATM   31  C   UNL     1     -14.257   2.476 -32.656  1.00  0.00     0.001 A 
HETATM   32  C   UNL     1     -12.941   2.857 -32.939  1.00  0.00     0.009 A 
ENDBRANCH  26  27
ENDBRANCH   1  26
BRANCH   5  33
HETATM   33  S   UNL     1      -6.963  -0.366 -32.819  1.00  0.00    -0.084 SA
BRANCH  33  34
HETATM   34  C   UNL     1      -6.331  -1.769 -33.714  1.00  0.00     0.188 A 
HETATM   35  N   UNL     1      -5.003  -1.851 -33.898  1.00  0.00    -0.235 NA
HETATM   36  C   UNL     1      -4.569  -2.933 -34.576  1.00  0.00     0.121 A 
HETATM   37  C   UNL     1      -5.410  -3.884 -35.105  1.00  0.00     0.038 A 
HETATM   38  C   UNL     1      -6.752  -3.671 -34.899  1.00  0.00     0.121 A 
HETATM   39  N   UNL     1      -7.238  -2.616 -34.214  1.00  0.00    -0.235 NA
ENDBRANCH  33  34
ENDBRANCH   5  33
TORSDOF 6
ENDMDL
MODEL 5
REMARK VINA RESULT:      -8.5      2.473      6.124
REMARK  6 active torsions:
REMARK  status: ('A' for Active; 'I' for Inactive)
REMARK    1  A    between atoms: C_4  and  C_5 
REMARK    2  A    between atoms: C_5  and  N_6 
REMARK    3  A    between atoms: C_8  and  C_9 
REMARK       I    between atoms: C_9  and  N_10 
REMARK    4  A    between atoms: N_13  and  C_15 
REMARK    5  A    between atoms: C_29  and  S_30 
REMARK    6  A    between atoms: S_30  and  C_31 
ROOT
HETATM    1  N   UNL     1      -8.464   2.876 -31.929  1.00  0.00    -0.053 N 
HETATM    2  H   UNL     1      -8.255   2.944 -30.924  1.00  0.00     0.281 HD
HETATM    3  C   UNL     1      -7.090   3.045 -32.632  1.00  0.00     0.281 C 
HETATM    4  C   UNL     1      -7.179   2.009 -33.746  1.00  0.00     0.060 C 
HETATM    5  C   UNL     1      -7.811   0.801 -33.062  1.00  0.00     0.083 C 
HETATM    6  C   UNL     1      -8.905   1.427 -32.191  1.00  0.00     0.252 C 
ENDROOT
BRANCH   3   7
HETATM    7  C   UNL     1      -6.615   4.448 -33.064  1.00  0.00     0.251 C 
HETATM    8  N   UNL     1      -6.018   5.287 -32.125  1.00  0.00    -0.347 N 
HETATM    9  C   UNL     1      -5.439   6.556 -32.581  1.00  0.00     0.153 C 
HETATM   10  C   UNL     1      -6.200   5.241 -30.673  1.00  0.00     0.153 C 
HETATM   11  C   UNL     1      -4.067   6.803 -31.935  1.00  0.00     0.255 C 
HETATM   12  N   UNL     1      -4.107   6.697 -30.398  1.00  0.00    -0.063 N 
HETATM   13  H   UNL     1      -4.619   7.520 -30.056  1.00  0.00     0.280 HD
HETATM   14  C   UNL     1      -4.868   5.446 -29.929  1.00  0.00     0.255 C 
HETATM   15  O   UNL     1      -6.771   4.835 -34.221  1.00  0.00    -0.271 OA
BRANCH  12  16
HETATM   16  C   UNL     1      -2.677   6.735 -29.794  1.00  0.00     0.196 C 
HETATM   17  C   UNL     1      -1.759   7.757 -30.518  1.00  0.00     0.017 C 
HETATM   18  C   UNL     1      -2.241   9.200 -30.278  1.00  0.00     0.011 C 
HETATM   19  C   UNL     1      -0.331   7.612 -29.952  1.00  0.00     0.011 C 
HETATM   20  C   UNL     1      -2.244   9.513 -28.773  1.00  0.00    -0.013 C 
HETATM   21  C   UNL     1      -3.175   8.527 -28.048  1.00  0.00     0.011 C 
HETATM   22  C   UNL     1      -0.816   9.356 -28.221  1.00  0.00     0.009 C 
HETATM   23  C   UNL     1      -2.699   7.080 -28.280  1.00  0.00     0.017 C 
HETATM   24  C   UNL     1      -1.264   6.941 -27.729  1.00  0.00     0.011 C 
HETATM   25  C   UNL     1      -0.320   7.918 -28.446  1.00  0.00    -0.013 C 
ENDBRANCH  12  16
ENDBRANCH   3   7
BRANCH   1  26
HETATM   26  C   UNL     1      -9.583   3.895 -32.112  1.00  0.00     0.274 C 
BRANCH  26  27
HETATM   27  C   UNL     1     -10.588   3.660 -33.215  1.00  0.00    -0.033 A 
HETATM   28  C   UNL     1     -11.900   3.256 -32.899  1.00  0.00     0.009 A 
HETATM   29  C   UNL     1     -12.855   3.057 -33.897  1.00  0.00     0.001 A 
HETATM   30  C   UNL     1     -12.523   3.277 -35.229  1.00  0.00     0.000 A 
HETATM   31  C   UNL     1     -11.241   3.705 -35.561  1.00  0.00     0.001 A 
HETATM   32  C   UNL     1     -10.281   3.898 -34.562  1.00  0.00     0.009 A 
ENDBRANCH  26  27
ENDBRANCH   1  26
BRANCH   5  33
HETATM   33  S   UNL     1      -6.550  -0.077 -32.060  1.00  0.00    -0.084 SA
BRANCH  33  34
HETATM   34  C   UNL     1      -6.095  -1.364 -33.203  1.00  0.00     0.188 A 
HETATM   35  N   UNL     1      -4.788  -1.639 -33.353  1.00  0.00    -0.235 NA
HETATM   36  C   UNL     1      -4.492  -2.624 -34.225  1.00  0.00     0.121 A 
HETATM   37  C   UNL     1      -5.438  -3.289 -34.970  1.00  0.00     0.038 A 
HETATM   38  C   UNL     1      -6.737  -2.889 -34.771  1.00  0.00     0.121 A 
HETATM   39  N   UNL     1      -7.091  -1.922 -33.900  1.00  0.00    -0.235 NA
ENDBRANCH  33  34
ENDBRANCH   5  33
TORSDOF 6
ENDMDL
MODEL 6
REMARK VINA RESULT:      -8.5      2.886      4.631
REMARK  6 active torsions:
REMARK  status: ('A' for Active; 'I' for Inactive)
REMARK    1  A    between atoms: C_4  and  C_5 
REMARK    2  A    between atoms: C_5  and  N_6 
REMARK    3  A    between atoms: C_8  and  C_9 
REMARK       I    between atoms: C_9  and  N_10 
REMARK    4  A    between atoms: N_13  and  C_15 
REMARK    5  A    between atoms: C_29  and  S_30 
REMARK    6  A    between atoms: S_30  and  C_31 
ROOT
HETATM    1  N   UNL     1      -5.508   1.959 -32.056  1.00  0.00    -0.053 N 
HETATM    2  H   UNL     1      -5.835   2.065 -33.026  1.00  0.00     0.281 HD
HETATM    3  C   UNL     1      -4.924   3.347 -31.681  1.00  0.00     0.281 C 
HETATM    4  C   UNL     1      -5.417   3.519 -30.249  1.00  0.00     0.060 C 
HETATM    5  C   UNL     1      -6.858   3.022 -30.306  1.00  0.00     0.083 C 
HETATM    6  C   UNL     1      -6.762   1.772 -31.187  1.00  0.00     0.252 C 
ENDROOT
BRANCH   3   7
HETATM    7  C   UNL     1      -3.425   3.636 -31.906  1.00  0.00     0.251 C 
HETATM    8  N   UNL     1      -2.843   4.747 -31.296  1.00  0.00    -0.347 N 
HETATM    9  C   UNL     1      -1.390   4.927 -31.398  1.00  0.00     0.153 C 
HETATM   10  C   UNL     1      -3.533   5.963 -30.859  1.00  0.00     0.153 C 
HETATM   11  C   UNL     1      -0.788   5.340 -30.045  1.00  0.00     0.255 C 
HETATM   12  N   UNL     1      -1.488   6.568 -29.434  1.00  0.00    -0.063 N 
HETATM   13  H   UNL     1      -1.222   7.380 -30.007  1.00  0.00     0.280 HD
HETATM   14  C   UNL     1      -3.020   6.443 -29.489  1.00  0.00     0.255 C 
HETATM   15  O   UNL     1      -2.746   2.907 -32.626  1.00  0.00    -0.271 OA
BRANCH  12  16
HETATM   16  C   UNL     1      -1.005   6.826 -27.981  1.00  0.00     0.196 C 
HETATM   17  C   UNL     1       0.540   6.941 -27.886  1.00  0.00     0.017 C 
HETATM   18  C   UNL     1       1.047   8.200 -28.614  1.00  0.00     0.011 C 
HETATM   19  C   UNL     1       0.928   7.042 -26.396  1.00  0.00     0.011 C 
HETATM   20  C   UNL     1       0.416   9.458 -27.997  1.00  0.00    -0.013 C 
HETATM   21  C   UNL     1      -1.115   9.371 -28.113  1.00  0.00     0.011 C 
HETATM   22  C   UNL     1       0.804   9.541 -26.510  1.00  0.00     0.009 C 
HETATM   23  C   UNL     1      -1.632   8.116 -27.385  1.00  0.00     0.017 C 
HETATM   24  C   UNL     1      -1.228   8.210 -25.898  1.00  0.00     0.011 C 
HETATM   25  C   UNL     1       0.300   8.294 -25.765  1.00  0.00    -0.013 C 
ENDBRANCH  12  16
ENDBRANCH   3   7
BRANCH   1  26
HETATM   26  C   UNL     1      -4.628   0.717 -32.129  1.00  0.00     0.274 C 
BRANCH  26  27
HETATM   27  C   UNL     1      -5.011  -0.373 -33.102  1.00  0.00    -0.033 A 
HETATM   28  C   UNL     1      -4.154  -1.473 -33.300  1.00  0.00     0.009 A 
HETATM   29  C   UNL     1      -4.495  -2.506 -34.175  1.00  0.00     0.001 A 
HETATM   30  C   UNL     1      -5.708  -2.470 -34.853  1.00  0.00     0.000 A 
HETATM   31  C   UNL     1      -6.582  -1.407 -34.649  1.00  0.00     0.001 A 
HETATM   32  C   UNL     1      -6.238  -0.368 -33.779  1.00  0.00     0.009 A 
ENDBRANCH  26  27
ENDBRANCH   1  26
BRANCH   5  33
HETATM   33  S   UNL     1      -7.931   4.311 -31.053  1.00  0.00    -0.084 SA
BRANCH  33  34
HETATM   34  C   UNL     1      -8.779   3.331 -32.274  1.00  0.00     0.188 A 
HETATM   35  N   UNL     1      -8.157   3.107 -33.444  1.00  0.00    -0.235 NA
HETATM   36  C   UNL     1      -8.835   2.356 -34.335  1.00  0.00     0.121 A 
HETATM   37  C   UNL     1     -10.105   1.878 -34.114  1.00  0.00     0.038 A 
HETATM   38  C   UNL     1     -10.662   2.211 -32.903  1.00  0.00     0.121 A 
HETATM   39  N   UNL     1     -10.023   2.944 -31.970  1.00  0.00    -0.235 NA
ENDBRANCH  33  34
ENDBRANCH   5  33
TORSDOF 6
ENDMDL
MODEL 7
REMARK VINA RESULT:      -8.5      3.052      7.767
REMARK  6 active torsions:
REMARK  status: ('A' for Active; 'I' for Inactive)
REMARK    1  A    between atoms: C_4  and  C_5 
REMARK    2  A    between atoms: C_5  and  N_6 
REMARK    3  A    between atoms: C_8  and  C_9 
REMARK       I    between atoms: C_9  and  N_10 
REMARK    4  A    between atoms: N_13  and  C_15 
REMARK    5  A    between atoms: C_29  and  S_30 
REMARK    6  A    between atoms: S_30  and  C_31 
ROOT
HETATM    1  N   UNL     1      -5.462  -0.279 -33.053  1.00  0.00    -0.053 N 
HETATM    2  H   UNL     1      -5.418  -1.034 -32.356  1.00  0.00     0.281 HD
HETATM    3  C   UNL     1      -6.684   0.579 -32.631  1.00  0.00     0.281 C 
HETATM    4  C   UNL     1      -6.169   1.995 -32.864  1.00  0.00     0.060 C 
HETATM    5  C   UNL     1      -4.744   1.949 -32.324  1.00  0.00     0.083 C 
HETATM    6  C   UNL     1      -4.222   0.601 -32.829  1.00  0.00     0.252 C 
ENDROOT
BRANCH   3   7
HETATM    7  C   UNL     1      -8.078   0.273 -33.218  1.00  0.00     0.251 C 
HETATM    8  N   UNL     1      -9.188   0.968 -32.742  1.00  0.00    -0.347 N 
HETATM    9  C   UNL     1     -10.481   0.774 -33.409  1.00  0.00     0.153 C 
HETATM   10  C   UNL     1      -9.322   1.604 -31.429  1.00  0.00     0.153 C 
HETATM   11  C   UNL     1     -11.203   2.116 -33.617  1.00  0.00     0.255 C 
HETATM   12  N   UNL     1     -11.333   2.927 -32.314  1.00  0.00    -0.063 N 
HETATM   13  H   UNL     1     -12.021   2.440 -31.726  1.00  0.00     0.280 HD
HETATM   14  C   UNL     1     -10.009   2.978 -31.534  1.00  0.00     0.255 C 
HETATM   15  O   UNL     1      -8.218  -0.583 -34.090  1.00  0.00    -0.271 OA
BRANCH  12  16
HETATM   16  C   UNL     1     -11.867   4.358 -32.594  1.00  0.00     0.196 C 
HETATM   17  C   UNL     1     -13.227   4.343 -33.342  1.00  0.00     0.017 C 
HETATM   18  C   UNL     1     -14.341   3.760 -32.453  1.00  0.00     0.011 C 
HETATM   19  C   UNL     1     -13.596   5.797 -33.707  1.00  0.00     0.011 C 
HETATM   20  C   UNL     1     -14.488   4.596 -31.172  1.00  0.00    -0.013 C 
HETATM   21  C   UNL     1     -13.155   4.593 -30.404  1.00  0.00     0.011 C 
HETATM   22  C   UNL     1     -14.847   6.043 -31.551  1.00  0.00     0.009 C 
HETATM   23  C   UNL     1     -12.035   5.178 -31.285  1.00  0.00     0.017 C 
HETATM   24  C   UNL     1     -12.413   6.625 -31.663  1.00  0.00     0.011 C 
HETATM   25  C   UNL     1     -13.742   6.645 -32.435  1.00  0.00    -0.013 C 
ENDBRANCH  12  16
ENDBRANCH   3   7
BRANCH   1  26
HETATM   26  C   UNL     1      -5.439  -1.037 -34.375  1.00  0.00     0.274 C 
BRANCH  26  27
HETATM   27  C   UNL     1      -5.150  -2.520 -34.344  1.00  0.00    -0.033 A 
HETATM   28  C   UNL     1      -4.016  -3.002 -33.661  1.00  0.00     0.009 A 
HETATM   29  C   UNL     1      -3.740  -4.368 -33.595  1.00  0.00     0.001 A 
HETATM   30  C   UNL     1      -4.602  -5.281 -34.193  1.00  0.00     0.000 A 
HETATM   31  C   UNL     1      -5.744  -4.827 -34.847  1.00  0.00     0.001 A 
HETATM   32  C   UNL     1      -6.017  -3.457 -34.920  1.00  0.00     0.009 A 
ENDBRANCH  26  27
ENDBRANCH   1  26
BRANCH   5  33
HETATM   33  S   UNL     1      -4.770   2.036 -30.491  1.00  0.00    -0.084 SA
BRANCH  33  34
HETATM   34  C   UNL     1      -5.587   3.603 -30.272  1.00  0.00     0.188 A 
HETATM   35  N   UNL     1      -4.918   4.715 -30.622  1.00  0.00    -0.235 NA
HETATM   36  C   UNL     1      -5.578   5.878 -30.444  1.00  0.00     0.121 A 
HETATM   37  C   UNL     1      -6.835   5.960 -29.892  1.00  0.00     0.038 A 
HETATM   38  C   UNL     1      -7.401   4.763 -29.524  1.00  0.00     0.121 A 
HETATM   39  N   UNL     1      -6.793   3.572 -29.695  1.00  0.00    -0.235 NA
ENDBRANCH  33  34
ENDBRANCH   5  33
TORSDOF 6
ENDMDL
MODEL 8
REMARK VINA RESULT:      -8.5      3.727      8.983
REMARK  6 active torsions:
REMARK  status: ('A' for Active; 'I' for Inactive)
REMARK    1  A    between atoms: C_4  and  C_5 
REMARK    2  A    between atoms: C_5  and  N_6 
REMARK    3  A    between atoms: C_8  and  C_9 
REMARK       I    between atoms: C_9  and  N_10 
REMARK    4  A    between atoms: N_13  and  C_15 
REMARK    5  A    between atoms: C_29  and  S_30 
REMARK    6  A    between atoms: S_30  and  C_31 
ROOT
HETATM    1  N   UNL     1      -3.081   8.061 -29.700  1.00  0.00    -0.053 N 
HETATM    2  H   UNL     1      -2.994   7.319 -28.994  1.00  0.00     0.281 HD
HETATM    3  C   UNL     1      -4.187   7.559 -30.668  1.00  0.00     0.281 C 
HETATM    4  C   UNL     1      -4.971   8.838 -30.938  1.00  0.00     0.060 C 
HETATM    5  C   UNL     1      -5.065   9.496 -29.565  1.00  0.00     0.083 C 
HETATM    6  C   UNL     1      -3.664   9.288 -28.982  1.00  0.00     0.252 C 
ENDROOT
BRANCH   3   7
HETATM    7  C   UNL     1      -3.801   6.739 -31.917  1.00  0.00     0.251 C 
HETATM    8  N   UNL     1      -4.166   5.396 -31.992  1.00  0.00    -0.347 N 
HETATM    9  C   UNL     1      -3.924   4.669 -33.243  1.00  0.00     0.153 C 
HETATM   10  C   UNL     1      -4.440   4.502 -30.865  1.00  0.00     0.153 C 
HETATM   11  C   UNL     1      -5.136   3.803 -33.624  1.00  0.00     0.255 C 
HETATM   12  N   UNL     1      -5.580   2.870 -32.482  1.00  0.00    -0.063 N 
HETATM   13  H   UNL     1      -4.859   2.143 -32.392  1.00  0.00     0.280 HD
HETATM   14  C   UNL     1      -5.665   3.609 -31.136  1.00  0.00     0.255 C 
HETATM   15  O   UNL     1      -3.166   7.254 -32.835  1.00  0.00    -0.271 OA
BRANCH  12  16
HETATM   16  C   UNL     1      -6.927   2.172 -32.817  1.00  0.00     0.196 C 
HETATM   17  C   UNL     1      -6.891   1.454 -34.192  1.00  0.00     0.017 C 
HETATM   18  C   UNL     1      -5.916   0.262 -34.170  1.00  0.00     0.011 C 
HETATM   19  C   UNL     1      -8.309   0.928 -34.502  1.00  0.00     0.011 C 
HETATM   20  C   UNL     1      -6.342  -0.748 -33.092  1.00  0.00    -0.013 C 
HETATM   21  C   UNL     1      -6.350  -0.057 -31.718  1.00  0.00     0.011 C 
HETATM   22  C   UNL     1      -7.759  -1.257 -33.409  1.00  0.00     0.009 C 
HETATM   23  C   UNL     1      -7.325   1.135 -31.730  1.00  0.00     0.017 C 
HETATM   24  C   UNL     1      -8.739   0.610 -32.057  1.00  0.00     0.011 C 
HETATM   25  C   UNL     1      -8.749  -0.081 -33.429  1.00  0.00    -0.013 C 
ENDBRANCH  12  16
ENDBRANCH   3   7
BRANCH   1  26
HETATM   26  C   UNL     1      -1.643   8.256 -30.167  1.00  0.00     0.274 C 
BRANCH  26  27
HETATM   27  C   UNL     1      -0.680   7.102 -30.013  1.00  0.00    -0.033 A 
HETATM   28  C   UNL     1      -0.286   6.681 -28.728  1.00  0.00     0.009 A 
HETATM   29  C   UNL     1       0.583   5.602 -28.557  1.00  0.00     0.001 A 
HETATM   30  C   UNL     1       1.059   4.911 -29.666  1.00  0.00     0.000 A 
HETATM   31  C   UNL     1       0.659   5.293 -30.942  1.00  0.00     0.001 A 
HETATM   32  C   UNL     1      -0.206   6.379 -31.115  1.00  0.00     0.009 A 
ENDBRANCH  26  27
ENDBRANCH   1  26
BRANCH   5  33
HETATM   33  S   UNL     1      -6.360   8.665 -28.564  1.00  0.00    -0.084 SA
BRANCH  33  34
HETATM   34  C   UNL     1      -5.696   8.925 -26.933  1.00  0.00     0.188 A 
HETATM   35  N   UNL     1      -4.973   7.935 -26.383  1.00  0.00    -0.235 NA
HETATM   36  C   UNL     1      -4.487   8.179 -25.149  1.00  0.00     0.121 A 
HETATM   37  C   UNL     1      -4.741   9.334 -24.448  1.00  0.00     0.038 A 
HETATM   38  C   UNL     1      -5.535  10.255 -25.088  1.00  0.00     0.121 A 
HETATM   39  N   UNL     1      -6.032  10.069 -26.328  1.00  0.00    -0.235 NA
ENDBRANCH  33  34
ENDBRANCH   5  33
TORSDOF 6
ENDMDL
MODEL 9
REMARK VINA RESULT:      -8.2      2.237      6.121
REMARK  6 active torsions:
REMARK  status: ('A' for Active; 'I' for Inactive)
REMARK    1  A    between atoms: C_4  and  C_5 
REMARK    2  A    between atoms: C_5  and  N_6 
REMARK    3  A    between atoms: C_8  and  C_9 
REMARK       I    between atoms: C_9  and  N_10 
REMARK    4  A    between atoms: N_13  and  C_15 
REMARK    5  A    between atoms: C_29  and  S_30 
REMARK    6  A    between atoms: S_30  and  C_31 
ROOT
HETATM    1  N   UNL     1      -9.420   2.498 -32.310  1.00  0.00    -0.053 N 
HETATM    2  H   UNL     1      -9.755   2.706 -31.360  1.00  0.00     0.281 HD
HETATM    3  C   UNL     1      -7.939   2.961 -32.319  1.00  0.00     0.281 C 
HETATM    4  C   UNL     1      -7.266   1.845 -33.110  1.00  0.00     0.060 C 
HETATM    5  C   UNL     1      -7.916   0.578 -32.563  1.00  0.00     0.083 C 
HETATM    6  C   UNL     1      -9.392   0.967 -32.443  1.00  0.00     0.252 C 
ENDROOT
BRANCH   3   7
HETATM    7  C   UNL     1      -7.584   4.396 -32.761  1.00  0.00     0.251 C 
HETATM    8  N   UNL     1      -6.521   5.057 -32.149  1.00  0.00    -0.347 N 
HETATM    9  C   UNL     1      -6.102   6.361 -32.678  1.00  0.00     0.153 C 
HETATM   10  C   UNL     1      -5.981   4.792 -30.813  1.00  0.00     0.153 C 
HETATM   11  C   UNL     1      -4.570   6.454 -32.771  1.00  0.00     0.255 C 
HETATM   12  N   UNL     1      -3.873   6.112 -31.441  1.00  0.00    -0.063 N 
HETATM   13  H   UNL     1      -4.064   6.889 -30.795  1.00  0.00     0.280 HD
HETATM   14  C   UNL     1      -4.442   4.831 -30.807  1.00  0.00     0.255 C 
HETATM   15  O   UNL     1      -8.238   4.964 -33.634  1.00  0.00    -0.271 OA
BRANCH  12  16
HETATM   16  C   UNL     1      -2.335   6.004 -31.623  1.00  0.00     0.196 C 
HETATM   17  C   UNL     1      -1.700   7.347 -32.072  1.00  0.00     0.017 C 
HETATM   18  C   UNL     1      -1.812   8.410 -30.964  1.00  0.00     0.011 C 
HETATM   19  C   UNL     1      -0.206   7.102 -32.373  1.00  0.00     0.011 C 
HETATM   20  C   UNL     1      -1.099   7.924 -29.691  1.00  0.00    -0.013 C 
HETATM   21  C   UNL     1      -1.740   6.609 -29.218  1.00  0.00     0.011 C 
HETATM   22  C   UNL     1       0.386   7.675 -30.008  1.00  0.00     0.009 C 
HETATM   23  C   UNL     1      -1.630   5.538 -30.319  1.00  0.00     0.017 C 
HETATM   24  C   UNL     1      -0.137   5.306 -30.631  1.00  0.00     0.011 C 
HETATM   25  C   UNL     1       0.518   6.611 -31.110  1.00  0.00    -0.013 C 
ENDBRANCH  12  16
ENDBRANCH   3   7
BRANCH   1  26
HETATM   26  C   UNL     1     -10.469   3.166 -33.193  1.00  0.00     0.274 C 
BRANCH  26  27
HETATM   27  C   UNL     1     -11.908   3.140 -32.735  1.00  0.00    -0.033 A 
HETATM   28  C   UNL     1     -12.833   2.285 -33.366  1.00  0.00     0.009 A 
HETATM   29  C   UNL     1     -14.162   2.224 -32.947  1.00  0.00     0.001 A 
HETATM   30  C   UNL     1     -14.590   3.001 -31.876  1.00  0.00     0.000 A 
HETATM   31  C   UNL     1     -13.685   3.830 -31.220  1.00  0.00     0.001 A 
HETATM   32  C   UNL     1     -12.354   3.898 -31.644  1.00  0.00     0.009 A 
ENDBRANCH  26  27
ENDBRANCH   1  26
BRANCH   5  33
HETATM   33  S   UNL     1      -7.180   0.154 -30.936  1.00  0.00    -0.084 SA
BRANCH  33  34
HETATM   34  C   UNL     1      -5.537  -0.297 -31.454  1.00  0.00     0.188 A 
HETATM   35  N   UNL     1      -4.499   0.240 -30.791  1.00  0.00    -0.235 NA
HETATM   36  C   UNL     1      -3.274  -0.135 -31.214  1.00  0.00     0.121 A 
HETATM   37  C   UNL     1      -3.065  -0.970 -32.287  1.00  0.00     0.038 A 
HETATM   38  C   UNL     1      -4.199  -1.418 -32.920  1.00  0.00     0.121 A 
HETATM   39  N   UNL     1      -5.446  -1.088 -32.528  1.00  0.00    -0.235 NA
ENDBRANCH  33  34
ENDBRANCH   5  33
TORSDOF 6
ENDMDL
MODEL 10
REMARK VINA RESULT:      -8.2      2.099      8.639
REMARK  6 active torsions:
REMARK  status: ('A' for Active; 'I' for Inactive)
REMARK    1  A    between atoms: C_4  and  C_5 
REMARK    2  A    between atoms: C_5  and  N_6 
REMARK    3  A    between atoms: C_8  and  C_9 
REMARK       I    between atoms: C_9  and  N_10 
REMARK    4  A    between atoms: N_13  and  C_15 
REMARK    5  A    between atoms: C_29  and  S_30 
REMARK    6  A    between atoms: S_30  and  C_31 
ROOT
HETATM    1  N   UNL     1      -6.711   1.734 -31.819  1.00  0.00    -0.053 N 
HETATM    2  H   UNL     1      -7.009   2.098 -30.903  1.00  0.00     0.281 HD
HETATM    3  C   UNL     1      -7.460   2.612 -32.857  1.00  0.00     0.281 C 
HETATM    4  C   UNL     1      -6.385   2.831 -33.915  1.00  0.00     0.060 C 
HETATM    5  C   UNL     1      -5.127   3.103 -33.096  1.00  0.00     0.083 C 
HETATM    6  C   UNL     1      -5.220   2.075 -31.964  1.00  0.00     0.252 C 
ENDROOT
BRANCH   3   7
HETATM    7  C   UNL     1      -8.837   2.165 -33.390  1.00  0.00     0.251 C 
HETATM    8  N   UNL     1      -9.995   2.688 -32.816  1.00  0.00    -0.347 N 
HETATM    9  C   UNL     1     -11.290   2.369 -33.427  1.00  0.00     0.153 C 
HETATM   10  C   UNL     1     -10.129   3.230 -31.462  1.00  0.00     0.153 C 
HETATM   11  C   UNL     1     -12.183   3.618 -33.516  1.00  0.00     0.255 C 
HETATM   12  N   UNL     1     -12.335   4.335 -32.161  1.00  0.00    -0.063 N 
HETATM   13  H   UNL     1     -12.923   3.734 -31.570  1.00  0.00     0.280 HD
HETATM   14  C   UNL     1     -10.984   4.511 -31.448  1.00  0.00     0.255 C 
HETATM   15  O   UNL     1      -8.921   1.347 -34.304  1.00  0.00    -0.271 OA
BRANCH  12  16
HETATM   16  C   UNL     1     -13.056   5.701 -32.326  1.00  0.00     0.196 C 
HETATM   17  C   UNL     1     -14.475   5.547 -32.938  1.00  0.00     0.017 C 
HETATM   18  C   UNL     1     -15.418   4.808 -31.970  1.00  0.00     0.011 C 
HETATM   19  C   UNL     1     -15.044   6.957 -33.202  1.00  0.00     0.011 C 
HETATM   20  C   UNL     1     -15.529   5.580 -30.646  1.00  0.00    -0.013 C 
HETATM   21  C   UNL     1     -14.133   5.712 -30.013  1.00  0.00     0.011 C 
HETATM   22  C   UNL     1     -16.089   6.986 -30.926  1.00  0.00     0.009 C 
HETATM   23  C   UNL     1     -13.183   6.453 -30.972  1.00  0.00     0.017 C 
HETATM   24  C   UNL     1     -13.763   7.857 -31.249  1.00  0.00     0.011 C 
HETATM   25  C   UNL     1     -15.156   7.742 -31.886  1.00  0.00    -0.013 C 
ENDBRANCH  12  16
ENDBRANCH   3   7
BRANCH   1  26
HETATM   26  C   UNL     1      -6.984   0.239 -31.695  1.00  0.00     0.274 C 
BRANCH  26  27
HETATM   27  C   UNL     1      -6.259  -0.699 -32.631  1.00  0.00    -0.033 A 
HETATM   28  C   UNL     1      -4.945  -1.111 -32.338  1.00  0.00     0.009 A 
HETATM   29  C   UNL     1      -4.262  -1.996 -33.173  1.00  0.00     0.001 A 
HETATM   30  C   UNL     1      -4.886  -2.502 -34.308  1.00  0.00     0.000 A 
HETATM   31  C   UNL     1      -6.195  -2.131 -34.600  1.00  0.00     0.001 A 
HETATM   32  C   UNL     1      -6.878  -1.238 -33.768  1.00  0.00     0.009 A 
ENDBRANCH  26  27
ENDBRANCH   1  26
BRANCH   5  33
HETATM   33  S   UNL     1      -5.155   4.826 -32.466  1.00  0.00    -0.084 SA
BRANCH  33  34
HETATM   34  C   UNL     1      -3.521   5.351 -32.941  1.00  0.00     0.188 A 
HETATM   35  N   UNL     1      -2.475   4.818 -32.288  1.00  0.00    -0.235 NA
HETATM   36  C   UNL     1      -1.258   5.240 -32.685  1.00  0.00     0.121 A 
HETATM   37  C   UNL     1      -1.065   6.194 -33.657  1.00  0.00     0.038 A 
HETATM   38  C   UNL     1      -2.209   6.706 -34.221  1.00  0.00     0.121 A 
HETATM   39  N   UNL     1      -3.449   6.307 -33.874  1.00  0.00    -0.235 NA
ENDBRANCH  33  34
ENDBRANCH   5  33
TORSDOF 6
ENDMDL
