MODEL 1
REMARK VINA RESULT:      -7.0      0.000      0.000
REMARK  4 active torsions:
REMARK  status: ('A' for Active; 'I' for Inactive)
REMARK    1  A    between atoms: C_11  and  N_12 
REMARK    2  A    between atoms: N_12  and  C_13 
REMARK    3  A    between atoms: C_13  and  C_14 
REMARK    4  A    between atoms: C_15  and  C_16 
ROOT
HETATM    1  N   UNL     1      -6.512   2.645 -33.172  1.00  0.00     0.092 N 
HETATM    2  H   UNL     1      -6.048   1.978 -32.560  1.00  0.00     0.316 HD
ENDROOT
BRANCH   1   3
HETATM    3  C   UNL     1      -7.179   2.019 -34.309  1.00  0.00     0.225 C 
HETATM    4  C   UNL     1      -8.696   1.926 -34.087  1.00  0.00     0.073 C 
HETATM    5  C   UNL     1      -9.173   0.842 -33.112  1.00  0.00     0.121 C 
HETATM    6  N   UNL     1      -8.499  -0.476 -33.444  1.00  0.00    -0.059 N 
HETATM    7  C   UNL     1      -8.976   1.191 -31.634  1.00  0.00     0.046 C 
HETATM    8  C   UNL     1     -10.685   0.598 -33.323  1.00  0.00     0.046 C 
HETATM    9  C   UNL     1      -7.017  -0.526 -33.737  1.00  0.00     0.121 C 
HETATM   10  H   UNL     1      -8.983  -0.858 -34.269  1.00  0.00     0.279 HD
HETATM   11  H   UNL     1      -8.712  -1.150 -32.693  1.00  0.00     0.279 HD
HETATM   12  C   UNL     1      -6.227  -0.606 -32.425  1.00  0.00     0.046 C 
HETATM   13  C   UNL     1      -6.774  -1.851 -34.492  1.00  0.00     0.046 C 
HETATM   14  C   UNL     1      -6.613   0.639 -34.657  1.00  0.00     0.073 C 
ENDBRANCH   1   3
BRANCH   1  15
HETATM   15  C   UNL     1      -5.467   3.598 -33.582  1.00  0.00     0.312 C 
BRANCH  15  16
HETATM   16  C   UNL     1      -4.312   3.404 -32.659  1.00  0.00     0.014 A 
HETATM   17  C   UNL     1      -3.052   4.088 -32.550  1.00  0.00     0.071 A 
HETATM   18  N   UNL     1      -2.321   3.560 -31.555  1.00  0.00    -0.178 NA
HETATM   19  N   UNL     1      -3.075   2.591 -31.035  1.00  0.00    -0.288 N 
HETATM   20  H   UNL     1      -2.706   2.068 -30.245  1.00  0.00     0.188 HD
HETATM   21  C   UNL     1      -4.266   2.445 -31.662  1.00  0.00     0.120 A 
BRANCH  17  22
HETATM   22  C   UNL     1      -2.461   5.284 -33.304  1.00  0.00    -0.004 C 
HETATM   23  C   UNL     1      -3.286   6.544 -32.980  1.00  0.00     0.021 C 
HETATM   24  C   UNL     1      -0.995   5.546 -32.868  1.00  0.00     0.021 C 
HETATM   25  C   UNL     1      -2.427   5.084 -34.831  1.00  0.00     0.021 C 
ENDBRANCH  17  22
ENDBRANCH  15  16
ENDBRANCH   1  15
TORSDOF 4
ENDMDL
MODEL 2
REMARK VINA RESULT:      -6.9      2.021      6.552
REMARK  4 active torsions:
REMARK  status: ('A' for Active; 'I' for Inactive)
REMARK    1  A    between atoms: C_11  and  N_12 
REMARK    2  A    between atoms: N_12  and  C_13 
REMARK    3  A    between atoms: C_13  and  C_14 
REMARK    4  A    between atoms: C_15  and  C_16 
ROOT
HETATM    1  N   UNL     1      -3.702   2.667 -32.723  1.00  0.00     0.092 N 
HETATM    2  H   UNL     1      -2.949   1.991 -32.826  1.00  0.00     0.316 HD
ENDROOT
BRANCH   1   3
HETATM    3  C   UNL     1      -3.416   3.706 -31.741  1.00  0.00     0.225 C 
HETATM    4  C   UNL     1      -4.604   4.667 -31.580  1.00  0.00     0.073 C 
HETATM    5  C   UNL     1      -4.809   5.684 -32.710  1.00  0.00     0.121 C 
HETATM    6  N   UNL     1      -3.489   6.356 -33.040  1.00  0.00    -0.059 N 
HETATM    7  C   UNL     1      -5.447   5.103 -33.976  1.00  0.00     0.046 C 
HETATM    8  C   UNL     1      -5.737   6.816 -32.214  1.00  0.00     0.046 C 
HETATM    9  C   UNL     1      -2.226   5.538 -33.175  1.00  0.00     0.121 C 
HETATM   10  H   UNL     1      -3.319   7.054 -32.301  1.00  0.00     0.279 HD
HETATM   11  H   UNL     1      -3.614   6.920 -33.894  1.00  0.00     0.279 HD
HETATM   12  C   UNL     1      -2.128   4.957 -34.591  1.00  0.00     0.046 C 
HETATM   13  C   UNL     1      -1.054   6.529 -33.013  1.00  0.00     0.046 C 
HETATM   14  C   UNL     1      -2.139   4.494 -32.048  1.00  0.00     0.073 C 
ENDBRANCH   1   3
BRANCH   1  15
HETATM   15  C   UNL     1      -4.897   1.876 -32.382  1.00  0.00     0.312 C 
BRANCH  15  16
HETATM   16  C   UNL     1      -4.568   0.447 -32.653  1.00  0.00     0.014 A 
HETATM   17  C   UNL     1      -5.308  -0.594 -33.314  1.00  0.00     0.071 A 
HETATM   18  N   UNL     1      -4.600  -1.734 -33.322  1.00  0.00    -0.178 NA
HETATM   19  N   UNL     1      -3.450  -1.445 -32.711  1.00  0.00    -0.288 N 
HETATM   20  H   UNL     1      -2.753  -2.179 -32.626  1.00  0.00     0.188 HD
HETATM   21  C   UNL     1      -3.383  -0.162 -32.280  1.00  0.00     0.120 A 
BRANCH  17  22
HETATM   22  C   UNL     1      -6.672  -0.603 -34.013  1.00  0.00    -0.004 C 
HETATM   23  C   UNL     1      -6.931  -2.006 -34.597  1.00  0.00     0.021 C 
HETATM   24  C   UNL     1      -7.812  -0.283 -33.010  1.00  0.00     0.021 C 
HETATM   25  C   UNL     1      -6.785   0.440 -35.141  1.00  0.00     0.021 C 
ENDBRANCH  17  22
ENDBRANCH  15  16
ENDBRANCH   1  15
TORSDOF 4
ENDMDL
MODEL 3
REMARK VINA RESULT:      -6.8      3.175      5.252
REMARK  4 active torsions:
REMARK  status: ('A' for Active; 'I' for Inactive)
REMARK    1  A    between atoms: C_11  and  N_12 
REMARK    2  A    between atoms: N_12  and  C_13 
REMARK    3  A    between atoms: C_13  and  C_14 
REMARK    4  A    between atoms: C_15  and  C_16 
ROOT
HETATM    1  N   UNL     1      -9.151   1.078 -34.579  1.00  0.00     0.092 N 
HETATM    2  H   UNL     1      -9.571   1.855 -35.084  1.00  0.00     0.316 HD
ENDROOT
BRANCH   1   3
HETATM    3  C   UNL     1      -9.785   0.813 -33.293  1.00  0.00     0.225 C 
HETATM    4  C   UNL     1     -11.232   0.329 -33.471  1.00  0.00     0.073 C 
HETATM    5  C   UNL     1     -12.264   1.402 -33.845  1.00  0.00     0.121 C 
HETATM    6  N   UNL     1     -12.104   2.605 -32.933  1.00  0.00    -0.059 N 
HETATM    7  C   UNL     1     -12.224   1.833 -35.314  1.00  0.00     0.046 C 
HETATM    8  C   UNL     1     -13.684   0.860 -33.569  1.00  0.00     0.046 C 
HETATM    9  C   UNL     1     -10.730   3.156 -32.626  1.00  0.00     0.121 C 
HETATM   10  H   UNL     1     -12.537   2.354 -32.032  1.00  0.00     0.279 HD
HETATM   11  H   UNL     1     -12.696   3.368 -33.292  1.00  0.00     0.279 HD
HETATM   12  C   UNL     1     -10.290   4.113 -33.741  1.00  0.00     0.046 C 
HETATM   13  C   UNL     1     -10.884   4.000 -31.342  1.00  0.00     0.046 C 
HETATM   14  C   UNL     1      -9.744   2.011 -32.340  1.00  0.00     0.073 C 
ENDBRANCH   1   3
BRANCH   1  15
HETATM   15  C   UNL     1      -7.725   1.419 -34.449  1.00  0.00     0.312 C 
BRANCH  15  16
HETATM   16  C   UNL     1      -6.984   0.138 -34.262  1.00  0.00     0.014 A 
HETATM   17  C   UNL     1      -6.051  -0.287 -33.253  1.00  0.00     0.071 A 
HETATM   18  N   UNL     1      -5.641  -1.541 -33.498  1.00  0.00    -0.178 NA
HETATM   19  N   UNL     1      -6.287  -1.919 -34.602  1.00  0.00    -0.288 N 
HETATM   20  H   UNL     1      -6.128  -2.859 -34.954  1.00  0.00     0.188 HD
HETATM   21  C   UNL     1      -7.090  -0.952 -35.108  1.00  0.00     0.120 A 
BRANCH  17  22
HETATM   22  C   UNL     1      -5.517   0.398 -31.990  1.00  0.00    -0.004 C 
HETATM   23  C   UNL     1      -6.643   0.472 -30.941  1.00  0.00     0.021 C 
HETATM   24  C   UNL     1      -4.342  -0.408 -31.377  1.00  0.00     0.021 C 
HETATM   25  C   UNL     1      -4.978   1.818 -32.249  1.00  0.00     0.021 C 
ENDBRANCH  17  22
ENDBRANCH  15  16
ENDBRANCH   1  15
TORSDOF 4
ENDMDL
MODEL 4
REMARK VINA RESULT:      -6.6      2.095      6.630
REMARK  4 active torsions:
REMARK  status: ('A' for Active; 'I' for Inactive)
REMARK    1  A    between atoms: C_11  and  N_12 
REMARK    2  A    between atoms: N_12  and  C_13 
REMARK    3  A    between atoms: C_13  and  C_14 
REMARK    4  A    between atoms: C_15  and  C_16 
ROOT
HETATM    1  N   UNL     1      -3.237   2.814 -31.460  1.00  0.00     0.092 N 
HETATM    2  H   UNL     1      -3.039   3.488 -30.725  1.00  0.00     0.316 HD
ENDROOT
BRANCH   1   3
HETATM    3  C   UNL     1      -3.561   3.433 -32.740  1.00  0.00     0.225 C 
HETATM    4  C   UNL     1      -2.381   4.252 -33.282  1.00  0.00     0.073 C 
HETATM    5  C   UNL     1      -2.128   5.606 -32.605  1.00  0.00     0.121 C 
HETATM    6  N   UNL     1      -3.433   6.372 -32.491  1.00  0.00    -0.059 N 
HETATM    7  C   UNL     1      -1.440   5.510 -31.240  1.00  0.00     0.046 C 
HETATM    8  C   UNL     1      -1.221   6.467 -33.512  1.00  0.00     0.046 C 
HETATM    9  C   UNL     1      -4.691   5.677 -32.020  1.00  0.00     0.121 C 
HETATM   10  H   UNL     1      -3.633   6.758 -33.424  1.00  0.00     0.279 HD
HETATM   11  H   UNL     1      -3.274   7.203 -31.903  1.00  0.00     0.279 HD
HETATM   12  C   UNL     1      -4.730   5.648 -30.488  1.00  0.00     0.046 C 
HETATM   13  C   UNL     1      -5.868   6.561 -32.486  1.00  0.00     0.046 C 
HETATM   14  C   UNL     1      -4.824   4.298 -32.690  1.00  0.00     0.073 C 
ENDBRANCH   1   3
BRANCH   1  15
HETATM   15  C   UNL     1      -4.329   1.974 -30.942  1.00  0.00     0.312 C 
BRANCH  15  16
HETATM   16  C   UNL     1      -4.055   0.576 -31.385  1.00  0.00     0.014 A 
HETATM   17  C   UNL     1      -4.832  -0.348 -32.166  1.00  0.00     0.071 A 
HETATM   18  N   UNL     1      -4.167  -1.505 -32.314  1.00  0.00    -0.178 NA
HETATM   19  N   UNL     1      -3.010  -1.336 -31.673  1.00  0.00    -0.288 N 
HETATM   20  H   UNL     1      -2.342  -2.102 -31.678  1.00  0.00     0.188 HD
HETATM   21  C   UNL     1      -2.896  -0.119 -31.089  1.00  0.00     0.120 A 
BRANCH  17  22
HETATM   22  C   UNL     1      -6.192  -0.220 -32.860  1.00  0.00    -0.004 C 
HETATM   23  C   UNL     1      -7.274   0.069 -31.802  1.00  0.00     0.021 C 
HETATM   24  C   UNL     1      -6.189   0.955 -33.874  1.00  0.00     0.021 C 
HETATM   25  C   UNL     1      -6.591  -1.476 -33.658  1.00  0.00     0.021 C 
ENDBRANCH  17  22
ENDBRANCH  15  16
ENDBRANCH   1  15
TORSDOF 4
ENDMDL
MODEL 5
REMARK VINA RESULT:      -6.6      2.305      7.059
REMARK  4 active torsions:
REMARK  status: ('A' for Active; 'I' for Inactive)
REMARK    1  A    between atoms: C_11  and  N_12 
REMARK    2  A    between atoms: N_12  and  C_13 
REMARK    3  A    between atoms: C_13  and  C_14 
REMARK    4  A    between atoms: C_15  and  C_16 
ROOT
HETATM    1  N   UNL     1      -3.718   4.475 -31.076  1.00  0.00     0.092 N 
HETATM    2  H   UNL     1      -4.191   5.059 -31.761  1.00  0.00     0.316 HD
ENDROOT
BRANCH   1   3
HETATM    3  C   UNL     1      -2.399   4.027 -31.508  1.00  0.00     0.225 C 
HETATM    4  C   UNL     1      -1.283   4.848 -30.845  1.00  0.00     0.073 C 
HETATM    5  C   UNL     1      -1.067   6.265 -31.394  1.00  0.00     0.121 C 
HETATM    6  N   UNL     1      -1.008   6.222 -32.910  1.00  0.00    -0.059 N 
HETATM    7  C   UNL     1      -2.104   7.290 -30.925  1.00  0.00     0.046 C 
HETATM    8  C   UNL     1       0.317   6.780 -30.941  1.00  0.00     0.046 C 
HETATM    9  C   UNL     1      -2.013   5.409 -33.693  1.00  0.00     0.121 C 
HETATM   10  H   UNL     1      -0.073   5.869 -33.161  1.00  0.00     0.279 HD
HETATM   11  H   UNL     1      -1.015   7.189 -33.264  1.00  0.00     0.279 HD
HETATM   12  C   UNL     1      -3.296   6.222 -33.900  1.00  0.00     0.046 C 
HETATM   13  C   UNL     1      -1.390   5.185 -35.088  1.00  0.00     0.046 C 
HETATM   14  C   UNL     1      -2.226   4.037 -33.030  1.00  0.00     0.073 C 
ENDBRANCH   1   3
BRANCH   1  15
HETATM   15  C   UNL     1      -4.638   3.356 -30.810  1.00  0.00     0.312 C 
BRANCH  15  16
HETATM   16  C   UNL     1      -5.383   3.092 -32.075  1.00  0.00     0.014 A 
HETATM   17  C   UNL     1      -5.553   1.893 -32.850  1.00  0.00     0.071 A 
HETATM   18  N   UNL     1      -6.319   2.138 -33.925  1.00  0.00    -0.178 NA
HETATM   19  N   UNL     1      -6.643   3.430 -33.844  1.00  0.00    -0.288 N 
HETATM   20  H   UNL     1      -7.244   3.820 -34.565  1.00  0.00     0.188 HD
HETATM   21  C   UNL     1      -6.101   4.050 -32.769  1.00  0.00     0.120 A 
BRANCH  17  22
HETATM   22  C   UNL     1      -5.072   0.453 -32.638  1.00  0.00    -0.004 C 
HETATM   23  C   UNL     1      -5.732  -0.117 -31.367  1.00  0.00     0.021 C 
HETATM   24  C   UNL     1      -5.478  -0.449 -33.834  1.00  0.00     0.021 C 
HETATM   25  C   UNL     1      -3.542   0.334 -32.507  1.00  0.00     0.021 C 
ENDBRANCH  17  22
ENDBRANCH  15  16
ENDBRANCH   1  15
TORSDOF 4
ENDMDL
MODEL 6
REMARK VINA RESULT:      -6.6      1.864      6.490
REMARK  4 active torsions:
REMARK  status: ('A' for Active; 'I' for Inactive)
REMARK    1  A    between atoms: C_11  and  N_12 
REMARK    2  A    between atoms: N_12  and  C_13 
REMARK    3  A    between atoms: C_13  and  C_14 
REMARK    4  A    between atoms: C_15  and  C_16 
ROOT
HETATM    1  N   UNL     1      -4.048   3.011 -32.652  1.00  0.00     0.092 N 
HETATM    2  H   UNL     1      -3.872   3.043 -33.654  1.00  0.00     0.316 HD
ENDROOT
BRANCH   1   3
HETATM    3  C   UNL     1      -3.173   3.888 -31.882  1.00  0.00     0.225 C 
HETATM    4  C   UNL     1      -3.971   4.983 -31.159  1.00  0.00     0.073 C 
HETATM    5  C   UNL     1      -4.485   6.135 -32.033  1.00  0.00     0.121 C 
HETATM    6  N   UNL     1      -3.362   6.648 -32.916  1.00  0.00    -0.059 N 
HETATM    7  C   UNL     1      -5.717   5.789 -32.875  1.00  0.00     0.046 C 
HETATM    8  C   UNL     1      -4.874   7.325 -31.127  1.00  0.00     0.046 C 
HETATM    9  C   UNL     1      -2.461   5.679 -33.648  1.00  0.00     0.121 C 
HETATM   10  H   UNL     1      -2.758   7.231 -32.319  1.00  0.00     0.279 HD
HETATM   11  H   UNL     1      -3.759   7.312 -33.596  1.00  0.00     0.279 HD
HETATM   12  C   UNL     1      -3.118   5.247 -34.964  1.00  0.00     0.046 C 
HETATM   13  C   UNL     1      -1.190   6.473 -34.017  1.00  0.00     0.046 C 
HETATM   14  C   UNL     1      -2.058   4.518 -32.723  1.00  0.00     0.073 C 
ENDBRANCH   1   3
BRANCH   1  15
HETATM   15  C   UNL     1      -3.909   1.596 -32.273  1.00  0.00     0.312 C 
BRANCH  15  16
HETATM   16  C   UNL     1      -5.186   1.191 -31.618  1.00  0.00     0.014 A 
HETATM   17  C   UNL     1      -6.377   0.578 -32.143  1.00  0.00     0.071 A 
HETATM   18  N   UNL     1      -7.277   0.397 -31.165  1.00  0.00    -0.178 NA
HETATM   19  N   UNL     1      -6.696   0.855 -30.055  1.00  0.00    -0.288 N 
HETATM   20  H   UNL     1      -7.212   0.794 -29.182  1.00  0.00     0.188 HD
HETATM   21  C   UNL     1      -5.455   1.353 -30.270  1.00  0.00     0.120 A 
BRANCH  17  22
HETATM   22  C   UNL     1      -6.745   0.080 -33.545  1.00  0.00    -0.004 C 
HETATM   23  C   UNL     1      -8.186  -0.466 -33.525  1.00  0.00     0.021 C 
HETATM   24  C   UNL     1      -6.686   1.237 -34.578  1.00  0.00     0.021 C 
HETATM   25  C   UNL     1      -5.799  -1.015 -34.072  1.00  0.00     0.021 C 
ENDBRANCH  17  22
ENDBRANCH  15  16
ENDBRANCH   1  15
TORSDOF 4
ENDMDL
MODEL 7
REMARK VINA RESULT:      -6.3      2.960      6.316
REMARK  4 active torsions:
REMARK  status: ('A' for Active; 'I' for Inactive)
REMARK    1  A    between atoms: C_11  and  N_12 
REMARK    2  A    between atoms: N_12  and  C_13 
REMARK    3  A    between atoms: C_13  and  C_14 
REMARK    4  A    between atoms: C_15  and  C_16 
ROOT
HETATM    1  N   UNL     1      -7.746   1.961 -31.527  1.00  0.00     0.092 N 
HETATM    2  H   UNL     1      -7.324   2.381 -32.351  1.00  0.00     0.316 HD
ENDROOT
BRANCH   1   3
HETATM    3  C   UNL     1      -7.555   0.517 -31.450  1.00  0.00     0.225 C 
HETATM    4  C   UNL     1      -6.152   0.164 -30.933  1.00  0.00     0.073 C 
HETATM    5  C   UNL     1      -4.998   0.342 -31.928  1.00  0.00     0.121 C 
HETATM    6  N   UNL     1      -5.364  -0.298 -33.254  1.00  0.00    -0.059 N 
HETATM    7  C   UNL     1      -4.560   1.795 -32.135  1.00  0.00     0.046 C 
HETATM    8  C   UNL     1      -3.764  -0.436 -31.420  1.00  0.00     0.046 C 
HETATM    9  C   UNL     1      -6.733  -0.080 -33.858  1.00  0.00     0.121 C 
HETATM   10  H   UNL     1      -5.245  -1.315 -33.137  1.00  0.00     0.279 HD
HETATM   11  H   UNL     1      -4.649  -0.040 -33.950  1.00  0.00     0.279 HD
HETATM   12  C   UNL     1      -6.755   1.238 -34.642  1.00  0.00     0.046 C 
HETATM   13  C   UNL     1      -6.936  -1.218 -34.882  1.00  0.00     0.046 C 
HETATM   14  C   UNL     1      -7.821  -0.200 -32.777  1.00  0.00     0.073 C 
ENDBRANCH   1   3
BRANCH   1  15
HETATM   15  C   UNL     1      -9.168   2.343 -31.575  1.00  0.00     0.312 C 
BRANCH  15  16
HETATM   16  C   UNL     1      -9.353   3.186 -32.791  1.00  0.00     0.014 A 
HETATM   17  C   UNL     1     -10.374   3.190 -33.803  1.00  0.00     0.071 A 
HETATM   18  N   UNL     1     -10.122   4.143 -34.714  1.00  0.00    -0.178 NA
HETATM   19  N   UNL     1      -9.000   4.739 -34.306  1.00  0.00    -0.288 N 
HETATM   20  H   UNL     1      -8.640   5.513 -34.857  1.00  0.00     0.188 HD
HETATM   21  C   UNL     1      -8.492   4.200 -33.173  1.00  0.00     0.120 A 
BRANCH  17  22
HETATM   22  C   UNL     1     -11.656   2.367 -33.976  1.00  0.00    -0.004 C 
HETATM   23  C   UNL     1     -11.344   0.883 -33.706  1.00  0.00     0.021 C 
HETATM   24  C   UNL     1     -12.746   2.819 -32.969  1.00  0.00     0.021 C 
HETATM   25  C   UNL     1     -12.282   2.502 -35.377  1.00  0.00     0.021 C 
ENDBRANCH  17  22
ENDBRANCH  15  16
ENDBRANCH   1  15
TORSDOF 4
ENDMDL
MODEL 8
REMARK VINA RESULT:      -6.3      2.828      5.587
REMARK  4 active torsions:
REMARK  status: ('A' for Active; 'I' for Inactive)
REMARK    1  A    between atoms: C_11  and  N_12 
REMARK    2  A    between atoms: N_12  and  C_13 
REMARK    3  A    between atoms: C_13  and  C_14 
REMARK    4  A    between atoms: C_15  and  C_16 
ROOT
HETATM    1  N   UNL     1      -7.804   1.705 -31.930  1.00  0.00     0.092 N 
HETATM    2  H   UNL     1      -7.648   2.001 -32.890  1.00  0.00     0.316 HD
ENDROOT
BRANCH   1   3
HETATM    3  C   UNL     1      -7.386   0.331 -31.672  1.00  0.00     0.225 C 
HETATM    4  C   UNL     1      -5.941   0.272 -31.156  1.00  0.00     0.073 C 
HETATM    5  C   UNL     1      -4.839   0.493 -32.200  1.00  0.00     0.121 C 
HETATM    6  N   UNL     1      -5.111  -0.366 -33.421  1.00  0.00    -0.059 N 
HETATM    7  C   UNL     1      -4.637   1.956 -32.607  1.00  0.00     0.046 C 
HETATM    8  C   UNL     1      -3.492  -0.010 -31.633  1.00  0.00     0.046 C 
HETATM    9  C   UNL     1      -6.503  -0.445 -34.006  1.00  0.00     0.121 C 
HETATM   10  H   UNL     1      -4.832  -1.327 -33.176  1.00  0.00     0.279 HD
HETATM   11  H   UNL     1      -4.453  -0.095 -34.165  1.00  0.00     0.279 HD
HETATM   12  C   UNL     1      -6.740   0.737 -34.953  1.00  0.00     0.046 C 
HETATM   13  C   UNL     1      -6.533  -1.726 -34.868  1.00  0.00     0.046 C 
HETATM   14  C   UNL     1      -7.549  -0.588 -32.887  1.00  0.00     0.073 C 
ENDBRANCH   1   3
BRANCH   1  15
HETATM   15  C   UNL     1      -9.239   1.917 -31.681  1.00  0.00     0.312 C 
BRANCH  15  16
HETATM   16  C   UNL     1      -9.878   2.185 -33.001  1.00  0.00     0.014 A 
HETATM   17  C   UNL     1      -9.893   3.357 -33.835  1.00  0.00     0.071 A 
HETATM   18  N   UNL     1     -10.604   3.126 -34.949  1.00  0.00    -0.178 NA
HETATM   19  N   UNL     1     -11.019   1.862 -34.852  1.00  0.00    -0.288 N 
HETATM   20  H   UNL     1     -11.569   1.478 -35.615  1.00  0.00     0.188 HD
HETATM   21  C   UNL     1     -10.626   1.258 -33.706  1.00  0.00     0.120 A 
BRANCH  17  22
HETATM   22  C   UNL     1      -9.227   4.730 -33.692  1.00  0.00    -0.004 C 
HETATM   23  C   UNL     1      -9.764   5.669 -34.790  1.00  0.00     0.021 C 
HETATM   24  C   UNL     1      -9.556   5.366 -32.315  1.00  0.00     0.021 C 
HETATM   25  C   UNL     1      -7.691   4.675 -33.785  1.00  0.00     0.021 C 
ENDBRANCH  17  22
ENDBRANCH  15  16
ENDBRANCH   1  15
TORSDOF 4
ENDMDL
MODEL 9
REMARK VINA RESULT:      -6.3      1.391      2.877
REMARK  4 active torsions:
REMARK  status: ('A' for Active; 'I' for Inactive)
REMARK    1  A    between atoms: C_11  and  N_12 
REMARK    2  A    between atoms: N_12  and  C_13 
REMARK    3  A    between atoms: C_13  and  C_14 
REMARK    4  A    between atoms: C_15  and  C_16 
ROOT
HETATM    1  N   UNL     1      -6.551   2.042 -32.440  1.00  0.00     0.092 N 
HETATM    2  H   UNL     1      -6.947   2.883 -32.027  1.00  0.00     0.316 HD
ENDROOT
BRANCH   1   3
HETATM    3  C   UNL     1      -7.072   0.810 -31.858  1.00  0.00     0.225 C 
HETATM    4  C   UNL     1      -6.507  -0.428 -32.569  1.00  0.00     0.073 C 
HETATM    5  C   UNL     1      -7.093  -0.743 -33.951  1.00  0.00     0.121 C 
HETATM    6  N   UNL     1      -8.608  -0.683 -33.890  1.00  0.00    -0.059 N 
HETATM    7  C   UNL     1      -6.565   0.149 -35.080  1.00  0.00     0.046 C 
HETATM    8  C   UNL     1      -6.752  -2.202 -34.329  1.00  0.00     0.046 C 
HETATM    9  C   UNL     1      -9.301   0.454 -33.175  1.00  0.00     0.121 C 
HETATM   10  H   UNL     1      -8.922  -1.557 -33.442  1.00  0.00     0.279 HD
HETATM   11  H   UNL     1      -8.977  -0.746 -34.850  1.00  0.00     0.279 HD
HETATM   12  C   UNL     1      -9.427   1.661 -34.111  1.00  0.00     0.046 C 
HETATM   13  C   UNL     1     -10.735  -0.038 -32.877  1.00  0.00     0.046 C 
HETATM   14  C   UNL     1      -8.603   0.752 -31.837  1.00  0.00     0.073 C 
ENDBRANCH   1   3
BRANCH   1  15
HETATM   15  C   UNL     1      -5.093   2.173 -32.281  1.00  0.00     0.312 C 
BRANCH  15  16
HETATM   16  C   UNL     1      -4.851   3.392 -31.457  1.00  0.00     0.014 A 
HETATM   17  C   UNL     1      -4.186   4.632 -31.759  1.00  0.00     0.071 A 
HETATM   18  N   UNL     1      -4.217   5.447 -30.693  1.00  0.00    -0.178 NA
HETATM   19  N   UNL     1      -4.881   4.777 -29.751  1.00  0.00    -0.288 N 
HETATM   20  H   UNL     1      -5.033   5.232 -28.855  1.00  0.00     0.188 HD
HETATM   21  C   UNL     1      -5.271   3.542 -30.147  1.00  0.00     0.120 A 
BRANCH  17  22
HETATM   22  C   UNL     1      -3.530   5.163 -33.038  1.00  0.00    -0.004 C 
HETATM   23  C   UNL     1      -4.572   5.175 -34.173  1.00  0.00     0.021 C 
HETATM   24  C   UNL     1      -3.023   6.616 -32.839  1.00  0.00     0.021 C 
HETATM   25  C   UNL     1      -2.309   4.338 -33.485  1.00  0.00     0.021 C 
ENDBRANCH  17  22
ENDBRANCH  15  16
ENDBRANCH   1  15
TORSDOF 4
ENDMDL
MODEL 10
REMARK VINA RESULT:      -6.2      2.940      6.866
REMARK  4 active torsions:
REMARK  status: ('A' for Active; 'I' for Inactive)
REMARK    1  A    between atoms: C_11  and  N_12 
REMARK    2  A    between atoms: N_12  and  C_13 
REMARK    3  A    between atoms: C_13  and  C_14 
REMARK    4  A    between atoms: C_15  and  C_16 
ROOT
HETATM    1  N   UNL     1      -9.323   1.363 -33.404  1.00  0.00     0.092 N 
HETATM    2  H   UNL     1      -9.765   0.787 -34.116  1.00  0.00     0.316 HD
ENDROOT
BRANCH   1   3
HETATM    3  C   UNL     1      -8.454   0.611 -32.506  1.00  0.00     0.225 C 
HETATM    4  C   UNL     1      -7.370   1.509 -31.893  1.00  0.00     0.073 C 
HETATM    5  C   UNL     1      -6.208   1.895 -32.819  1.00  0.00     0.121 C 
HETATM    6  N   UNL     1      -5.683   0.659 -33.524  1.00  0.00    -0.059 N 
HETATM    7  C   UNL     1      -6.546   2.991 -33.834  1.00  0.00     0.046 C 
HETATM    8  C   UNL     1      -5.029   2.415 -31.965  1.00  0.00     0.046 C 
HETATM    9  C   UNL     1      -6.641  -0.342 -34.130  1.00  0.00     0.121 C 
HETATM   10  H   UNL     1      -5.106   0.148 -32.840  1.00  0.00     0.279 HD
HETATM   11  H   UNL     1      -5.012   0.955 -34.248  1.00  0.00     0.279 HD
HETATM   12  C   UNL     1      -7.060   0.117 -35.532  1.00  0.00     0.046 C 
HETATM   13  C   UNL     1      -5.841  -1.651 -34.302  1.00  0.00     0.046 C 
HETATM   14  C   UNL     1      -7.813  -0.612 -33.170  1.00  0.00     0.073 C 
ENDBRANCH   1   3
BRANCH   1  15
HETATM   15  C   UNL     1     -10.429   2.031 -32.697  1.00  0.00     0.312 C 
BRANCH  15  16
HETATM   16  C   UNL     1     -11.624   1.959 -33.586  1.00  0.00     0.014 A 
HETATM   17  C   UNL     1     -12.262   2.951 -34.410  1.00  0.00     0.071 A 
HETATM   18  N   UNL     1     -13.319   2.419 -35.042  1.00  0.00    -0.178 NA
HETATM   19  N   UNL     1     -13.358   1.142 -34.661  1.00  0.00    -0.288 N 
HETATM   20  H   UNL     1     -14.087   0.548 -35.046  1.00  0.00     0.188 HD
HETATM   21  C   UNL     1     -12.380   0.817 -33.783  1.00  0.00     0.120 A 
BRANCH  17  22
HETATM   22  C   UNL     1     -11.923   4.416 -34.706  1.00  0.00    -0.004 C 
HETATM   23  C   UNL     1     -11.947   5.216 -33.389  1.00  0.00     0.021 C 
HETATM   24  C   UNL     1     -10.503   4.545 -35.319  1.00  0.00     0.021 C 
HETATM   25  C   UNL     1     -12.888   5.074 -35.711  1.00  0.00     0.021 C 
ENDBRANCH  17  22
ENDBRANCH  15  16
ENDBRANCH   1  15
TORSDOF 4
ENDMDL
