MODEL 1
REMARK VINA RESULT:      -7.2      0.000      0.000
REMARK  8 active torsions:
REMARK  status: ('A' for Active; 'I' for Inactive)
REMARK    1  A    between atoms: C_6  and  C_7 
REMARK    2  A    between atoms: C_12  and  C_13 
REMARK    3  A    between atoms: C_13  and  N_14 
REMARK    4  A    between atoms: N_14  and  C_16 
REMARK    5  A    between atoms: N_14  and  C_23 
REMARK    6  A    between atoms: C_16  and  C_17 
REMARK    7  A    between atoms: C_23  and  C_24 
REMARK    8  A    between atoms: C_24  and  O_25 
ROOT
HETATM    1  C   UNL     1      -3.823  -1.745 -32.215  1.00  0.00     0.069 A 
HETATM    2  N   UNL     1      -3.018  -2.538 -31.432  1.00  0.00    -0.277 N 
HETATM    3  H   UNL     1      -2.614  -2.319 -30.526  1.00  0.00     0.189 HD
HETATM    4  N   UNL     1      -2.779  -3.746 -31.964  1.00  0.00    -0.186 NA
HETATM    5  C   UNL     1      -3.487  -3.750 -33.089  1.00  0.00     0.149 A 
HETATM    6  C   UNL     1      -4.134  -2.516 -33.329  1.00  0.00     0.016 A 
ENDROOT
BRANCH   6   7
HETATM    7  C   UNL     1      -4.964  -2.169 -34.507  1.00  0.00     0.277 C 
BRANCH   7   8
HETATM    8  N   UNL     1      -6.447  -2.233 -34.256  1.00  0.00    -0.061 N 
HETATM    9  H   UNL     1      -6.574  -1.976 -33.257  1.00  0.00     0.280 HD
BRANCH   8  10
HETATM   10  C   UNL     1      -7.271  -1.219 -35.008  1.00  0.00     0.273 C 
BRANCH  10  11
HETATM   11  C   UNL     1      -7.509   0.091 -34.301  1.00  0.00    -0.033 A 
HETATM   12  C   UNL     1      -8.514   0.233 -33.333  1.00  0.00     0.009 A 
HETATM   13  C   UNL     1      -8.731   1.462 -32.707  1.00  0.00     0.001 A 
HETATM   14  C   UNL     1      -7.939   2.561 -33.031  1.00  0.00     0.000 A 
HETATM   15  C   UNL     1      -6.924   2.430 -33.974  1.00  0.00     0.001 A 
HETATM   16  C   UNL     1      -6.705   1.203 -34.601  1.00  0.00     0.009 A 
ENDBRANCH  10  11
ENDBRANCH   8  10
BRANCH   8  17
HETATM   17  C   UNL     1      -6.999  -3.646 -34.291  1.00  0.00     0.261 C 
BRANCH  17  18
HETATM   18  C   UNL     1      -6.505  -4.316 -35.579  1.00  0.00     0.192 C 
BRANCH  18  19
HETATM   19  O   UNL     1      -5.690  -5.421 -35.178  1.00  0.00    -0.399 OA
HETATM   20  H   UNL     1      -5.276  -5.794 -35.983  1.00  0.00     0.209 HD
ENDBRANCH  18  19
ENDBRANCH  17  18
ENDBRANCH   8  17
ENDBRANCH   7   8
ENDBRANCH   6   7
BRANCH   1  21
HETATM   21  C   UNL     1      -4.226  -0.409 -31.805  1.00  0.00    -0.007 A 
HETATM   22  C   UNL     1      -3.512   0.713 -32.244  1.00  0.00     0.021 A 
HETATM   23  C   UNL     1      -3.884   2.010 -31.850  1.00  0.00    -0.055 A 
HETATM   24  C   UNL     1      -4.985   2.181 -30.987  1.00  0.00    -0.056 A 
HETATM   25  C   UNL     1      -3.066   3.183 -32.322  1.00  0.00     0.049 C 
HETATM   26  C   UNL     1      -5.428   3.547 -30.534  1.00  0.00     0.049 C 
HETATM   27  C   UNL     1      -5.699   1.054 -30.556  1.00  0.00     0.008 A 
HETATM   28  C   UNL     1      -5.320  -0.229 -30.957  1.00  0.00     0.014 A 
ENDBRANCH   1  21
TORSDOF 8
ENDMDL
MODEL 2
REMARK VINA RESULT:      -6.9      3.455      5.838
REMARK  8 active torsions:
REMARK  status: ('A' for Active; 'I' for Inactive)
REMARK    1  A    between atoms: C_6  and  C_7 
REMARK    2  A    between atoms: C_12  and  C_13 
REMARK    3  A    between atoms: C_13  and  N_14 
REMARK    4  A    between atoms: N_14  and  C_16 
REMARK    5  A    between atoms: N_14  and  C_23 
REMARK    6  A    between atoms: C_16  and  C_17 
REMARK    7  A    between atoms: C_23  and  C_24 
REMARK    8  A    between atoms: C_24  and  O_25 
ROOT
HETATM    1  C   UNL     1      -4.245   2.405 -32.149  1.00  0.00     0.069 A 
HETATM    2  N   UNL     1      -2.963   2.730 -32.524  1.00  0.00    -0.277 N 
HETATM    3  H   UNL     1      -2.355   2.233 -33.169  1.00  0.00     0.189 HD
HETATM    4  N   UNL     1      -2.510   3.857 -31.957  1.00  0.00    -0.186 NA
HETATM    5  C   UNL     1      -3.541   4.296 -31.241  1.00  0.00     0.149 A 
HETATM    6  C   UNL     1      -4.646   3.415 -31.283  1.00  0.00     0.016 A 
ENDROOT
BRANCH   6   7
HETATM    7  C   UNL     1      -5.933   3.580 -30.566  1.00  0.00     0.277 C 
BRANCH   7   8
HETATM    8  N   UNL     1      -7.125   3.743 -31.471  1.00  0.00    -0.061 N 
HETATM    9  H   UNL     1      -6.951   3.117 -32.281  1.00  0.00     0.280 HD
BRANCH   8  10
HETATM   10  C   UNL     1      -8.436   3.260 -30.902  1.00  0.00     0.273 C 
BRANCH  10  11
HETATM   11  C   UNL     1      -9.183   2.253 -31.737  1.00  0.00    -0.033 A 
HETATM   12  C   UNL     1      -8.958   0.874 -31.604  1.00  0.00     0.009 A 
HETATM   13  C   UNL     1      -9.646  -0.040 -32.404  1.00  0.00     0.001 A 
HETATM   14  C   UNL     1     -10.576   0.410 -33.339  1.00  0.00     0.000 A 
HETATM   15  C   UNL     1     -10.826   1.772 -33.468  1.00  0.00     0.001 A 
HETATM   16  C   UNL     1     -10.140   2.688 -32.670  1.00  0.00     0.009 A 
ENDBRANCH  10  11
ENDBRANCH   8  10
BRANCH   8  17
HETATM   17  C   UNL     1      -7.190   5.107 -32.134  1.00  0.00     0.261 C 
BRANCH  17  18
HETATM   18  C   UNL     1      -7.035   4.905 -33.647  1.00  0.00     0.192 C 
BRANCH  18  19
HETATM   19  O   UNL     1      -8.129   5.590 -34.265  1.00  0.00    -0.399 OA
HETATM   20  H   UNL     1      -7.809   6.473 -34.542  1.00  0.00     0.209 HD
ENDBRANCH  18  19
ENDBRANCH  17  18
ENDBRANCH   8  17
ENDBRANCH   7   8
ENDBRANCH   6   7
BRANCH   1  21
HETATM   21  C   UNL     1      -4.932   1.235 -32.673  1.00  0.00    -0.007 A 
HETATM   22  C   UNL     1      -5.824   1.356 -33.745  1.00  0.00     0.021 A 
HETATM   23  C   UNL     1      -6.502   0.236 -34.257  1.00  0.00    -0.055 A 
HETATM   24  C   UNL     1      -6.289  -1.027 -33.670  1.00  0.00    -0.056 A 
HETATM   25  C   UNL     1      -7.476   0.422 -35.390  1.00  0.00     0.049 C 
HETATM   26  C   UNL     1      -6.987  -2.262 -34.178  1.00  0.00     0.049 C 
HETATM   27  C   UNL     1      -5.389  -1.144 -32.601  1.00  0.00     0.008 A 
HETATM   28  C   UNL     1      -4.721  -0.023 -32.103  1.00  0.00     0.014 A 
ENDBRANCH   1  21
TORSDOF 8
ENDMDL
MODEL 3
REMARK VINA RESULT:      -6.9      3.981      6.562
REMARK  8 active torsions:
REMARK  status: ('A' for Active; 'I' for Inactive)
REMARK    1  A    between atoms: C_6  and  C_7 
REMARK    2  A    between atoms: C_12  and  C_13 
REMARK    3  A    between atoms: C_13  and  N_14 
REMARK    4  A    between atoms: N_14  and  C_16 
REMARK    5  A    between atoms: N_14  and  C_23 
REMARK    6  A    between atoms: C_16  and  C_17 
REMARK    7  A    between atoms: C_23  and  C_24 
REMARK    8  A    between atoms: C_24  and  O_25 
ROOT
HETATM    1  C   UNL     1      -5.623   3.405 -33.572  1.00  0.00     0.069 A 
HETATM    2  N   UNL     1      -5.468   4.291 -34.611  1.00  0.00    -0.277 N 
HETATM    3  H   UNL     1      -5.527   4.104 -35.608  1.00  0.00     0.189 HD
HETATM    4  N   UNL     1      -5.230   5.548 -34.209  1.00  0.00    -0.186 NA
HETATM    5  C   UNL     1      -5.283   5.480 -32.883  1.00  0.00     0.149 A 
HETATM    6  C   UNL     1      -5.486   4.161 -32.415  1.00  0.00     0.016 A 
ENDROOT
BRANCH   6   7
HETATM    7  C   UNL     1      -5.552   3.729 -30.998  1.00  0.00     0.277 C 
BRANCH   7   8
HETATM    8  N   UNL     1      -6.948   3.659 -30.440  1.00  0.00    -0.061 N 
HETATM    9  H   UNL     1      -7.556   4.122 -31.143  1.00  0.00     0.280 HD
BRANCH   8  10
HETATM   10  C   UNL     1      -7.520   2.269 -30.311  1.00  0.00     0.273 C 
BRANCH  10  11
HETATM   11  C   UNL     1      -8.515   1.867 -31.369  1.00  0.00    -0.033 A 
HETATM   12  C   UNL     1      -9.182   2.822 -32.153  1.00  0.00     0.009 A 
HETATM   13  C   UNL     1     -10.116   2.427 -33.113  1.00  0.00     0.001 A 
HETATM   14  C   UNL     1     -10.388   1.075 -33.310  1.00  0.00     0.000 A 
HETATM   15  C   UNL     1      -9.720   0.116 -32.556  1.00  0.00     0.001 A 
HETATM   16  C   UNL     1      -8.785   0.508 -31.595  1.00  0.00     0.009 A 
ENDBRANCH  10  11
ENDBRANCH   8  10
BRANCH   8  17
HETATM   17  C   UNL     1      -7.150   4.539 -29.220  1.00  0.00     0.261 C 
BRANCH  17  18
HETATM   18  C   UNL     1      -5.836   5.282 -28.950  1.00  0.00     0.192 C 
BRANCH  18  19
HETATM   19  O   UNL     1      -5.384   4.858 -27.660  1.00  0.00    -0.399 OA
HETATM   20  H   UNL     1      -5.624   5.556 -27.017  1.00  0.00     0.209 HD
ENDBRANCH  18  19
ENDBRANCH  17  18
ENDBRANCH   8  17
ENDBRANCH   7   8
ENDBRANCH   6   7
BRANCH   1  21
HETATM   21  C   UNL     1      -5.917   1.997 -33.793  1.00  0.00    -0.007 A 
HETATM   22  C   UNL     1      -5.267   1.010 -33.042  1.00  0.00     0.021 A 
HETATM   23  C   UNL     1      -5.534  -0.354 -33.251  1.00  0.00    -0.055 A 
HETATM   24  C   UNL     1      -6.461  -0.733 -34.242  1.00  0.00    -0.056 A 
HETATM   25  C   UNL     1      -4.786  -1.380 -32.441  1.00  0.00     0.049 C 
HETATM   26  C   UNL     1      -6.786  -2.179 -34.507  1.00  0.00     0.049 C 
HETATM   27  C   UNL     1      -7.113   0.261 -34.987  1.00  0.00     0.008 A 
HETATM   28  C   UNL     1      -6.839   1.613 -34.768  1.00  0.00     0.014 A 
ENDBRANCH   1  21
TORSDOF 8
ENDMDL
MODEL 4
REMARK VINA RESULT:      -6.9      2.853      5.521
REMARK  8 active torsions:
REMARK  status: ('A' for Active; 'I' for Inactive)
REMARK    1  A    between atoms: C_6  and  C_7 
REMARK    2  A    between atoms: C_12  and  C_13 
REMARK    3  A    between atoms: C_13  and  N_14 
REMARK    4  A    between atoms: N_14  and  C_16 
REMARK    5  A    between atoms: N_14  and  C_23 
REMARK    6  A    between atoms: C_16  and  C_17 
REMARK    7  A    between atoms: C_23  and  C_24 
REMARK    8  A    between atoms: C_24  and  O_25 
ROOT
HETATM    1  C   UNL     1      -4.201  -0.078 -32.423  1.00  0.00     0.069 A 
HETATM    2  N   UNL     1      -3.163  -0.288 -31.546  1.00  0.00    -0.277 N 
HETATM    3  H   UNL     1      -2.709  -1.167 -31.312  1.00  0.00     0.189 HD
HETATM    4  N   UNL     1      -2.717   0.836 -30.967  1.00  0.00    -0.186 NA
HETATM    5  C   UNL     1      -3.449   1.798 -31.521  1.00  0.00     0.149 A 
HETATM    6  C   UNL     1      -4.425   1.293 -32.412  1.00  0.00     0.016 A 
ENDROOT
BRANCH   6   7
HETATM    7  C   UNL     1      -5.429   2.085 -33.161  1.00  0.00     0.277 C 
BRANCH   7   8
HETATM    8  N   UNL     1      -6.507   2.686 -32.299  1.00  0.00    -0.061 N 
HETATM    9  H   UNL     1      -7.162   3.157 -32.954  1.00  0.00     0.280 HD
BRANCH   8  10
HETATM   10  C   UNL     1      -7.370   1.692 -31.561  1.00  0.00     0.273 C 
BRANCH  10  11
HETATM   11  C   UNL     1      -8.693   1.366 -32.204  1.00  0.00    -0.033 A 
HETATM   12  C   UNL     1      -9.196   0.056 -32.229  1.00  0.00     0.009 A 
HETATM   13  C   UNL     1     -10.415  -0.226 -32.850  1.00  0.00     0.001 A 
HETATM   14  C   UNL     1     -11.151   0.796 -33.443  1.00  0.00     0.000 A 
HETATM   15  C   UNL     1     -10.676   2.103 -33.408  1.00  0.00     0.001 A 
HETATM   16  C   UNL     1      -9.458   2.389 -32.788  1.00  0.00     0.009 A 
ENDBRANCH  10  11
ENDBRANCH   8  10
BRANCH   8  17
HETATM   17  C   UNL     1      -6.019   3.847 -31.452  1.00  0.00     0.261 C 
BRANCH  17  18
HETATM   18  C   UNL     1      -6.549   3.649 -30.027  1.00  0.00     0.192 C 
BRANCH  18  19
HETATM   19  O   UNL     1      -5.404   3.551 -29.175  1.00  0.00    -0.399 OA
HETATM   20  H   UNL     1      -5.690   3.773 -28.265  1.00  0.00     0.209 HD
ENDBRANCH  18  19
ENDBRANCH  17  18
ENDBRANCH   8  17
ENDBRANCH   7   8
ENDBRANCH   6   7
BRANCH   1  21
HETATM   21  C   UNL     1      -4.809  -1.164 -33.176  1.00  0.00    -0.007 A 
HETATM   22  C   UNL     1      -4.142  -2.386 -33.325  1.00  0.00     0.021 A 
HETATM   23  C   UNL     1      -4.712  -3.441 -34.057  1.00  0.00    -0.055 A 
HETATM   24  C   UNL     1      -5.972  -3.259 -34.663  1.00  0.00    -0.056 A 
HETATM   25  C   UNL     1      -3.942  -4.725 -34.216  1.00  0.00     0.049 C 
HETATM   26  C   UNL     1      -6.632  -4.355 -35.457  1.00  0.00     0.049 C 
HETATM   27  C   UNL     1      -6.638  -2.035 -34.505  1.00  0.00     0.008 A 
HETATM   28  C   UNL     1      -6.059  -0.995 -33.773  1.00  0.00     0.014 A 
ENDBRANCH   1  21
TORSDOF 8
ENDMDL
MODEL 5
REMARK VINA RESULT:      -6.9      2.877      6.176
REMARK  8 active torsions:
REMARK  status: ('A' for Active; 'I' for Inactive)
REMARK    1  A    between atoms: C_6  and  C_7 
REMARK    2  A    between atoms: C_12  and  C_13 
REMARK    3  A    between atoms: C_13  and  N_14 
REMARK    4  A    between atoms: N_14  and  C_16 
REMARK    5  A    between atoms: N_14  and  C_23 
REMARK    6  A    between atoms: C_16  and  C_17 
REMARK    7  A    between atoms: C_23  and  C_24 
REMARK    8  A    between atoms: C_24  and  O_25 
ROOT
HETATM    1  C   UNL     1      -4.088  -0.432 -32.332  1.00  0.00     0.069 A 
HETATM    2  N   UNL     1      -3.015  -0.665 -31.506  1.00  0.00    -0.277 N 
HETATM    3  H   UNL     1      -2.523  -1.541 -31.351  1.00  0.00     0.189 HD
HETATM    4  N   UNL     1      -2.589   0.430 -30.861  1.00  0.00    -0.186 NA
HETATM    5  C   UNL     1      -3.372   1.402 -31.321  1.00  0.00     0.149 A 
HETATM    6  C   UNL     1      -4.359   0.926 -32.215  1.00  0.00     0.016 A 
ENDROOT
BRANCH   6   7
HETATM    7  C   UNL     1      -5.415   1.732 -32.873  1.00  0.00     0.277 C 
BRANCH   7   8
HETATM    8  N   UNL     1      -5.573   3.118 -32.307  1.00  0.00    -0.061 N 
HETATM    9  H   UNL     1      -4.822   3.220 -31.597  1.00  0.00     0.280 HD
BRANCH   8  10
HETATM   10  C   UNL     1      -5.319   4.243 -33.279  1.00  0.00     0.273 C 
BRANCH  10  11
HETATM   11  C   UNL     1      -3.879   4.653 -33.448  1.00  0.00    -0.033 A 
HETATM   12  C   UNL     1      -2.978   4.637 -32.373  1.00  0.00     0.009 A 
HETATM   13  C   UNL     1      -1.653   5.042 -32.548  1.00  0.00     0.001 A 
HETATM   14  C   UNL     1      -1.209   5.459 -33.801  1.00  0.00     0.000 A 
HETATM   15  C   UNL     1      -2.085   5.460 -34.882  1.00  0.00     0.001 A 
HETATM   16  C   UNL     1      -3.410   5.055 -34.710  1.00  0.00     0.009 A 
ENDBRANCH  10  11
ENDBRANCH   8  10
BRANCH   8  17
HETATM   17  C   UNL     1      -6.827   3.282 -31.467  1.00  0.00     0.261 C 
BRANCH  17  18
HETATM   18  C   UNL     1      -6.412   3.267 -29.991  1.00  0.00     0.192 C 
BRANCH  18  19
HETATM   19  O   UNL     1      -6.709   1.958 -29.496  1.00  0.00    -0.399 OA
HETATM   20  H   UNL     1      -7.026   2.052 -28.575  1.00  0.00     0.209 HD
ENDBRANCH  18  19
ENDBRANCH  17  18
ENDBRANCH   8  17
ENDBRANCH   7   8
ENDBRANCH   6   7
BRANCH   1  21
HETATM   21  C   UNL     1      -4.684  -1.483 -33.143  1.00  0.00    -0.007 A 
HETATM   22  C   UNL     1      -4.052  -2.726 -33.271  1.00  0.00     0.021 A 
HETATM   23  C   UNL     1      -4.611  -3.747 -34.057  1.00  0.00    -0.055 A 
HETATM   24  C   UNL     1      -5.820  -3.510 -34.740  1.00  0.00    -0.056 A 
HETATM   25  C   UNL     1      -3.878  -5.056 -34.189  1.00  0.00     0.049 C 
HETATM   26  C   UNL     1      -6.465  -4.568 -35.596  1.00  0.00     0.049 C 
HETATM   27  C   UNL     1      -6.452  -2.265 -34.604  1.00  0.00     0.008 A 
HETATM   28  C   UNL     1      -5.886  -1.259 -33.817  1.00  0.00     0.014 A 
ENDBRANCH   1  21
TORSDOF 8
ENDMDL
MODEL 6
REMARK VINA RESULT:      -6.8      2.977      5.524
REMARK  8 active torsions:
REMARK  status: ('A' for Active; 'I' for Inactive)
REMARK    1  A    between atoms: C_6  and  C_7 
REMARK    2  A    between atoms: C_12  and  C_13 
REMARK    3  A    between atoms: C_13  and  N_14 
REMARK    4  A    between atoms: N_14  and  C_16 
REMARK    5  A    between atoms: N_14  and  C_23 
REMARK    6  A    between atoms: C_16  and  C_17 
REMARK    7  A    between atoms: C_23  and  C_24 
REMARK    8  A    between atoms: C_24  and  O_25 
ROOT
HETATM    1  C   UNL     1      -4.594   0.091 -32.385  1.00  0.00     0.069 A 
HETATM    2  N   UNL     1      -3.267   0.369 -32.161  1.00  0.00    -0.277 N 
HETATM    3  H   UNL     1      -2.456  -0.158 -32.472  1.00  0.00     0.189 HD
HETATM    4  N   UNL     1      -3.068   1.492 -31.455  1.00  0.00    -0.186 NA
HETATM    5  C   UNL     1      -4.292   1.976 -31.265  1.00  0.00     0.149 A 
HETATM    6  C   UNL     1      -5.298   1.129 -31.785  1.00  0.00     0.016 A 
ENDROOT
BRANCH   6   7
HETATM    7  C   UNL     1      -6.762   1.346 -31.706  1.00  0.00     0.277 C 
BRANCH   7   8
HETATM    8  N   UNL     1      -7.257   2.509 -32.523  1.00  0.00    -0.061 N 
HETATM    9  H   UNL     1      -6.412   3.065 -32.762  1.00  0.00     0.280 HD
BRANCH   8  10
HETATM   10  C   UNL     1      -7.856   2.149 -33.859  1.00  0.00     0.273 C 
BRANCH  10  11
HETATM   11  C   UNL     1      -9.304   1.731 -33.840  1.00  0.00    -0.033 A 
HETATM   12  C   UNL     1     -10.308   2.530 -34.407  1.00  0.00     0.009 A 
HETATM   13  C   UNL     1     -11.646   2.133 -34.358  1.00  0.00     0.001 A 
HETATM   14  C   UNL     1     -11.996   0.929 -33.752  1.00  0.00     0.000 A 
HETATM   15  C   UNL     1     -11.010   0.115 -33.203  1.00  0.00     0.001 A 
HETATM   16  C   UNL     1      -9.671   0.510 -33.251  1.00  0.00     0.009 A 
ENDBRANCH  10  11
ENDBRANCH   8  10
BRANCH   8  17
HETATM   17  C   UNL     1      -8.070   3.505 -31.715  1.00  0.00     0.261 C 
BRANCH  17  18
HETATM   18  C   UNL     1      -8.342   2.887 -30.338  1.00  0.00     0.192 C 
BRANCH  18  19
HETATM   19  O   UNL     1      -9.722   2.510 -30.325  1.00  0.00    -0.399 OA
HETATM   20  H   UNL     1     -10.244   3.280 -30.629  1.00  0.00     0.209 HD
ENDBRANCH  18  19
ENDBRANCH  17  18
ENDBRANCH   8  17
ENDBRANCH   7   8
ENDBRANCH   6   7
BRANCH   1  21
HETATM   21  C   UNL     1      -5.023  -1.067 -33.154  1.00  0.00    -0.007 A 
HETATM   22  C   UNL     1      -4.217  -2.209 -33.228  1.00  0.00     0.021 A 
HETATM   23  C   UNL     1      -4.613  -3.331 -33.974  1.00  0.00    -0.055 A 
HETATM   24  C   UNL     1      -5.838  -3.300 -34.671  1.00  0.00    -0.056 A 
HETATM   25  C   UNL     1      -3.697  -4.524 -34.050  1.00  0.00     0.049 C 
HETATM   26  C   UNL     1      -6.314  -4.475 -35.485  1.00  0.00     0.049 C 
HETATM   27  C   UNL     1      -6.644  -2.155 -34.588  1.00  0.00     0.008 A 
HETATM   28  C   UNL     1      -6.238  -1.048 -33.842  1.00  0.00     0.014 A 
ENDBRANCH   1  21
TORSDOF 8
ENDMDL
MODEL 7
REMARK VINA RESULT:      -6.7      3.321      6.538
REMARK  8 active torsions:
REMARK  status: ('A' for Active; 'I' for Inactive)
REMARK    1  A    between atoms: C_6  and  C_7 
REMARK    2  A    between atoms: C_12  and  C_13 
REMARK    3  A    between atoms: C_13  and  N_14 
REMARK    4  A    between atoms: N_14  and  C_16 
REMARK    5  A    between atoms: N_14  and  C_23 
REMARK    6  A    between atoms: C_16  and  C_17 
REMARK    7  A    between atoms: C_23  and  C_24 
REMARK    8  A    between atoms: C_24  and  O_25 
ROOT
HETATM    1  C   UNL     1      -7.541   0.624 -34.216  1.00  0.00     0.069 A 
HETATM    2  N   UNL     1      -8.907   0.486 -34.277  1.00  0.00    -0.277 N 
HETATM    3  H   UNL     1      -9.448  -0.372 -34.341  1.00  0.00     0.189 HD
HETATM    4  N   UNL     1      -9.564   1.654 -34.224  1.00  0.00    -0.186 NA
HETATM    5  C   UNL     1      -8.603   2.560 -34.075  1.00  0.00     0.149 A 
HETATM    6  C   UNL     1      -7.310   1.989 -34.102  1.00  0.00     0.016 A 
ENDROOT
BRANCH   6   7
HETATM    7  C   UNL     1      -6.022   2.718 -34.006  1.00  0.00     0.277 C 
BRANCH   7   8
HETATM    8  N   UNL     1      -6.098   4.000 -33.220  1.00  0.00    -0.061 N 
HETATM    9  H   UNL     1      -7.110   4.199 -33.102  1.00  0.00     0.280 HD
BRANCH   8  10
HETATM   10  C   UNL     1      -5.567   3.924 -31.811  1.00  0.00     0.273 C 
BRANCH  10  11
HETATM   11  C   UNL     1      -5.055   2.575 -31.373  1.00  0.00    -0.033 A 
HETATM   12  C   UNL     1      -5.883   1.653 -30.715  1.00  0.00     0.009 A 
HETATM   13  C   UNL     1      -5.382   0.418 -30.298  1.00  0.00     0.001 A 
HETATM   14  C   UNL     1      -4.052   0.084 -30.543  1.00  0.00     0.000 A 
HETATM   15  C   UNL     1      -3.224   0.979 -31.214  1.00  0.00     0.001 A 
HETATM   16  C   UNL     1      -3.723   2.215 -31.632  1.00  0.00     0.009 A 
ENDBRANCH  10  11
ENDBRANCH   8  10
BRANCH   8  17
HETATM   17  C   UNL     1      -5.628   5.211 -34.006  1.00  0.00     0.261 C 
BRANCH  17  18
HETATM   18  C   UNL     1      -4.103   5.128 -34.138  1.00  0.00     0.192 C 
BRANCH  18  19
HETATM   19  O   UNL     1      -3.782   5.575 -35.458  1.00  0.00    -0.399 OA
HETATM   20  H   UNL     1      -4.201   4.958 -36.092  1.00  0.00     0.209 HD
ENDBRANCH  18  19
ENDBRANCH  17  18
ENDBRANCH   8  17
ENDBRANCH   7   8
ENDBRANCH   6   7
BRANCH   1  21
HETATM   21  C   UNL     1      -6.646  -0.523 -34.230  1.00  0.00    -0.007 A 
HETATM   22  C   UNL     1      -7.106  -1.778 -34.646  1.00  0.00     0.021 A 
HETATM   23  C   UNL     1      -6.256  -2.897 -34.656  1.00  0.00    -0.055 A 
HETATM   24  C   UNL     1      -4.922  -2.754 -34.226  1.00  0.00    -0.056 A 
HETATM   25  C   UNL     1      -6.806  -4.233 -35.081  1.00  0.00     0.049 C 
HETATM   26  C   UNL     1      -3.966  -3.918 -34.218  1.00  0.00     0.049 C 
HETATM   27  C   UNL     1      -4.465  -1.493 -33.817  1.00  0.00     0.008 A 
HETATM   28  C   UNL     1      -5.320  -0.389 -33.813  1.00  0.00     0.014 A 
ENDBRANCH   1  21
TORSDOF 8
ENDMDL
MODEL 8
REMARK VINA RESULT:      -6.7      4.020      6.700
REMARK  8 active torsions:
REMARK  status: ('A' for Active; 'I' for Inactive)
REMARK    1  A    between atoms: C_6  and  C_7 
REMARK    2  A    between atoms: C_12  and  C_13 
REMARK    3  A    between atoms: C_13  and  N_14 
REMARK    4  A    between atoms: N_14  and  C_16 
REMARK    5  A    between atoms: N_14  and  C_23 
REMARK    6  A    between atoms: C_16  and  C_17 
REMARK    7  A    between atoms: C_23  and  C_24 
REMARK    8  A    between atoms: C_24  and  O_25 
ROOT
HETATM    1  C   UNL     1     -10.238   0.788 -33.223  1.00  0.00     0.069 A 
HETATM    2  N   UNL     1     -11.315  -0.062 -33.138  1.00  0.00    -0.277 N 
HETATM    3  H   UNL     1     -11.323  -1.034 -32.840  1.00  0.00     0.189 HD
HETATM    4  N   UNL     1     -12.476   0.511 -33.485  1.00  0.00    -0.186 NA
HETATM    5  C   UNL     1     -12.149   1.772 -33.749  1.00  0.00     0.149 A 
HETATM    6  C   UNL     1     -10.759   2.005 -33.644  1.00  0.00     0.016 A 
ENDROOT
BRANCH   6   7
HETATM    7  C   UNL     1     -10.056   3.283 -33.913  1.00  0.00     0.277 C 
BRANCH   7   8
HETATM    8  N   UNL     1      -9.309   3.836 -32.729  1.00  0.00    -0.061 N 
HETATM    9  H   UNL     1      -9.025   3.011 -32.165  1.00  0.00     0.280 HD
BRANCH   8  10
HETATM   10  C   UNL     1      -8.010   4.529 -33.054  1.00  0.00     0.273 C 
BRANCH  10  11
HETATM   11  C   UNL     1      -6.770   3.917 -32.454  1.00  0.00    -0.033 A 
HETATM   12  C   UNL     1      -6.506   3.988 -31.078  1.00  0.00     0.009 A 
HETATM   13  C   UNL     1      -5.339   3.433 -30.548  1.00  0.00     0.001 A 
HETATM   14  C   UNL     1      -4.429   2.790 -31.383  1.00  0.00     0.000 A 
HETATM   15  C   UNL     1      -4.687   2.692 -32.746  1.00  0.00     0.001 A 
HETATM   16  C   UNL     1      -5.852   3.246 -33.279  1.00  0.00     0.009 A 
ENDBRANCH  10  11
ENDBRANCH   8  10
BRANCH   8  17
HETATM   17  C   UNL     1     -10.200   4.590 -31.758  1.00  0.00     0.261 C 
BRANCH  17  18
HETATM   18  C   UNL     1     -10.171   3.849 -30.416  1.00  0.00     0.192 C 
BRANCH  18  19
HETATM   19  O   UNL     1     -11.533   3.620 -30.045  1.00  0.00    -0.399 OA
HETATM   20  H   UNL     1     -11.862   4.430 -29.604  1.00  0.00     0.209 HD
ENDBRANCH  18  19
ENDBRANCH  17  18
ENDBRANCH   8  17
ENDBRANCH   7   8
ENDBRANCH   6   7
BRANCH   1  21
HETATM   21  C   UNL     1      -8.891   0.370 -32.865  1.00  0.00    -0.007 A 
HETATM   22  C   UNL     1      -8.088  -0.308 -33.790  1.00  0.00     0.021 A 
HETATM   23  C   UNL     1      -6.790  -0.726 -33.455  1.00  0.00    -0.055 A 
HETATM   24  C   UNL     1      -6.293  -0.470 -32.161  1.00  0.00    -0.056 A 
HETATM   25  C   UNL     1      -5.976  -1.480 -34.473  1.00  0.00     0.049 C 
HETATM   26  C   UNL     1      -4.908  -0.894 -31.748  1.00  0.00     0.049 C 
HETATM   27  C   UNL     1      -7.100   0.215 -31.241  1.00  0.00     0.008 A 
HETATM   28  C   UNL     1      -8.389   0.626 -31.587  1.00  0.00     0.014 A 
ENDBRANCH   1  21
TORSDOF 8
ENDMDL
MODEL 9
REMARK VINA RESULT:      -6.5      3.079      6.581
REMARK  8 active torsions:
REMARK  status: ('A' for Active; 'I' for Inactive)
REMARK    1  A    between atoms: C_6  and  C_7 
REMARK    2  A    between atoms: C_12  and  C_13 
REMARK    3  A    between atoms: C_13  and  N_14 
REMARK    4  A    between atoms: N_14  and  C_16 
REMARK    5  A    between atoms: N_14  and  C_23 
REMARK    6  A    between atoms: C_16  and  C_17 
REMARK    7  A    between atoms: C_23  and  C_24 
REMARK    8  A    between atoms: C_24  and  O_25 
ROOT
HETATM    1  C   UNL     1      -7.624  -0.029 -33.593  1.00  0.00     0.069 A 
HETATM    2  N   UNL     1      -8.945  -0.276 -33.302  1.00  0.00    -0.277 N 
HETATM    3  H   UNL     1      -9.402  -1.176 -33.184  1.00  0.00     0.189 HD
HETATM    4  N   UNL     1      -9.675   0.838 -33.146  1.00  0.00    -0.186 NA
HETATM    5  C   UNL     1      -8.795   1.824 -33.289  1.00  0.00     0.149 A 
HETATM    6  C   UNL     1      -7.501   1.355 -33.610  1.00  0.00     0.016 A 
ENDROOT
BRANCH   6   7
HETATM    7  C   UNL     1      -6.302   2.186 -33.878  1.00  0.00     0.277 C 
BRANCH   7   8
HETATM    8  N   UNL     1      -5.570   2.628 -32.639  1.00  0.00    -0.061 N 
HETATM    9  H   UNL     1      -4.634   2.181 -32.692  1.00  0.00     0.280 HD
BRANCH   8  10
HETATM   10  C   UNL     1      -5.274   4.104 -32.559  1.00  0.00     0.273 C 
BRANCH  10  11
HETATM   11  C   UNL     1      -3.930   4.535 -33.087  1.00  0.00    -0.033 A 
HETATM   12  C   UNL     1      -2.767   4.436 -32.309  1.00  0.00     0.009 A 
HETATM   13  C   UNL     1      -1.536   4.863 -32.811  1.00  0.00     0.001 A 
HETATM   14  C   UNL     1      -1.449   5.382 -34.101  1.00  0.00     0.000 A 
HETATM   15  C   UNL     1      -2.589   5.466 -34.893  1.00  0.00     0.001 A 
HETATM   16  C   UNL     1      -3.821   5.041 -34.393  1.00  0.00     0.009 A 
ENDBRANCH  10  11
ENDBRANCH   8  10
BRANCH   8  17
HETATM   17  C   UNL     1      -6.135   2.027 -31.364  1.00  0.00     0.261 C 
BRANCH  17  18
HETATM   18  C   UNL     1      -6.393   3.172 -30.377  1.00  0.00     0.192 C 
BRANCH  18  19
HETATM   19  O   UNL     1      -7.145   2.615 -29.294  1.00  0.00    -0.399 OA
HETATM   20  H   UNL     1      -6.510   2.222 -28.661  1.00  0.00     0.209 HD
ENDBRANCH  18  19
ENDBRANCH  17  18
ENDBRANCH   8  17
ENDBRANCH   7   8
ENDBRANCH   6   7
BRANCH   1  21
HETATM   21  C   UNL     1      -6.658  -1.101 -33.772  1.00  0.00    -0.007 A 
HETATM   22  C   UNL     1      -6.997  -2.250 -34.498  1.00  0.00     0.021 A 
HETATM   23  C   UNL     1      -6.077  -3.297 -34.671  1.00  0.00    -0.055 A 
HETATM   24  C   UNL     1      -4.796  -3.195 -34.093  1.00  0.00    -0.056 A 
HETATM   25  C   UNL     1      -6.499  -4.526 -35.433  1.00  0.00     0.049 C 
HETATM   26  C   UNL     1      -3.770  -4.286 -34.249  1.00  0.00     0.049 C 
HETATM   27  C   UNL     1      -4.460  -2.040 -33.373  1.00  0.00     0.008 A 
HETATM   28  C   UNL     1      -5.384  -1.005 -33.209  1.00  0.00     0.014 A 
ENDBRANCH   1  21
TORSDOF 8
ENDMDL
MODEL 10
REMARK VINA RESULT:      -6.4      4.598      7.998
REMARK  8 active torsions:
REMARK  status: ('A' for Active; 'I' for Inactive)
REMARK    1  A    between atoms: C_6  and  C_7 
REMARK    2  A    between atoms: C_12  and  C_13 
REMARK    3  A    between atoms: C_13  and  N_14 
REMARK    4  A    between atoms: N_14  and  C_16 
REMARK    5  A    between atoms: N_14  and  C_23 
REMARK    6  A    between atoms: C_16  and  C_17 
REMARK    7  A    between atoms: C_23  and  C_24 
REMARK    8  A    between atoms: C_24  and  O_25 
ROOT
HETATM    1  C   UNL     1      -5.400   2.547 -31.554  1.00  0.00     0.069 A 
HETATM    2  N   UNL     1      -6.435   3.032 -30.790  1.00  0.00    -0.277 N 
HETATM    3  H   UNL     1      -7.363   2.635 -30.669  1.00  0.00     0.189 HD
HETATM    4  N   UNL     1      -6.129   4.157 -30.129  1.00  0.00    -0.186 NA
HETATM    5  C   UNL     1      -4.853   4.374 -30.433  1.00  0.00     0.149 A 
HETATM    6  C   UNL     1      -4.345   3.428 -31.352  1.00  0.00     0.016 A 
ENDROOT
BRANCH   6   7
HETATM    7  C   UNL     1      -2.980   3.404 -31.931  1.00  0.00     0.277 C 
BRANCH   7   8
HETATM    8  N   UNL     1      -2.474   4.752 -32.369  1.00  0.00    -0.061 N 
HETATM    9  H   UNL     1      -2.878   5.436 -31.700  1.00  0.00     0.280 HD
BRANCH   8  10
HETATM   10  C   UNL     1      -0.984   4.951 -32.249  1.00  0.00     0.273 C 
BRANCH  10  11
HETATM   11  C   UNL     1      -0.514   5.664 -31.007  1.00  0.00    -0.033 A 
HETATM   12  C   UNL     1      -0.773   7.027 -30.798  1.00  0.00     0.009 A 
HETATM   13  C   UNL     1      -0.309   7.673 -29.650  1.00  0.00     0.001 A 
HETATM   14  C   UNL     1       0.411   6.963 -28.692  1.00  0.00     0.000 A 
HETATM   15  C   UNL     1       0.658   5.606 -28.874  1.00  0.00     0.001 A 
HETATM   16  C   UNL     1       0.195   4.958 -30.021  1.00  0.00     0.009 A 
ENDBRANCH  10  11
ENDBRANCH   8  10
BRANCH   8  17
HETATM   17  C   UNL     1      -3.067   5.214 -33.688  1.00  0.00     0.261 C 
BRANCH  17  18
HETATM   18  C   UNL     1      -1.946   5.862 -34.510  1.00  0.00     0.192 C 
BRANCH  18  19
HETATM   19  O   UNL     1      -2.210   7.268 -34.523  1.00  0.00    -0.399 OA
HETATM   20  H   UNL     1      -2.363   7.552 -33.599  1.00  0.00     0.209 HD
ENDBRANCH  18  19
ENDBRANCH  17  18
ENDBRANCH   8  17
ENDBRANCH   7   8
ENDBRANCH   6   7
BRANCH   1  21
HETATM   21  C   UNL     1      -5.518   1.320 -32.327  1.00  0.00    -0.007 A 
HETATM   22  C   UNL     1      -6.297   1.284 -33.489  1.00  0.00     0.021 A 
HETATM   23  C   UNL     1      -6.428   0.105 -34.241  1.00  0.00    -0.055 A 
HETATM   24  C   UNL     1      -5.773  -1.066 -33.808  1.00  0.00    -0.056 A 
HETATM   25  C   UNL     1      -7.303   0.108 -35.466  1.00  0.00     0.049 C 
HETATM   26  C   UNL     1      -5.877  -2.358 -34.575  1.00  0.00     0.049 C 
HETATM   27  C   UNL     1      -4.989  -1.023 -32.646  1.00  0.00     0.008 A 
HETATM   28  C   UNL     1      -4.867   0.157 -31.910  1.00  0.00     0.014 A 
ENDBRANCH   1  21
TORSDOF 8
ENDMDL
