MODEL 1
REMARK VINA RESULT:      -9.5      0.000      0.000
REMARK  3 active torsions:
REMARK  status: ('A' for Active; 'I' for Inactive)
REMARK    1  A    between atoms: C_4  and  C_5 
REMARK    2  A    between atoms: C_11  and  C_12 
REMARK    3  A    between atoms: C_21  and  N_22 
ROOT
HETATM    1  C   UNL     1      -3.902  -1.929 -32.757  1.00  0.00     0.098 A 
HETATM    2  N   UNL     1      -2.829  -2.443 -32.122  1.00  0.00    -0.172 NA
HETATM    3  N   UNL     1      -2.303  -1.410 -31.440  1.00  0.00    -0.256 N 
HETATM    4  H   UNL     1      -1.467  -1.562 -30.888  1.00  0.00     0.191 HD
HETATM    5  C   UNL     1      -3.000  -0.262 -31.612  1.00  0.00     0.175 A 
HETATM    6  C   UNL     1      -4.062  -0.554 -32.426  1.00  0.00     0.036 A 
HETATM    7  C   UNL     1      -5.086   0.507 -32.729  1.00  0.00     0.077 C 
HETATM    8  C   UNL     1      -4.480   1.879 -32.366  1.00  0.00     0.076 C 
HETATM    9  C   UNL     1      -5.003   3.029 -33.029  1.00  0.00     0.100 C 
HETATM   10  N   UNL     1      -5.371   3.966 -33.605  1.00  0.00    -0.192 NA
HETATM   11  C   UNL     1      -3.379   2.019 -31.573  1.00  0.00     0.140 C 
HETATM   12  O   UNL     1      -2.679   0.907 -31.074  1.00  0.00    -0.279 OA
ENDROOT
BRANCH   7  13
HETATM   13  C   UNL     1      -6.448   0.133 -32.041  1.00  0.00     0.003 C 
HETATM   14  C   UNL     1      -6.574   0.586 -30.571  1.00  0.00     0.032 C 
HETATM   15  C   UNL     1      -7.172   1.946 -30.395  1.00  0.00    -0.030 C 
HETATM   16  C   UNL     1      -7.923   2.540 -31.330  1.00  0.00    -0.031 C 
HETATM   17  C   UNL     1      -8.264   1.914 -32.646  1.00  0.00     0.027 C 
HETATM   18  C   UNL     1      -7.710   0.501 -32.849  1.00  0.00     0.009 C 
ENDBRANCH   7  13
BRANCH  11  19
HETATM   19  N   UNL     1      -2.789   3.212 -31.217  1.00  0.00    -0.282 NA
HETATM   20  H   UNL     1      -3.177   3.669 -30.395  1.00  0.00     0.126 HD
HETATM   21  H   UNL     1      -2.683   3.837 -32.010  1.00  0.00     0.126 HD
ENDBRANCH  11  19
BRANCH   1  22
HETATM   22  C   UNL     1      -4.733  -2.773 -33.614  1.00  0.00    -0.005 A 
HETATM   23  C   UNL     1      -4.372  -4.109 -33.841  1.00  0.00     0.014 A 
HETATM   24  C   UNL     1      -5.158  -4.930 -34.653  1.00  0.00     0.001 A 
HETATM   25  C   UNL     1      -6.309  -4.421 -35.251  1.00  0.00     0.000 A 
HETATM   26  C   UNL     1      -6.671  -3.091 -35.043  1.00  0.00     0.001 A 
HETATM   27  C   UNL     1      -5.885  -2.269 -34.231  1.00  0.00     0.014 A 
ENDBRANCH   1  22
TORSDOF 3
ENDMDL
MODEL 2
REMARK VINA RESULT:      -9.2      1.383      5.088
REMARK  3 active torsions:
REMARK  status: ('A' for Active; 'I' for Inactive)
REMARK    1  A    between atoms: C_4  and  C_5 
REMARK    2  A    between atoms: C_11  and  C_12 
REMARK    3  A    between atoms: C_21  and  N_22 
ROOT
HETATM    1  C   UNL     1      -6.165   1.312 -32.430  1.00  0.00     0.098 A 
HETATM    2  N   UNL     1      -5.763   2.570 -32.154  1.00  0.00    -0.172 NA
HETATM    3  N   UNL     1      -4.443   2.466 -31.915  1.00  0.00    -0.256 N 
HETATM    4  H   UNL     1      -3.922   3.301 -31.671  1.00  0.00     0.191 HD
HETATM    5  C   UNL     1      -3.989   1.196 -32.032  1.00  0.00     0.175 A 
HETATM    6  C   UNL     1      -5.056   0.420 -32.397  1.00  0.00     0.036 A 
HETATM    7  C   UNL     1      -4.850  -1.040 -32.700  1.00  0.00     0.077 C 
HETATM    8  C   UNL     1      -3.485  -1.465 -32.118  1.00  0.00     0.076 C 
HETATM    9  C   UNL     1      -3.300  -2.843 -31.803  1.00  0.00     0.100 C 
HETATM   10  N   UNL     1      -3.155  -3.948 -31.480  1.00  0.00    -0.192 NA
HETATM   11  C   UNL     1      -2.523  -0.570 -31.749  1.00  0.00     0.140 C 
HETATM   12  O   UNL     1      -2.735   0.818 -31.821  1.00  0.00    -0.279 OA
ENDROOT
BRANCH   7  13
HETATM   13  C   UNL     1      -5.072  -1.294 -34.235  1.00  0.00     0.003 C 
HETATM   14  C   UNL     1      -4.211  -2.427 -34.832  1.00  0.00     0.032 C 
HETATM   15  C   UNL     1      -4.856  -3.776 -34.794  1.00  0.00    -0.030 C 
HETATM   16  C   UNL     1      -6.178  -3.951 -34.676  1.00  0.00    -0.031 C 
HETATM   17  C   UNL     1      -7.161  -2.827 -34.585  1.00  0.00     0.027 C 
HETATM   18  C   UNL     1      -6.547  -1.427 -34.667  1.00  0.00     0.009 C 
ENDBRANCH   7  13
BRANCH  11  19
HETATM   19  N   UNL     1      -1.291  -0.884 -31.221  1.00  0.00    -0.282 NA
HETATM   20  H   UNL     1      -0.793  -1.642 -31.682  1.00  0.00     0.126 HD
HETATM   21  H   UNL     1      -1.320  -0.980 -30.211  1.00  0.00     0.126 HD
ENDBRANCH  11  19
BRANCH   1  22
HETATM   22  C   UNL     1      -7.566   1.031 -32.738  1.00  0.00    -0.005 A 
HETATM   23  C   UNL     1      -8.317   0.205 -31.890  1.00  0.00     0.014 A 
HETATM   24  C   UNL     1      -9.658  -0.069 -32.168  1.00  0.00     0.001 A 
HETATM   25  C   UNL     1     -10.259   0.477 -33.301  1.00  0.00     0.000 A 
HETATM   26  C   UNL     1      -9.519   1.290 -34.158  1.00  0.00     0.001 A 
HETATM   27  C   UNL     1      -8.177   1.563 -33.880  1.00  0.00     0.014 A 
ENDBRANCH   1  22
TORSDOF 3
ENDMDL
MODEL 3
REMARK VINA RESULT:      -8.6      3.180      6.797
REMARK  3 active torsions:
REMARK  status: ('A' for Active; 'I' for Inactive)
REMARK    1  A    between atoms: C_4  and  C_5 
REMARK    2  A    between atoms: C_11  and  C_12 
REMARK    3  A    between atoms: C_21  and  N_22 
ROOT
HETATM    1  C   UNL     1      -5.441   4.813 -33.761  1.00  0.00     0.098 A 
HETATM    2  N   UNL     1      -6.259   5.886 -33.748  1.00  0.00    -0.172 NA
HETATM    3  N   UNL     1      -7.502   5.374 -33.802  1.00  0.00    -0.256 N 
HETATM    4  H   UNL     1      -8.293   6.008 -33.814  1.00  0.00     0.191 HD
HETATM    5  C   UNL     1      -7.509   4.021 -33.845  1.00  0.00     0.175 A 
HETATM    6  C   UNL     1      -6.204   3.611 -33.785  1.00  0.00     0.036 A 
HETATM    7  C   UNL     1      -5.884   2.141 -33.717  1.00  0.00     0.077 C 
HETATM    8  C   UNL     1      -7.138   1.355 -34.156  1.00  0.00     0.076 C 
HETATM    9  C   UNL     1      -6.947   0.042 -34.677  1.00  0.00     0.100 C 
HETATM   10  N   UNL     1      -6.803  -1.001 -35.165  1.00  0.00    -0.192 NA
HETATM   11  C   UNL     1      -8.382   1.912 -34.213  1.00  0.00     0.140 C 
HETATM   12  O   UNL     1      -8.599   3.271 -33.930  1.00  0.00    -0.279 OA
ENDROOT
BRANCH   7  13
HETATM   13  C   UNL     1      -5.295   1.797 -32.302  1.00  0.00     0.003 C 
HETATM   14  C   UNL     1      -6.164   0.844 -31.455  1.00  0.00     0.032 C 
HETATM   15  C   UNL     1      -5.846  -0.606 -31.638  1.00  0.00    -0.030 C 
HETATM   16  C   UNL     1      -4.676  -1.042 -32.121  1.00  0.00    -0.031 C 
HETATM   17  C   UNL     1      -3.551  -0.139 -32.516  1.00  0.00     0.027 C 
HETATM   18  C   UNL     1      -3.817   1.353 -32.301  1.00  0.00     0.009 C 
ENDBRANCH   7  13
BRANCH  11  19
HETATM   19  N   UNL     1      -9.536   1.267 -34.598  1.00  0.00    -0.282 NA
HETATM   20  H   UNL     1     -10.320   1.869 -34.841  1.00  0.00     0.126 HD
HETATM   21  H   UNL     1      -9.789   0.520 -33.959  1.00  0.00     0.126 HD
ENDBRANCH  11  19
BRANCH   1  22
HETATM   22  C   UNL     1      -3.991   4.984 -33.719  1.00  0.00    -0.005 A 
HETATM   23  C   UNL     1      -3.275   5.189 -34.908  1.00  0.00     0.014 A 
HETATM   24  C   UNL     1      -1.890   5.359 -34.883  1.00  0.00     0.001 A 
HETATM   25  C   UNL     1      -1.205   5.321 -33.670  1.00  0.00     0.000 A 
HETATM   26  C   UNL     1      -1.903   5.106 -32.483  1.00  0.00     0.001 A 
HETATM   27  C   UNL     1      -3.290   4.935 -32.507  1.00  0.00     0.014 A 
ENDBRANCH   1  22
TORSDOF 3
ENDMDL
MODEL 4
REMARK VINA RESULT:      -8.6      3.236      6.034
REMARK  3 active torsions:
REMARK  status: ('A' for Active; 'I' for Inactive)
REMARK    1  A    between atoms: C_4  and  C_5 
REMARK    2  A    between atoms: C_11  and  C_12 
REMARK    3  A    between atoms: C_21  and  N_22 
ROOT
HETATM    1  C   UNL     1      -4.752   3.931 -31.854  1.00  0.00     0.098 A 
HETATM    2  N   UNL     1      -4.390   4.083 -30.563  1.00  0.00    -0.172 NA
HETATM    3  N   UNL     1      -5.404   3.553 -29.855  1.00  0.00    -0.256 N 
HETATM    4  H   UNL     1      -5.355   3.565 -28.843  1.00  0.00     0.191 HD
HETATM    5  C   UNL     1      -6.393   3.067 -30.642  1.00  0.00     0.175 A 
HETATM    6  C   UNL     1      -6.002   3.256 -31.941  1.00  0.00     0.036 A 
HETATM    7  C   UNL     1      -6.856   2.729 -33.064  1.00  0.00     0.077 C 
HETATM    8  C   UNL     1      -8.260   2.425 -32.499  1.00  0.00     0.076 C 
HETATM    9  C   UNL     1      -9.356   2.432 -33.411  1.00  0.00     0.100 C 
HETATM   10  N   UNL     1     -10.267   2.499 -34.126  1.00  0.00    -0.192 NA
HETATM   11  C   UNL     1      -8.514   2.308 -31.163  1.00  0.00     0.140 C 
HETATM   12  O   UNL     1      -7.515   2.518 -30.197  1.00  0.00    -0.279 OA
ENDROOT
BRANCH   7  13
HETATM   13  C   UNL     1      -6.111   1.545 -33.778  1.00  0.00     0.003 C 
HETATM   14  C   UNL     1      -5.702   0.385 -32.847  1.00  0.00     0.032 C 
HETATM   15  C   UNL     1      -6.728  -0.696 -32.723  1.00  0.00    -0.030 C 
HETATM   16  C   UNL     1      -7.696  -0.893 -33.627  1.00  0.00    -0.031 C 
HETATM   17  C   UNL     1      -7.855  -0.070 -34.866  1.00  0.00     0.027 C 
HETATM   18  C   UNL     1      -6.797   1.020 -35.056  1.00  0.00     0.009 C 
ENDBRANCH   7  13
BRANCH  11  19
HETATM   19  N   UNL     1      -9.742   2.043 -30.598  1.00  0.00    -0.282 NA
HETATM   20  H   UNL     1     -10.245   2.849 -30.234  1.00  0.00     0.126 HD
HETATM   21  H   UNL     1      -9.702   1.267 -29.943  1.00  0.00     0.126 HD
ENDBRANCH  11  19
BRANCH   1  22
HETATM   22  C   UNL     1      -3.882   4.405 -32.929  1.00  0.00    -0.005 A 
HETATM   23  C   UNL     1      -2.491   4.398 -32.757  1.00  0.00     0.014 A 
HETATM   24  C   UNL     1      -1.646   4.842 -33.777  1.00  0.00     0.001 A 
HETATM   25  C   UNL     1      -2.186   5.301 -34.977  1.00  0.00     0.000 A 
HETATM   26  C   UNL     1      -3.568   5.324 -35.155  1.00  0.00     0.001 A 
HETATM   27  C   UNL     1      -4.413   4.881 -34.134  1.00  0.00     0.014 A 
ENDBRANCH   1  22
TORSDOF 3
ENDMDL
MODEL 5
REMARK VINA RESULT:      -8.4      2.285      3.159
REMARK  3 active torsions:
REMARK  status: ('A' for Active; 'I' for Inactive)
REMARK    1  A    between atoms: C_4  and  C_5 
REMARK    2  A    between atoms: C_11  and  C_12 
REMARK    3  A    between atoms: C_21  and  N_22 
ROOT
HETATM    1  C   UNL     1      -5.925   0.172 -31.538  1.00  0.00     0.098 A 
HETATM    2  N   UNL     1      -6.514  -0.187 -30.379  1.00  0.00    -0.172 NA
HETATM    3  N   UNL     1      -6.478   0.920 -29.616  1.00  0.00    -0.256 N 
HETATM    4  H   UNL     1      -6.861   0.882 -28.678  1.00  0.00     0.191 HD
HETATM    5  C   UNL     1      -5.894   1.968 -30.243  1.00  0.00     0.175 A 
HETATM    6  C   UNL     1      -5.552   1.545 -31.500  1.00  0.00     0.036 A 
HETATM    7  C   UNL     1      -4.963   2.520 -32.484  1.00  0.00     0.077 C 
HETATM    8  C   UNL     1      -4.472   3.756 -31.701  1.00  0.00     0.076 C 
HETATM    9  C   UNL     1      -3.439   4.544 -32.289  1.00  0.00     0.100 C 
HETATM   10  N   UNL     1      -2.555   5.158 -32.721  1.00  0.00    -0.192 NA
HETATM   11  C   UNL     1      -4.864   4.031 -30.423  1.00  0.00     0.140 C 
HETATM   12  O   UNL     1      -5.706   3.165 -29.704  1.00  0.00    -0.279 OA
ENDROOT
BRANCH   7  13
HETATM   13  C   UNL     1      -5.991   2.782 -33.643  1.00  0.00     0.003 C 
HETATM   14  C   UNL     1      -7.454   2.435 -33.297  1.00  0.00     0.032 C 
HETATM   15  C   UNL     1      -8.235   3.572 -32.717  1.00  0.00    -0.030 C 
HETATM   16  C   UNL     1      -7.885   4.854 -32.872  1.00  0.00    -0.031 C 
HETATM   17  C   UNL     1      -6.690   5.301 -33.653  1.00  0.00     0.027 C 
HETATM   18  C   UNL     1      -5.887   4.171 -34.305  1.00  0.00     0.009 C 
ENDBRANCH   7  13
BRANCH  11  19
HETATM   19  N   UNL     1      -4.460   5.112 -29.671  1.00  0.00    -0.282 NA
HETATM   20  H   UNL     1      -4.314   4.932 -28.680  1.00  0.00     0.126 HD
HETATM   21  H   UNL     1      -5.027   5.935 -29.849  1.00  0.00     0.126 HD
ENDBRANCH  11  19
BRANCH   1  22
HETATM   22  C   UNL     1      -5.778  -0.794 -32.626  1.00  0.00    -0.005 A 
HETATM   23  C   UNL     1      -4.534  -1.399 -32.861  1.00  0.00     0.014 A 
HETATM   24  C   UNL     1      -4.379  -2.327 -33.892  1.00  0.00     0.001 A 
HETATM   25  C   UNL     1      -5.464  -2.656 -34.702  1.00  0.00     0.000 A 
HETATM   26  C   UNL     1      -6.701  -2.053 -34.486  1.00  0.00     0.001 A 
HETATM   27  C   UNL     1      -6.858  -1.123 -33.455  1.00  0.00     0.014 A 
ENDBRANCH   1  22
TORSDOF 3
ENDMDL
MODEL 6
REMARK VINA RESULT:      -8.2      3.168      4.875
REMARK  3 active torsions:
REMARK  status: ('A' for Active; 'I' for Inactive)
REMARK    1  A    between atoms: C_4  and  C_5 
REMARK    2  A    between atoms: C_11  and  C_12 
REMARK    3  A    between atoms: C_21  and  N_22 
ROOT
HETATM    1  C   UNL     1      -8.037   0.248 -32.734  1.00  0.00     0.098 A 
HETATM    2  N   UNL     1      -9.310  -0.158 -32.916  1.00  0.00    -0.172 NA
HETATM    3  N   UNL     1     -10.066   0.834 -32.412  1.00  0.00    -0.256 N 
HETATM    4  H   UNL     1     -11.075   0.740 -32.430  1.00  0.00     0.191 HD
HETATM    5  C   UNL     1      -9.326   1.856 -31.921  1.00  0.00     0.175 A 
HETATM    6  C   UNL     1      -8.011   1.541 -32.138  1.00  0.00     0.036 A 
HETATM    7  C   UNL     1      -6.935   2.533 -31.784  1.00  0.00     0.077 C 
HETATM    8  C   UNL     1      -7.545   3.586 -30.834  1.00  0.00     0.076 C 
HETATM    9  C   UNL     1      -6.658   4.285 -29.964  1.00  0.00     0.100 C 
HETATM   10  N   UNL     1      -5.960   4.815 -29.204  1.00  0.00    -0.192 NA
HETATM   11  C   UNL     1      -8.890   3.760 -30.683  1.00  0.00     0.140 C 
HETATM   12  O   UNL     1      -9.822   2.942 -31.344  1.00  0.00    -0.279 OA
ENDROOT
BRANCH   7  13
HETATM   13  C   UNL     1      -6.266   3.072 -33.099  1.00  0.00     0.003 C 
HETATM   14  C   UNL     1      -6.995   4.265 -33.751  1.00  0.00     0.032 C 
HETATM   15  C   UNL     1      -6.521   5.606 -33.285  1.00  0.00    -0.030 C 
HETATM   16  C   UNL     1      -5.326   5.801 -32.716  1.00  0.00    -0.031 C 
HETATM   17  C   UNL     1      -4.323   4.714 -32.494  1.00  0.00     0.027 C 
HETATM   18  C   UNL     1      -4.749   3.332 -32.999  1.00  0.00     0.009 C 
ENDBRANCH   7  13
BRANCH  11  19
HETATM   19  N   UNL     1      -9.495   4.676 -29.851  1.00  0.00    -0.282 NA
HETATM   20  H   UNL     1      -9.505   4.437 -28.862  1.00  0.00     0.126 HD
HETATM   21  H   UNL     1     -10.401   4.971 -30.201  1.00  0.00     0.126 HD
ENDBRANCH  11  19
BRANCH   1  22
HETATM   22  C   UNL     1      -6.921  -0.593 -33.161  1.00  0.00    -0.005 A 
HETATM   23  C   UNL     1      -7.050  -1.403 -34.298  1.00  0.00     0.014 A 
HETATM   24  C   UNL     1      -5.991  -2.208 -34.722  1.00  0.00     0.001 A 
HETATM   25  C   UNL     1      -4.793  -2.214 -34.010  1.00  0.00     0.000 A 
HETATM   26  C   UNL     1      -4.656  -1.422 -32.872  1.00  0.00     0.001 A 
HETATM   27  C   UNL     1      -5.716  -0.617 -32.446  1.00  0.00     0.014 A 
ENDBRANCH   1  22
TORSDOF 3
ENDMDL
MODEL 7
REMARK VINA RESULT:      -8.2      1.638      2.209
REMARK  3 active torsions:
REMARK  status: ('A' for Active; 'I' for Inactive)
REMARK    1  A    between atoms: C_4  and  C_5 
REMARK    2  A    between atoms: C_11  and  C_12 
REMARK    3  A    between atoms: C_21  and  N_22 
ROOT
HETATM    1  C   UNL     1      -4.639  -0.011 -32.933  1.00  0.00     0.098 A 
HETATM    2  N   UNL     1      -3.428  -0.055 -32.342  1.00  0.00    -0.172 NA
HETATM    3  N   UNL     1      -3.249   1.176 -31.829  1.00  0.00    -0.256 N 
HETATM    4  H   UNL     1      -2.386   1.383 -31.339  1.00  0.00     0.191 HD
HETATM    5  C   UNL     1      -4.299   1.998 -32.066  1.00  0.00     0.175 A 
HETATM    6  C   UNL     1      -5.236   1.267 -32.745  1.00  0.00     0.036 A 
HETATM    7  C   UNL     1      -6.571   1.882 -33.073  1.00  0.00     0.077 C 
HETATM    8  C   UNL     1      -6.446   3.413 -32.921  1.00  0.00     0.076 C 
HETATM    9  C   UNL     1      -7.355   4.227 -33.658  1.00  0.00     0.100 C 
HETATM   10  N   UNL     1      -8.042   4.905 -34.302  1.00  0.00    -0.192 NA
HETATM   11  C   UNL     1      -5.420   4.012 -32.249  1.00  0.00     0.140 C 
HETATM   12  O   UNL     1      -4.365   3.269 -31.693  1.00  0.00    -0.279 OA
ENDROOT
BRANCH   7  13
HETATM   13  C   UNL     1      -7.694   1.179 -32.229  1.00  0.00     0.003 C 
HETATM   14  C   UNL     1      -7.955   1.812 -30.846  1.00  0.00     0.032 C 
HETATM   15  C   UNL     1      -9.003   2.880 -30.846  1.00  0.00    -0.030 C 
HETATM   16  C   UNL     1      -9.932   2.993 -31.803  1.00  0.00    -0.031 C 
HETATM   17  C   UNL     1     -10.041   2.062 -32.970  1.00  0.00     0.027 C 
HETATM   18  C   UNL     1      -9.015   0.925 -32.985  1.00  0.00     0.009 C 
ENDBRANCH   7  13
BRANCH  11  19
HETATM   19  N   UNL     1      -5.250   5.368 -32.082  1.00  0.00    -0.282 NA
HETATM   20  H   UNL     1      -5.387   5.937 -32.915  1.00  0.00     0.126 HD
HETATM   21  H   UNL     1      -4.394   5.588 -31.583  1.00  0.00     0.126 HD
ENDBRANCH  11  19
BRANCH   1  22
HETATM   22  C   UNL     1      -5.176  -1.189 -33.614  1.00  0.00    -0.005 A 
HETATM   23  C   UNL     1      -4.362  -2.313 -33.813  1.00  0.00     0.014 A 
HETATM   24  C   UNL     1      -4.861  -3.447 -34.456  1.00  0.00     0.001 A 
HETATM   25  C   UNL     1      -6.178  -3.466 -34.912  1.00  0.00     0.000 A 
HETATM   26  C   UNL     1      -6.993  -2.350 -34.730  1.00  0.00     0.001 A 
HETATM   27  C   UNL     1      -6.494  -1.214 -34.087  1.00  0.00     0.014 A 
ENDBRANCH   1  22
TORSDOF 3
ENDMDL
MODEL 8
REMARK VINA RESULT:      -8.0      1.943      3.088
REMARK  3 active torsions:
REMARK  status: ('A' for Active; 'I' for Inactive)
REMARK    1  A    between atoms: C_4  and  C_5 
REMARK    2  A    between atoms: C_11  and  C_12 
REMARK    3  A    between atoms: C_21  and  N_22 
ROOT
HETATM    1  C   UNL     1      -4.695   0.856 -32.939  1.00  0.00     0.098 A 
HETATM    2  N   UNL     1      -3.474   0.993 -32.382  1.00  0.00    -0.172 NA
HETATM    3  N   UNL     1      -3.438   2.262 -31.936  1.00  0.00    -0.256 N 
HETATM    4  H   UNL     1      -2.597   2.599 -31.482  1.00  0.00     0.191 HD
HETATM    5  C   UNL     1      -4.587   2.935 -32.183  1.00  0.00     0.175 A 
HETATM    6  C   UNL     1      -5.441   2.060 -32.797  1.00  0.00     0.036 A 
HETATM    7  C   UNL     1      -6.849   2.488 -33.117  1.00  0.00     0.077 C 
HETATM    8  C   UNL     1      -6.911   4.029 -33.045  1.00  0.00     0.076 C 
HETATM    9  C   UNL     1      -7.930   4.685 -33.795  1.00  0.00     0.100 C 
HETATM   10  N   UNL     1      -8.711   5.239 -34.451  1.00  0.00    -0.192 NA
HETATM   11  C   UNL     1      -5.953   4.784 -32.433  1.00  0.00     0.140 C 
HETATM   12  O   UNL     1      -4.801   4.207 -31.872  1.00  0.00    -0.279 OA
ENDROOT
BRANCH   7  13
HETATM   13  C   UNL     1      -7.857   1.698 -32.207  1.00  0.00     0.003 C 
HETATM   14  C   UNL     1      -8.102   2.326 -30.819  1.00  0.00     0.032 C 
HETATM   15  C   UNL     1      -9.243   3.293 -30.774  1.00  0.00    -0.030 C 
HETATM   16  C   UNL     1     -10.227   3.305 -31.682  1.00  0.00    -0.031 C 
HETATM   17  C   UNL     1     -10.311   2.351 -32.831  1.00  0.00     0.027 C 
HETATM   18  C   UNL     1      -9.186   1.313 -32.889  1.00  0.00     0.009 C 
ENDBRANCH   7  13
BRANCH  11  19
HETATM   19  N   UNL     1      -5.949   6.158 -32.339  1.00  0.00    -0.282 NA
HETATM   20  H   UNL     1      -5.535   6.654 -33.125  1.00  0.00     0.126 HD
HETATM   21  H   UNL     1      -5.608   6.479 -31.438  1.00  0.00     0.126 HD
ENDBRANCH  11  19
BRANCH   1  22
HETATM   22  C   UNL     1      -5.096  -0.412 -33.545  1.00  0.00    -0.005 A 
HETATM   23  C   UNL     1      -6.302  -0.498 -34.255  1.00  0.00     0.014 A 
HETATM   24  C   UNL     1      -6.697  -1.701 -34.844  1.00  0.00     0.001 A 
HETATM   25  C   UNL     1      -5.891  -2.832 -34.724  1.00  0.00     0.000 A 
HETATM   26  C   UNL     1      -4.696  -2.762 -34.011  1.00  0.00     0.001 A 
HETATM   27  C   UNL     1      -4.301  -1.558 -33.421  1.00  0.00     0.014 A 
ENDBRANCH   1  22
TORSDOF 3
ENDMDL
MODEL 9
REMARK VINA RESULT:      -7.7     13.859     15.362
REMARK  3 active torsions:
REMARK  status: ('A' for Active; 'I' for Inactive)
REMARK    1  A    between atoms: C_4  and  C_5 
REMARK    2  A    between atoms: C_11  and  C_12 
REMARK    3  A    between atoms: C_21  and  N_22 
ROOT
HETATM    1  C   UNL     1      -4.062 -13.970 -36.564  1.00  0.00     0.098 A 
HETATM    2  N   UNL     1      -2.784 -13.723 -36.209  1.00  0.00    -0.172 NA
HETATM    3  N   UNL     1      -2.136 -13.522 -37.371  1.00  0.00    -0.256 N 
HETATM    4  H   UNL     1      -1.142 -13.327 -37.350  1.00  0.00     0.191 HD
HETATM    5  C   UNL     1      -2.950 -13.626 -38.448  1.00  0.00     0.175 A 
HETATM    6  C   UNL     1      -4.210 -13.880 -37.977  1.00  0.00     0.036 A 
HETATM    7  C   UNL     1      -5.367 -13.956 -38.937  1.00  0.00     0.077 C 
HETATM    8  C   UNL     1      -4.800 -14.140 -40.361  1.00  0.00     0.076 C 
HETATM    9  C   UNL     1      -5.642 -14.753 -41.334  1.00  0.00     0.100 C 
HETATM   10  N   UNL     1      -6.289 -15.310 -42.120  1.00  0.00    -0.192 NA
HETATM   11  C   UNL     1      -3.497 -13.890 -40.679  1.00  0.00     0.140 C 
HETATM   12  O   UNL     1      -2.558 -13.501 -39.709  1.00  0.00    -0.279 OA
ENDROOT
BRANCH   7  13
HETATM   13  C   UNL     1      -6.319 -12.727 -38.710  1.00  0.00     0.003 C 
HETATM   14  C   UNL     1      -6.879 -12.097 -40.002  1.00  0.00     0.032 C 
HETATM   15  C   UNL     1      -8.182 -12.675 -40.454  1.00  0.00    -0.030 C 
HETATM   16  C   UNL     1      -9.010 -13.340 -39.638  1.00  0.00    -0.031 C 
HETATM   17  C   UNL     1      -8.739 -13.567 -38.184  1.00  0.00     0.027 C 
HETATM   18  C   UNL     1      -7.435 -12.951 -37.668  1.00  0.00     0.009 C 
ENDBRANCH   7  13
BRANCH  11  19
HETATM   19  N   UNL     1      -2.930 -14.038 -41.926  1.00  0.00    -0.282 NA
HETATM   20  H   UNL     1      -2.361 -14.871 -42.057  1.00  0.00     0.126 HD
HETATM   21  H   UNL     1      -2.474 -13.188 -42.242  1.00  0.00     0.126 HD
ENDBRANCH  11  19
BRANCH   1  22
HETATM   22  C   UNL     1      -5.075 -14.246 -35.546  1.00  0.00    -0.005 A 
HETATM   23  C   UNL     1      -5.307 -13.318 -34.521  1.00  0.00     0.014 A 
HETATM   24  C   UNL     1      -6.275 -13.564 -33.545  1.00  0.00     0.001 A 
HETATM   25  C   UNL     1      -7.016 -14.744 -33.581  1.00  0.00     0.000 A 
HETATM   26  C   UNL     1      -6.785 -15.680 -34.588  1.00  0.00     0.001 A 
HETATM   27  C   UNL     1      -5.817 -15.434 -35.565  1.00  0.00     0.014 A 
ENDBRANCH   1  22
TORSDOF 3
ENDMDL
MODEL 10
REMARK VINA RESULT:      -7.7      3.167      4.892
REMARK  3 active torsions:
REMARK  status: ('A' for Active; 'I' for Inactive)
REMARK    1  A    between atoms: C_4  and  C_5 
REMARK    2  A    between atoms: C_11  and  C_12 
REMARK    3  A    between atoms: C_21  and  N_22 
ROOT
HETATM    1  C   UNL     1      -7.388   0.491 -34.043  1.00  0.00     0.098 A 
HETATM    2  N   UNL     1      -8.435   0.264 -34.863  1.00  0.00    -0.172 NA
HETATM    3  N   UNL     1      -9.194   1.371 -34.768  1.00  0.00    -0.256 N 
HETATM    4  H   UNL     1     -10.056   1.421 -35.299  1.00  0.00     0.191 HD
HETATM    5  C   UNL     1      -8.671   2.292 -33.925  1.00  0.00     0.175 A 
HETATM    6  C   UNL     1      -7.488   1.785 -33.460  1.00  0.00     0.036 A 
HETATM    7  C   UNL     1      -6.614   2.624 -32.566  1.00  0.00     0.077 C 
HETATM    8  C   UNL     1      -7.467   3.785 -32.010  1.00  0.00     0.076 C 
HETATM    9  C   UNL     1      -7.057   4.377 -30.780  1.00  0.00     0.100 C 
HETATM   10  N   UNL     1      -6.775   4.827 -29.748  1.00  0.00    -0.192 NA
HETATM   11  C   UNL     1      -8.663   4.154 -32.553  1.00  0.00     0.140 C 
HETATM   12  O   UNL     1      -9.234   3.457 -33.631  1.00  0.00    -0.279 OA
ENDROOT
BRANCH   7  13
HETATM   13  C   UNL     1      -5.302   3.019 -33.335  1.00  0.00     0.003 C 
HETATM   14  C   UNL     1      -5.420   4.289 -34.203  1.00  0.00     0.032 C 
HETATM   15  C   UNL     1      -5.059   5.555 -33.493  1.00  0.00    -0.030 C 
HETATM   16  C   UNL     1      -4.302   5.585 -32.390  1.00  0.00    -0.031 C 
HETATM   17  C   UNL     1      -3.717   4.365 -31.750  1.00  0.00     0.027 C 
HETATM   18  C   UNL     1      -4.024   3.049 -32.471  1.00  0.00     0.009 C 
ENDBRANCH   7  13
BRANCH  11  19
HETATM   19  N   UNL     1      -9.471   5.174 -32.103  1.00  0.00    -0.282 NA
HETATM   20  H   UNL     1      -9.256   5.532 -31.175  1.00  0.00     0.126 HD
HETATM   21  H   UNL     1     -10.457   4.968 -32.233  1.00  0.00     0.126 HD
ENDBRANCH  11  19
BRANCH   1  22
HETATM   22  C   UNL     1      -6.339  -0.515 -33.883  1.00  0.00    -0.005 A 
HETATM   23  C   UNL     1      -5.440  -0.424 -32.812  1.00  0.00     0.014 A 
HETATM   24  C   UNL     1      -4.436  -1.379 -32.642  1.00  0.00     0.001 A 
HETATM   25  C   UNL     1      -4.319  -2.434 -33.546  1.00  0.00     0.000 A 
HETATM   26  C   UNL     1      -5.200  -2.529 -34.622  1.00  0.00     0.001 A 
HETATM   27  C   UNL     1      -6.204  -1.572 -34.793  1.00  0.00     0.014 A 
ENDBRANCH   1  22
TORSDOF 3
ENDMDL
