REMARK  2 active torsions:
REMARK  status: ('A' for Active; 'I' for Inactive)
REMARK    1  A    between atoms: C_2  and  C_3 
REMARK    2  A    between atoms: N_9  and  C_10 
ROOT
HETATM    1  C   UNL     1       1.245   2.670  -0.099  1.00  0.00     0.047 A 
HETATM    2  N   UNL     1       2.541   2.853  -0.545  1.00  0.00    -0.344 N 
HETATM    3  C   UNL     1       3.104   4.099  -0.621  1.00  0.00     0.119 A 
HETATM    4  C   UNL     1       2.446   5.186  -0.185  1.00  0.00     0.123 A 
HETATM    5  C   UNL     1       3.361   6.329  -0.327  1.00  0.00     0.280 A 
HETATM    6  O   UNL     1       3.103   7.476  -0.011  1.00  0.00    -0.265 OA
HETATM    7  N   UNL     1       4.538   5.793  -0.874  1.00  0.00    -0.236 N 
HETATM    8  N   UNL     1       4.367   4.408  -1.091  1.00  0.00    -0.179 NA
HETATM    9  C   UNL     1       1.092   5.068   0.361  1.00  0.00     0.193 A 
HETATM   10  O   UNL     1       0.445   6.011   0.796  1.00  0.00    -0.287 OA
HETATM   11  C   UNL     1       0.504   3.695   0.363  1.00  0.00     0.086 A 
HETATM   12  H   UNL     1       2.968   2.110  -1.089  1.00  0.00     0.167 HD
HETATM   13  H   UNL     1       5.071   3.850  -0.607  1.00  0.00     0.155 HD
ENDROOT
BRANCH   1  14
HETATM   14  C   UNL     1       0.700   1.299  -0.120  1.00  0.00    -0.009 A 
HETATM   15  C   UNL     1      -0.539   1.019  -0.718  1.00  0.00     0.015 A 
HETATM   16  C   UNL     1      -1.040  -0.286  -0.738  1.00  0.00     0.024 A 
HETATM   17  C   UNL     1      -0.305  -1.320  -0.164  1.00  0.00     0.034 A 
HETATM   18  C   UNL     1       0.929  -1.062   0.429  1.00  0.00     0.024 A 
HETATM   19 CL   UNL     1      -0.921  -2.925  -0.189  1.00  0.00    -0.084 Cl
HETATM   20  C   UNL     1       1.429   0.244   0.450  1.00  0.00     0.015 A 
ENDBRANCH   1  14
BRANCH   7  21
HETATM   21  C   UNL     1       5.740   6.437  -1.237  1.00  0.00     0.055 A 
HETATM   22  C   UNL     1       5.951   7.796  -0.957  1.00  0.00     0.034 A 
HETATM   23  C   UNL     1       7.151   8.425  -1.307  1.00  0.00     0.044 A 
HETATM   24  C   UNL     1       8.147   7.699  -1.942  1.00  0.00     0.116 A 
HETATM   25  F   UNL     1       9.296   8.300  -2.276  1.00  0.00    -0.206 F 
HETATM   26  C   UNL     1       7.965   6.356  -2.239  1.00  0.00     0.044 A 
HETATM   27  C   UNL     1       6.765   5.728  -1.888  1.00  0.00     0.034 A 
ENDBRANCH   7  21
TORSDOF 2
