REMARK  5 active torsions:
REMARK  status: ('A' for Active; 'I' for Inactive)
REMARK    1  A    between atoms: C_6  and  O_7 
REMARK    2  A    between atoms: O_7  and  C_8 
REMARK    3  A    between atoms: C_8  and  C_9 
REMARK       I    between atoms: C_9  and  N_10 
REMARK    4  A    between atoms: N_10  and  N_11 
REMARK    5  A    between atoms: C_12  and  C_13 
ROOT
HETATM    1  C   UNL     1       8.946  -1.188  -0.139  1.00  0.00     0.261 C 
HETATM    2  N   UNL     1       9.261   0.156  -0.254  1.00  0.00    -0.246 N 
HETATM    3  O   UNL     1       9.767  -2.102  -0.058  1.00  0.00    -0.269 OA
HETATM    4  H   UNL     1       8.522   0.847  -0.350  1.00  0.00     0.192 HD
ENDROOT
BRANCH   2   5
HETATM    5  N   UNL     1      10.572   0.517  -0.228  1.00  0.00    -0.184 NA
HETATM    6  C   UNL     1      10.855   1.774  -0.301  1.00  0.00     0.152 C 
BRANCH   6   7
HETATM    7  C   UNL     1      12.249   2.175  -0.245  1.00  0.00     0.011 A 
HETATM    8  C   UNL     1      13.424   1.352  -0.149  1.00  0.00     0.004 A 
HETATM    9  C   UNL     1      14.530   2.203  -0.106  1.00  0.00     0.043 A 
HETATM   10  C   UNL     1      13.654  -0.040  -0.091  1.00  0.00     0.014 A 
HETATM   11  C   UNL     1      15.846   1.733  -0.006  1.00  0.00     0.030 A 
HETATM   12  N   UNL     1      14.052   3.490  -0.179  1.00  0.00    -0.364 N 
HETATM   13  C   UNL     1      16.042   0.350   0.050  1.00  0.00     0.002 A 
HETATM   14  C   UNL     1      14.962  -0.527   0.008  1.00  0.00     0.001 A 
HETATM   15  H   UNL     1      14.637   4.315  -0.166  1.00  0.00     0.165 HD
HETATM   16  C   UNL     1      12.684   3.488  -0.264  1.00  0.00     0.102 A 
ENDBRANCH   6   7
ENDBRANCH   2   5
BRANCH   1  17
HETATM   17  C   UNL     1       7.454  -1.477  -0.037  1.00  0.00     0.280 C 
BRANCH  17  18
HETATM   18  O   UNL     1       6.617  -0.379  -0.409  1.00  0.00    -0.340 OA
BRANCH  18  19
HETATM   19  C   UNL     1       5.471  -0.852  -1.008  1.00  0.00     0.092 A 
HETATM   20  C   UNL     1       5.349  -0.777  -2.402  1.00  0.00     0.045 A 
HETATM   21  C   UNL     1       4.232  -1.320  -3.042  1.00  0.00     0.028 A 
HETATM   22 BR   UNL     1       6.698   0.024  -3.470  1.00  0.00    -0.048 Br
HETATM   23  C   UNL     1       3.217  -1.925  -2.294  1.00  0.00    -0.060 A 
HETATM   24  C   UNL     1       2.052  -2.584  -2.974  1.00  0.00     0.048 C 
HETATM   25  C   UNL     1       3.328  -1.964  -0.897  1.00  0.00     0.016 A 
HETATM   26  C   UNL     1       4.434  -1.403  -0.237  1.00  0.00    -0.027 A 
HETATM   27  C   UNL     1       4.491  -1.465   1.263  1.00  0.00     0.051 C 
ENDBRANCH  18  19
ENDBRANCH  17  18
ENDBRANCH   1  17
TORSDOF 5
