REMARK  6 active torsions:
REMARK  status: ('A' for Active; 'I' for Inactive)
REMARK    1  A    between atoms: C_2  and  C_3 
REMARK    2  A    between atoms: C_6  and  N_7 
REMARK    3  A    between atoms: C_8  and  C_10 
REMARK    4  A    between atoms: C_8  and  O_9 
REMARK       I    between atoms: C_10  and  N_11 
REMARK    5  A    between atoms: N_11  and  C_12 
REMARK    6  A    between atoms: C_12  and  C_13 
ROOT
HETATM    1  N   UNL     1       3.371   5.089  -2.578  1.00  0.00    -0.254 N 
HETATM    2  C   UNL     1       4.362   5.678  -3.501  1.00  0.00     0.256 C 
HETATM    3  C   UNL     1       4.189   7.172  -3.721  1.00  0.00     0.034 A 
HETATM    4  C   UNL     1       2.972   7.756  -3.400  1.00  0.00     0.048 A 
HETATM    5  N   UNL     1       1.982   6.972  -2.835  1.00  0.00    -0.308 N 
HETATM    6  C   UNL     1       2.128   5.684  -2.417  1.00  0.00     0.330 C 
HETATM    7  O   UNL     1       1.145   5.165  -1.884  1.00  0.00    -0.246 OA
HETATM    8  C   UNL     1       5.180   7.983  -4.304  1.00  0.00     0.015 A 
HETATM    9  C   UNL     1       4.955   9.345  -4.521  1.00  0.00     0.001 A 
HETATM   10  C   UNL     1       3.727   9.909  -4.186  1.00  0.00     0.002 A 
HETATM   11  C   UNL     1       2.727   9.111  -3.634  1.00  0.00     0.030 A 
HETATM   12  H   UNL     1       1.068   7.363  -2.650  1.00  0.00     0.170 HD
ENDROOT
BRANCH   2  13
HETATM   13  C   UNL     1       5.843   5.426  -2.979  1.00  0.00     0.279 C 
HETATM   14  N   UNL     1       6.090   5.718  -1.654  1.00  0.00    -0.352 N 
HETATM   15  H   UNL     1       5.292   5.847  -1.041  1.00  0.00     0.162 HD
HETATM   16  O   UNL     1       6.731   5.080  -3.765  1.00  0.00    -0.268 OA
BRANCH  14  17
HETATM   17  C   UNL     1       7.362   5.413  -1.043  1.00  0.00     0.161 C 
BRANCH  17  18
HETATM   18  C   UNL     1       7.768   6.462  -0.040  1.00  0.00    -0.038 A 
HETATM   19  C   UNL     1       7.727   7.826  -0.380  1.00  0.00     0.048 A 
HETATM   20  C   UNL     1       8.169   8.744   0.548  1.00  0.00     0.105 A 
HETATM   21  C   UNL     1       8.651   8.358   1.776  1.00  0.00     0.105 A 
HETATM   22  O   UNL     1       8.201  10.093   0.378  1.00  0.00    -0.323 OA
HETATM   23  O   UNL     1       9.047   9.415   2.533  1.00  0.00    -0.323 OA
HETATM   24  C   UNL     1       8.715   7.033   2.145  1.00  0.00     0.040 A 
HETATM   25  C   UNL     1       8.767  10.511   1.637  1.00  0.00     0.352 A 
HETATM   26  C   UNL     1       8.272   6.078   1.224  1.00  0.00     0.012 A 
ENDBRANCH  17  18
ENDBRANCH  14  17
ENDBRANCH   2  13
BRANCH   2  27
HETATM   27  O   UNL     1       4.180   5.077  -4.785  1.00  0.00    -0.359 OA
HETATM   28  H   UNL     1       5.082   4.974  -5.143  1.00  0.00     0.213 HD
ENDBRANCH   2  27
BRANCH   1  29
HETATM   29  C   UNL     1       3.612   3.789  -1.996  1.00  0.00     0.043 A 
HETATM   30  C   UNL     1       4.422   2.826  -2.614  1.00  0.00     0.030 A 
HETATM   31  C   UNL     1       4.740   1.622  -1.973  1.00  0.00     0.009 A 
HETATM   32  C   UNL     1       4.248   1.345  -0.695  1.00  0.00    -0.058 A 
HETATM   33  C   UNL     1       3.418   2.283  -0.079  1.00  0.00     0.009 A 
HETATM   34  C   UNL     1       3.103   3.484  -0.723  1.00  0.00     0.030 A 
BRANCH  32  35
HETATM   35  C   UNL     1       4.635   0.077   0.020  1.00  0.00     0.034 C 
HETATM   36  C   UNL     1       5.933   0.249   0.796  1.00  0.00     0.010 C 
ENDBRANCH  32  35
ENDBRANCH   1  29
TORSDOF 6
