REMARK  5 active torsions:
REMARK  status: ('A' for Active; 'I' for Inactive)
REMARK    1  A    between atoms: C_8  and  C_9 
REMARK    2  A    between atoms: C_9  and  C_10 
REMARK       I    between atoms: C_10  and  N_11 
REMARK    3  A    between atoms: N_11  and  C_12 
REMARK    4  A    between atoms: C_12  and  C_13 
REMARK    5  A    between atoms: C_13  and  C_14 
ROOT
HETATM    1  C   UNL     1       3.245  -3.310   1.099  1.00  0.00     0.226 C 
HETATM    2  N   UNL     1       2.431  -4.006   1.970  1.00  0.00    -0.360 N 
HETATM    3  O   UNL     1       2.804  -2.585   0.209  1.00  0.00    -0.273 OA
HETATM    4  H   UNL     1       2.849  -4.791   2.451  1.00  0.00     0.162 HD
ENDROOT
BRANCH   2   5
HETATM    5  C   UNL     1       0.987  -4.019   1.813  1.00  0.00     0.127 C 
BRANCH   5   6
HETATM    6  C   UNL     1       0.327  -2.673   2.134  1.00  0.00     0.060 C 
BRANCH   6   7
HETATM    7  C   UNL     1      -1.169  -2.755   2.102  1.00  0.00    -0.029 A 
HETATM    8  C   UNL     1      -1.994  -2.855   0.936  1.00  0.00    -0.002 A 
HETATM    9  C   UNL     1      -3.320  -2.916   1.366  1.00  0.00     0.044 A 
HETATM   10  C   UNL     1      -1.731  -2.902  -0.449  1.00  0.00     0.016 A 
HETATM   11  C   UNL     1      -4.400  -3.030   0.481  1.00  0.00     0.054 A 
HETATM   12  N   UNL     1      -3.304  -2.840   2.739  1.00  0.00    -0.365 N 
HETATM   13  C   UNL     1      -4.107  -3.082  -0.885  1.00  0.00     0.036 A 
HETATM   14 CL   UNL     1      -5.401  -3.228  -2.015  1.00  0.00    -0.084 Cl
HETATM   15  C   UNL     1      -2.797  -3.019  -1.350  1.00  0.00     0.025 A 
HETATM   16  H   UNL     1      -4.129  -2.851   3.324  1.00  0.00     0.165 HD
HETATM   17  C   UNL     1      -2.016  -2.747   3.193  1.00  0.00     0.096 A 
ENDBRANCH   6   7
ENDBRANCH   5   6
ENDBRANCH   2   5
BRANCH   1  18
HETATM   18  C   UNL     1       4.751  -3.499   1.312  1.00  0.00     0.111 C 
HETATM   19  C   UNL     1       5.167  -3.122   2.731  1.00  0.00     0.025 C 
BRANCH  18  20
HETATM   20  C   UNL     1       5.188  -4.866   0.849  1.00  0.00     0.004 A 
HETATM   21  C   UNL     1       5.451  -6.030   1.558  1.00  0.00     0.033 A 
HETATM   22  C   UNL     1       5.415  -6.380   2.998  1.00  0.00     0.070 C 
HETATM   23  N   UNL     1       5.817  -6.962   0.624  1.00  0.00    -0.282 N 
HETATM   24  H   UNL     1       6.088  -7.928   0.775  1.00  0.00     0.189 HD
HETATM   25  N   UNL     1       5.800  -6.508  -0.631  1.00  0.00    -0.179 NA
HETATM   26  C   UNL     1       5.423  -5.232  -0.514  1.00  0.00     0.060 A 
HETATM   27  C   UNL     1       5.291  -4.385  -1.729  1.00  0.00     0.073 C 
ENDBRANCH  18  20
ENDBRANCH   1  18
TORSDOF 5
