REMARK  5 active torsions:
REMARK  status: ('A' for Active; 'I' for Inactive)
REMARK    1  A    between atoms: C_3  and  O_4 
REMARK    2  A    between atoms: C_6  and  N_7 
REMARK       I    between atoms: N_7  and  C_8 
REMARK    3  A    between atoms: C_8  and  C_9 
REMARK    4  A    between atoms: C_12  and  C_13 
REMARK    5  A    between atoms: C_18  and  C_19 
ROOT
HETATM    1  C   UNL     1      -3.555  -1.239  -0.556  1.00  0.00     0.096 A 
HETATM    2  C   UNL     1      -3.108   0.054  -0.757  1.00  0.00     0.138 A 
HETATM    3  N   UNL     1      -4.208   0.858  -0.577  1.00  0.00    -0.240 N 
HETATM    4  C   UNL     1      -4.209   2.302  -0.716  1.00  0.00     0.221 C 
HETATM    5  C   UNL     1      -2.771   2.834  -0.596  1.00  0.00     0.066 C 
HETATM    6  C   UNL     1      -1.804   2.001  -1.455  1.00  0.00     0.118 C 
HETATM    7  N   UNL     1      -1.892   0.585  -1.073  1.00  0.00    -0.365 N 
HETATM    8  N   UNL     1      -5.326   0.193  -0.254  1.00  0.00    -0.181 NA
HETATM    9  C   UNL     1      -4.938  -1.085  -0.284  1.00  0.00     0.160 A 
HETATM   10  H   UNL     1      -1.242   0.007  -1.612  1.00  0.00     0.161 HD
ENDROOT
BRANCH   1  11
HETATM   11  C   UNL     1      -2.826  -2.496  -0.596  1.00  0.00     0.261 C 
HETATM   12  N   UNL     1      -1.477  -2.355  -0.330  1.00  0.00    -0.323 N 
HETATM   13  H   UNL     1      -1.191  -1.430  -0.029  1.00  0.00     0.169 HD
HETATM   14  O   UNL     1      -3.417  -3.549  -0.800  1.00  0.00    -0.267 OA
BRANCH  12  15
HETATM   15  C   UNL     1      -0.492  -3.362  -0.316  1.00  0.00     0.037 A 
HETATM   16  C   UNL     1      -0.707  -4.670  -0.753  1.00  0.00     0.066 A 
HETATM   17  C   UNL     1       0.331  -5.600  -0.708  1.00  0.00     0.067 A 
HETATM   18  C   UNL     1       1.589  -5.252  -0.228  1.00  0.00     0.036 A 
HETATM   19  C   UNL     1       1.812  -3.947   0.206  1.00  0.00     0.005 A 
HETATM   20  C   UNL     1       0.779  -3.006   0.156  1.00  0.00     0.029 A 
BRANCH  17  21
HETATM   21  O   UNL     1       0.071  -6.863  -1.154  1.00  0.00    -0.361 OA
HETATM   22  H   UNL     1       0.873  -7.403  -1.057  1.00  0.00     0.217 HD
ENDBRANCH  17  21
ENDBRANCH  12  15
ENDBRANCH   1  11
BRANCH   4  23
HETATM   23  C   UNL     1      -4.857   2.696  -2.027  1.00  0.00     0.409 C 
HETATM   24  F   UNL     1      -4.250   2.144  -3.100  1.00  0.00    -0.169 F 
HETATM   25  F   UNL     1      -6.168   2.387  -2.087  1.00  0.00    -0.169 F 
HETATM   26  F   UNL     1      -4.773   4.044  -2.191  1.00  0.00    -0.169 F 
ENDBRANCH   4  23
BRANCH   6  27
HETATM   27  C   UNL     1      -0.376   2.492  -1.298  1.00  0.00    -0.035 A 
HETATM   28  C   UNL     1       0.357   2.260  -0.120  1.00  0.00     0.012 A 
HETATM   29  C   UNL     1       1.658   2.750   0.015  1.00  0.00     0.043 A 
HETATM   30  C   UNL     1       2.228   3.477  -1.023  1.00  0.00     0.116 A 
HETATM   31  F   UNL     1       3.473   3.951  -0.890  1.00  0.00    -0.206 F 
HETATM   32  C   UNL     1       1.524   3.722  -2.194  1.00  0.00     0.043 A 
HETATM   33  C   UNL     1       0.224   3.232  -2.333  1.00  0.00     0.012 A 
ENDBRANCH   6  27
TORSDOF 5
