REMARK  3 active torsions:
REMARK  status: ('A' for Active; 'I' for Inactive)
REMARK    1  A    between atoms: O_2  and  C_3 
REMARK    2  A    between atoms: C_7  and  C_8 
REMARK    3  A    between atoms: C_19  and  N_20 
ROOT
HETATM    1  C   UNL     1       4.958  -4.833  -1.631  1.00  0.00     0.244 A 
HETATM    2  N   UNL     1       4.106  -5.571  -2.535  1.00  0.00    -0.151 N 
HETATM    3  C   UNL     1       3.799  -6.886  -2.292  1.00  0.00     0.734 A 
HETATM    4  N   UNL     1       3.048  -7.350  -3.266  1.00  0.00    -0.060 NA
HETATM    5  C   UNL     1       2.903  -6.324  -4.167  1.00  0.00     0.103 A 
HETATM    6  C   UNL     1       3.573  -5.184  -3.735  1.00  0.00     0.083 A 
HETATM    7  C   UNL     1       2.213  -6.300  -5.387  1.00  0.00     0.034 A 
HETATM    8  C   UNL     1       2.222  -5.121  -6.140  1.00  0.00     0.002 A 
HETATM    9  C   UNL     1       2.903  -3.989  -5.687  1.00  0.00     0.002 A 
HETATM   10  C   UNL     1       3.597  -3.994  -4.471  1.00  0.00     0.033 A 
HETATM   11  N   UNL     1       4.235  -7.550  -1.199  1.00  0.00    -0.033 NA
HETATM   12  C   UNL     1       4.996  -6.944  -0.361  1.00  0.00     0.193 A 
HETATM   13  N   UNL     1       5.420  -5.617  -0.489  1.00  0.00    -0.339 N 
HETATM   14  H   UNL     1       6.064  -5.217   0.174  1.00  0.00     0.164 HD
ENDROOT
BRANCH   1  15
HETATM   15  C   UNL     1       4.281  -3.600  -1.061  1.00  0.00    -0.014 A 
HETATM   16  C   UNL     1       3.044  -3.683  -0.402  1.00  0.00     0.033 A 
HETATM   17  C   UNL     1       2.457  -2.543   0.162  1.00  0.00     0.044 A 
HETATM   18  C   UNL     1       3.093  -1.295   0.090  1.00  0.00     0.085 A 
HETATM   19 BR   UNL     1       0.785  -2.759   1.038  1.00  0.00    -0.048 Br
HETATM   20  C   UNL     1       4.324  -1.210  -0.567  1.00  0.00     0.039 A 
HETATM   21  C   UNL     1       4.914  -2.349  -1.131  1.00  0.00     0.014 A 
BRANCH  18  22
HETATM   22  O   UNL     1       2.453  -0.239   0.678  1.00  0.00    -0.355 OA
HETATM   23  C   UNL     1       3.112   1.021   0.689  1.00  0.00     0.210 C 
ENDBRANCH  18  22
ENDBRANCH   1  15
BRANCH  12  24
HETATM   24  N   UNL     1       5.481  -7.536   0.749  1.00  0.00    -0.272 NA
HETATM   25  H   UNL     1       5.058  -8.453   0.882  1.00  0.00     0.127 HD
HETATM   26  H   UNL     1       5.432  -6.995   1.603  1.00  0.00     0.127 HD
ENDBRANCH  12  24
TORSDOF 3
