REMARK  5 active torsions:
REMARK  status: ('A' for Active; 'I' for Inactive)
REMARK    1  A    between atoms: N_3  and  C_4 
REMARK    2  A    between atoms: C_6  and  C_7 
REMARK    3  A    between atoms: C_15  and  C_16 
REMARK       I    between atoms: C_16  and  N_17 
REMARK    4  A    between atoms: N_17  and  N_18 
REMARK       I    between atoms: N_18  and  C_19 
REMARK    5  A    between atoms: C_19  and  C_20 
ROOT
HETATM    1  C   UNL     1       0.926  -0.063   0.537  1.00  0.00     0.070 C 
HETATM    2  C   UNL     1       2.392   0.054   0.188  1.00  0.00     0.036 C 
HETATM    3  N   UNL     1       3.160  -1.092  -0.069  1.00  0.00    -0.238 N 
HETATM    4  N   UNL     1       4.537  -1.076  -0.084  1.00  0.00    -0.158 NA
HETATM    5  C   UNL     1       5.155   0.070  -0.049  1.00  0.00     0.196 C 
HETATM    6  C   UNL     1       4.384   1.360  -0.013  1.00  0.00     0.209 C 
HETATM    7  O   UNL     1       4.959   2.427  -0.167  1.00  0.00    -0.286 OA
HETATM    8  C   UNL     1       2.942   1.278   0.225  1.00  0.00     0.084 C 
ENDROOT
BRANCH   5   9
HETATM    9  C   UNL     1       6.676   0.035  -0.038  1.00  0.00     0.294 C 
HETATM   10  N   UNL     1       7.307   1.150  -0.554  1.00  0.00    -0.261 N 
HETATM   11  H   UNL     1       6.810   2.036  -0.702  1.00  0.00     0.190 HD
HETATM   12  O   UNL     1       7.277  -0.935   0.412  1.00  0.00    -0.264 OA
BRANCH  10  13
HETATM   13  N   UNL     1       8.703   1.221  -0.435  1.00  0.00    -0.262 N 
HETATM   14  C   UNL     1       9.321   2.453  -0.471  1.00  0.00     0.286 C 
HETATM   15  O   UNL     1       8.696   3.489  -0.694  1.00  0.00    -0.264 OA
HETATM   16  H   UNL     1       9.180   0.374  -0.136  1.00  0.00     0.190 HD
BRANCH  14  17
HETATM   17  C   UNL     1      10.746   2.442  -0.224  1.00  0.00     0.102 A 
HETATM   18  N   UNL     1      11.480   3.611  -0.215  1.00  0.00    -0.361 N 
HETATM   19  H   UNL     1      11.078   4.527  -0.377  1.00  0.00     0.165 HD
HETATM   20  C   UNL     1      12.798   3.344   0.036  1.00  0.00     0.088 A 
HETATM   21  C   UNL     1      12.930   1.985   0.193  1.00  0.00     0.019 A 
HETATM   22  C   UNL     1      11.642   1.415   0.030  1.00  0.00     0.036 A 
ENDBRANCH  14  17
ENDBRANCH  10  13
ENDBRANCH   5   9
BRANCH   3  23
HETATM   23  C   UNL     1       2.626  -2.403  -0.282  1.00  0.00     0.059 A 
HETATM   24  C   UNL     1       3.240  -3.522   0.314  1.00  0.00     0.047 A 
HETATM   25  C   UNL     1       2.758  -4.826   0.111  1.00  0.00     0.050 A 
HETATM   26  C   UNL     1       1.635  -5.013  -0.705  1.00  0.00     0.016 A 
HETATM   27  C   UNL     1       1.028  -3.923  -1.326  1.00  0.00     0.003 A 
HETATM   28  C   UNL     1       1.527  -2.633  -1.123  1.00  0.00     0.031 A 
BRANCH  25  29
HETATM   29  C   UNL     1       3.417  -6.007   0.779  1.00  0.00     0.417 C 
HETATM   30  F   UNL     1       4.654  -5.739   1.278  1.00  0.00    -0.166 F 
HETATM   31  F   UNL     1       2.685  -6.479   1.827  1.00  0.00    -0.166 F 
HETATM   32  F   UNL     1       3.578  -7.065  -0.066  1.00  0.00    -0.166 F 
ENDBRANCH  25  29
ENDBRANCH   3  23
TORSDOF 5
