REMARK  5 active torsions:
REMARK  status: ('A' for Active; 'I' for Inactive)
REMARK    1  A    between atoms: C_2  and  N_3 
REMARK    2  A    between atoms: C_7  and  N_8 
REMARK       I    between atoms: N_8  and  C_9 
REMARK    3  A    between atoms: C_9  and  C_10 
REMARK    4  A    between atoms: C_10  and  C_11 
REMARK    5  A    between atoms: C_11  and  C_12 
ROOT
HETATM    1  C   UNL     1       9.896   3.305  -7.080  1.00  0.00    -0.028 A 
HETATM    2  C   UNL     1      10.376   2.816  -8.253  1.00  0.00     0.015 A 
HETATM    3  C   UNL     1       9.868   1.617  -9.010  1.00  0.00     0.069 C 
HETATM    4  N   UNL     1      11.458   3.421  -8.858  1.00  0.00    -0.326 N 
HETATM    5  C   UNL     1      12.138   4.507  -8.384  1.00  0.00     0.266 A 
HETATM    6  O   UNL     1      13.090   4.980  -8.993  1.00  0.00    -0.267 OA
HETATM    7  C   UNL     1      11.649   5.057  -7.103  1.00  0.00     0.105 A 
HETATM    8  C   UNL     1      12.379   6.272  -6.552  1.00  0.00     0.026 C 
HETATM    9  N   UNL     1      12.984   7.279  -6.096  1.00  0.00    -0.096 N 
HETATM   10  C   UNL     1      10.588   4.492  -6.480  1.00  0.00    -0.029 A 
HETATM   11  C   UNL     1      10.078   5.033  -5.159  1.00  0.00     0.050 C 
HETATM   12  H   UNL     1      11.823   3.057  -9.731  1.00  0.00     0.169 HD
ENDROOT
BRANCH   1  13
HETATM   13  C   UNL     1       8.707   2.766  -6.273  1.00  0.00     0.050 C 
BRANCH  13  14
HETATM   14  C   UNL     1       7.723   1.760  -6.873  1.00  0.00     0.108 C 
BRANCH  14  15
HETATM   15  C   UNL     1       6.623   1.396  -5.887  1.00  0.00     0.222 C 
HETATM   16  N   UNL     1       5.711   2.416  -5.685  1.00  0.00    -0.327 N 
HETATM   17  H   UNL     1       5.895   3.298  -6.146  1.00  0.00     0.169 HD
HETATM   18  O   UNL     1       6.613   0.289  -5.357  1.00  0.00    -0.273 OA
BRANCH  16  19
HETATM   19  C   UNL     1       4.546   2.380  -4.887  1.00  0.00     0.035 A 
HETATM   20  C   UNL     1       4.053   1.220  -4.282  1.00  0.00     0.044 A 
HETATM   21  C   UNL     1       2.856   1.262  -3.527  1.00  0.00     0.005 A 
HETATM   22  C   UNL     1       2.189   2.479  -3.383  1.00  0.00     0.046 A 
HETATM   23  C   UNL     1       2.100   0.268  -2.829  1.00  0.00     0.003 A 
HETATM   24  N   UNL     1       1.070   2.237  -2.608  1.00  0.00    -0.346 N 
HETATM   25  C   UNL     1       2.674   3.657  -3.969  1.00  0.00     0.033 A 
HETATM   26  C   UNL     1       0.989   0.899  -2.266  1.00  0.00     0.046 A 
HETATM   27  C   UNL     1       0.039   0.192  -1.509  1.00  0.00     0.030 A 
HETATM   28  C   UNL     1       0.223  -1.183  -1.334  1.00  0.00     0.002 A 
HETATM   29  C   UNL     1       1.320  -1.833  -1.889  1.00  0.00     0.001 A 
HETATM   30  C   UNL     1       2.264  -1.120  -2.635  1.00  0.00     0.014 A 
HETATM   31  C   UNL     1       3.849   3.582  -4.727  1.00  0.00     0.032 A 
BRANCH  24  32
HETATM   32  C   UNL     1       0.098   3.245  -2.215  1.00  0.00     0.125 C 
HETATM   33  C   UNL     1       0.421   3.859  -0.864  1.00  0.00     0.027 C 
ENDBRANCH  24  32
ENDBRANCH  16  19
ENDBRANCH  14  15
ENDBRANCH  13  14
ENDBRANCH   1  13
TORSDOF 5
