REMARK  4 active torsions:
REMARK  status: ('A' for Active; 'I' for Inactive)
REMARK    1  A    between atoms: O_2  and  C_3 
REMARK    2  A    between atoms: C_4  and  O_5 
REMARK    3  A    between atoms: C_6  and  C_7 
REMARK    4  A    between atoms: C_7  and  N_8 
ROOT
HETATM    1  N   UNL     1       6.847  -3.562  -2.690  1.00  0.00    -0.066 N 
HETATM    2  H   UNL     1       6.463  -4.226  -3.388  1.00  0.00     0.280 HD
HETATM    3  C   UNL     1       8.187  -3.158  -3.268  1.00  0.00     0.246 C 
HETATM    4  C   UNL     1       9.173  -2.621  -2.214  1.00  0.00     0.062 C 
HETATM    5  C   UNL     1       9.332  -3.644  -1.096  1.00  0.00     0.020 C 
HETATM    6  C   UNL     1       7.978  -3.794  -0.418  1.00  0.00     0.031 C 
HETATM    7  C   UNL     1       7.591  -2.462   0.231  1.00  0.00     0.138 C 
HETATM    8  N   UNL     1       7.904  -1.253  -0.534  1.00  0.00    -0.317 N 
HETATM    9  C   UNL     1       8.724  -1.283  -1.665  1.00  0.00     0.020 A 
HETATM   10  C   UNL     1       9.084  -0.132  -2.261  1.00  0.00     0.026 A 
HETATM   11  C   UNL     1       7.423  -0.051   0.008  1.00  0.00     0.247 A 
HETATM   12  O   UNL     1       6.674   0.007   0.977  1.00  0.00    -0.268 OA
HETATM   13  C   UNL     1       7.834   1.196  -0.681  1.00  0.00     0.074 A 
HETATM   14  C   UNL     1       8.627   1.136  -1.756  1.00  0.00     0.007 A 
HETATM   15  C   UNL     1       6.929  -4.331  -1.401  1.00  0.00     0.241 C 
ENDROOT
BRANCH   1  16
HETATM   16  C   UNL     1       5.754  -2.508  -2.721  1.00  0.00     0.276 C 
BRANCH  16  17
HETATM   17  C   UNL     1       5.444  -1.978  -4.094  1.00  0.00     0.005 A 
HETATM   18  C   UNL     1       5.229  -2.838  -5.175  1.00  0.00     0.107 A 
HETATM   19  C   UNL     1       4.907  -2.365  -6.455  1.00  0.00     0.103 A 
HETATM   20  C   UNL     1       4.801  -0.992  -6.659  1.00  0.00     0.058 A 
HETATM   21  C   UNL     1       5.011  -0.119  -5.589  1.00  0.00     0.014 A 
HETATM   22  C   UNL     1       5.324  -0.600  -4.314  1.00  0.00     0.030 A 
HETATM   23 BR   UNL     1       4.874   1.747  -5.864  1.00  0.00    -0.051 Br
BRANCH  18  24
HETATM   24  O   UNL     1       5.365  -4.193  -4.972  1.00  0.00    -0.357 OA
HETATM   25  H   UNL     1       5.090  -4.593  -5.830  1.00  0.00     0.218 HD
ENDBRANCH  18  24
BRANCH  19  26
HETATM   26  O   UNL     1       4.738  -3.344  -7.397  1.00  0.00    -0.353 OA
HETATM   27  C   UNL     1       4.357  -2.914  -8.703  1.00  0.00     0.210 C 
ENDBRANCH  19  26
ENDBRANCH  16  17
ENDBRANCH   1  16
TORSDOF 4
