REMARK  10 active torsions:
REMARK  status: ('A' for Active; 'I' for Inactive)
REMARK    1  A    between atoms: C_2  and  C_3 
REMARK    2  A    between atoms: C_3  and  N_4 
REMARK    3  A    between atoms: C_7  and  C_8 
REMARK       I    between atoms: C_8  and  N_9 
REMARK    4  A    between atoms: N_9  and  C_10 
REMARK    5  A    between atoms: C_10  and  C_11 
REMARK    6  A    between atoms: C_11  and  O_12 
REMARK    7  A    between atoms: C_11  and  C_13 
REMARK    8  A    between atoms: C_13  and  O_14 
REMARK    9  A    between atoms: O_14  and  C_15 
REMARK   10  A    between atoms: C_23  and  C_24 
ROOT
HETATM    1  C   UNL     1       2.407   6.217   0.847  1.00  0.00     0.255 C 
HETATM    2  N   UNL     1       3.630   6.769   1.178  1.00  0.00    -0.354 N 
HETATM    3  O   UNL     1       1.397   6.911   0.811  1.00  0.00    -0.268 OA
HETATM    4  H   UNL     1       4.441   6.167   1.227  1.00  0.00     0.162 HD
ENDROOT
BRANCH   2   5
HETATM    5  C   UNL     1       3.844   8.208   1.278  1.00  0.00     0.156 C 
BRANCH   5   6
HETATM    6  C   UNL     1       3.159   8.910   2.467  1.00  0.00     0.160 C 
BRANCH   6   7
HETATM    7  O   UNL     1       1.770   9.137   2.198  1.00  0.00    -0.392 OA
HETATM    8  H   UNL     1       1.405   8.330   1.774  1.00  0.00     0.210 HD
ENDBRANCH   6   7
BRANCH   6   9
HETATM    9  C   UNL     1       3.341   8.150   3.787  1.00  0.00     0.209 C 
BRANCH   9  10
HETATM   10  O   UNL     1       2.995   9.023   4.868  1.00  0.00    -0.349 OA
BRANCH  10  11
HETATM   11  C   UNL     1       2.956   8.471   6.118  1.00  0.00     0.069 A 
HETATM   12  C   UNL     1       2.306   9.249   7.080  1.00  0.00     0.043 A 
HETATM   13  C   UNL     1       2.183   8.807   8.403  1.00  0.00    -0.059 A 
HETATM   14  C   UNL     1       1.495   9.655   9.430  1.00  0.00     0.048 C 
HETATM   15  C   UNL     1       2.756   7.583   8.764  1.00  0.00     0.007 A 
HETATM   16  C   UNL     1       3.417   6.808   7.811  1.00  0.00     0.003 A 
HETATM   17  C   UNL     1       3.516   7.249   6.489  1.00  0.00     0.037 A 
ENDBRANCH  10  11
ENDBRANCH   9  10
ENDBRANCH   6   9
ENDBRANCH   5   6
ENDBRANCH   2   5
BRANCH   1  18
HETATM   18  C   UNL     1       2.444   4.795   0.540  1.00  0.00     0.075 A 
HETATM   19  C   UNL     1       3.532   4.124  -0.075  1.00  0.00     0.158 A 
HETATM   20  N   UNL     1       3.318   2.829  -0.270  1.00  0.00    -0.183 NA
HETATM   21  N   UNL     1       2.062   2.641   0.174  1.00  0.00    -0.268 N 
HETATM   22  C   UNL     1       1.497   3.786   0.713  1.00  0.00     0.052 A 
BRANCH  21  23
HETATM   23  C   UNL     1       1.423   1.340  -0.031  1.00  0.00     0.106 C 
HETATM   24  C   UNL     1       2.412   0.166  -0.035  1.00  0.00     0.034 C 
BRANCH  23  25
HETATM   25  C   UNL     1       0.513   1.343  -1.275  1.00  0.00     0.022 C 
HETATM   26  C   UNL     1       1.232   1.551  -2.603  1.00  0.00     0.007 C 
ENDBRANCH  23  25
ENDBRANCH  21  23
BRANCH  22  27
HETATM   27  C   UNL     1       0.105   3.803   1.357  1.00  0.00     0.038 A 
HETATM   28  C   UNL     1      -0.221   4.790   2.452  1.00  0.00     0.011 A 
HETATM   29  C   UNL     1      -0.860   4.934   1.110  1.00  0.00     0.011 A 
ENDBRANCH  22  27
ENDBRANCH   1  18
TORSDOF 10
