REMARK  7 active torsions:
REMARK  status: ('A' for Active; 'I' for Inactive)
REMARK    1  A    between atoms: C_3  and  O_4 
REMARK    2  A    between atoms: O_4  and  C_5 
REMARK    3  A    between atoms: C_5  and  C_6 
REMARK       I    between atoms: C_6  and  N_7 
REMARK    4  A    between atoms: N_7  and  C_8 
REMARK    5  A    between atoms: C_9  and  C_10 
REMARK       I    between atoms: C_10  and  N_11 
REMARK    6  A    between atoms: N_11  and  C_12 
REMARK    7  A    between atoms: C_12  and  C_13 
ROOT
HETATM    1  C   UNL     1       0.332   3.536   0.341  1.00  0.00     0.050 A 
HETATM    2  C   UNL     1       1.091   2.525   0.967  1.00  0.00     0.058 A 
HETATM    3  C   UNL     1       0.484   1.332   1.395  1.00  0.00     0.019 A 
HETATM    4  C   UNL     1      -0.885   1.143   1.232  1.00  0.00     0.001 A 
HETATM    5  C   UNL     1      -1.648   2.141   0.639  1.00  0.00     0.002 A 
HETATM    6  C   UNL     1      -1.045   3.324   0.195  1.00  0.00     0.030 A 
ENDROOT
BRANCH   1   7
HETATM    7  N   UNL     1       0.973   4.685  -0.198  1.00  0.00    -0.324 N 
HETATM    8  C   UNL     1       0.349   5.833  -0.672  1.00  0.00     0.246 C 
HETATM    9  O   UNL     1      -0.825   6.128  -0.461  1.00  0.00    -0.271 OA
HETATM   10  H   UNL     1       1.986   4.661  -0.229  1.00  0.00     0.169 HD
BRANCH   8  11
HETATM   11  C   UNL     1       1.288   6.737  -1.481  1.00  0.00     0.278 C 
BRANCH  11  12
HETATM   12  O   UNL     1       0.493   7.513  -2.368  1.00  0.00    -0.342 OA
BRANCH  12  13
HETATM   13  C   UNL     1       1.126   8.280  -3.306  1.00  0.00     0.075 A 
HETATM   14  C   UNL     1       0.291   8.833  -4.297  1.00  0.00    -0.029 A 
HETATM   15  C   UNL     1      -1.191   8.576  -4.288  1.00  0.00     0.051 C 
HETATM   16  C   UNL     1       0.846   9.660  -5.284  1.00  0.00     0.009 A 
HETATM   17  C   UNL     1       2.214   9.924  -5.296  1.00  0.00     0.001 A 
HETATM   18  C   UNL     1       3.037   9.368  -4.319  1.00  0.00     0.003 A 
HETATM   19  C   UNL     1       2.496   8.551  -3.323  1.00  0.00     0.037 A 
ENDBRANCH  12  13
ENDBRANCH  11  12
ENDBRANCH   8  11
ENDBRANCH   1   7
BRANCH   2  20
HETATM   20  C   UNL     1       2.546   2.647   1.235  1.00  0.00     0.254 C 
HETATM   21  N   UNL     1       2.965   3.869   1.715  1.00  0.00    -0.353 N 
HETATM   22  H   UNL     1       2.260   4.525   2.037  1.00  0.00     0.163 HD
HETATM   23  O   UNL     1       3.292   1.692   1.060  1.00  0.00    -0.268 OA
BRANCH  21  24
HETATM   24  C   UNL     1       4.323   4.067   2.178  1.00  0.00     0.162 C 
BRANCH  24  25
HETATM   25  C   UNL     1       4.863   5.376   1.686  1.00  0.00    -0.023 A 
HETATM   26  C   UNL     1       5.045   5.596   0.324  1.00  0.00     0.125 A 
HETATM   27  N   UNL     1       5.507   6.750  -0.205  1.00  0.00    -0.273 NA
HETATM   28  C   UNL     1       5.850   7.721   0.670  1.00  0.00     0.116 A 
HETATM   29  C   UNL     1       5.729   7.596   2.044  1.00  0.00     0.020 A 
HETATM   30  C   UNL     1       5.219   6.406   2.558  1.00  0.00     0.012 A 
ENDBRANCH  24  25
ENDBRANCH  21  24
ENDBRANCH   2  20
TORSDOF 7
