REMARK  5 active torsions:
REMARK  status: ('A' for Active; 'I' for Inactive)
REMARK    1  A    between atoms: O_2  and  C_3 
REMARK    2  A    between atoms: C_6  and  C_7 
REMARK       I    between atoms: C_7  and  N_8 
REMARK    3  A    between atoms: N_8  and  C_9 
REMARK    4  A    between atoms: C_9  and  C_10 
REMARK       I    between atoms: C_10  and  N_11 
REMARK    5  A    between atoms: N_11  and  N_12 
ROOT
HETATM    1  C   UNL     1       2.873   7.447  -2.440  1.00  0.00     0.255 C 
HETATM    2  N   UNL     1       3.208   8.106  -3.608  1.00  0.00    -0.245 N 
HETATM    3  O   UNL     1       2.379   7.984  -1.448  1.00  0.00    -0.270 OA
HETATM    4  H   UNL     1       3.530   7.569  -4.417  1.00  0.00     0.192 HD
ENDROOT
BRANCH   1   5
HETATM    5  C   UNL     1       3.086   5.934  -2.481  1.00  0.00     0.227 C 
BRANCH   5   6
HETATM    6  N   UNL     1       3.975   5.418  -3.515  1.00  0.00    -0.348 N 
HETATM    7  C   UNL     1       3.476   4.932  -4.705  1.00  0.00     0.252 C 
HETATM    8  O   UNL     1       2.323   5.152  -5.061  1.00  0.00    -0.268 OA
HETATM    9  H   UNL     1       4.958   5.354  -3.298  1.00  0.00     0.163 HD
BRANCH   7  10
HETATM   10  C   UNL     1       4.383   4.102  -5.554  1.00  0.00     0.032 A 
HETATM   11  C   UNL     1       5.572   3.540  -5.075  1.00  0.00     0.020 A 
HETATM   12  C   UNL     1       6.327   2.693  -5.894  1.00  0.00     0.038 A 
HETATM   13  C   UNL     1       5.898   2.377  -7.185  1.00  0.00     0.068 A 
HETATM   14  C   UNL     1       4.725   2.950  -7.674  1.00  0.00     0.038 A 
HETATM   15  C   UNL     1       3.972   3.805  -6.861  1.00  0.00     0.020 A 
BRANCH  13  16
HETATM   16  O   UNL     1       6.706   1.508  -7.864  1.00  0.00    -0.356 OA
HETATM   17  C   UNL     1       6.119   0.847  -8.980  1.00  0.00     0.210 C 
ENDBRANCH  13  16
ENDBRANCH   7  10
ENDBRANCH   5   6
ENDBRANCH   1   5
BRANCH   2  18
HETATM   18  N   UNL     1       2.972   9.444  -3.724  1.00  0.00    -0.166 NA
HETATM   19  C   UNL     1       3.315  10.009  -4.834  1.00  0.00     0.157 A 
HETATM   20  C   UNL     1       4.014   9.397  -6.051  1.00  0.00     0.277 A 
HETATM   21  C   UNL     1       3.107  11.416  -5.157  1.00  0.00     0.028 A 
HETATM   22  O   UNL     1       4.363   8.239  -6.147  1.00  0.00    -0.266 OA
HETATM   23  N   UNL     1       4.158  10.432  -6.952  1.00  0.00    -0.321 N 
HETATM   24  C   UNL     1       3.630  11.612  -6.434  1.00  0.00     0.048 A 
HETATM   25  H   UNL     1       4.592  10.322  -7.856  1.00  0.00     0.169 HD
HETATM   26  C   UNL     1       3.587  12.850  -7.039  1.00  0.00     0.032 A 
HETATM   27  C   UNL     1       2.996  13.897  -6.320  1.00  0.00     0.021 A 
HETATM   28  C   UNL     1       2.468  13.682  -5.029  1.00  0.00     0.012 A 
HETATM   29 BR   UNL     1       1.674  15.127  -4.102  1.00  0.00    -0.051 Br
HETATM   30  C   UNL     1       2.518  12.426  -4.425  1.00  0.00     0.035 A 
ENDBRANCH   2  18
TORSDOF 5
