REMARK  5 active torsions:
REMARK  status: ('A' for Active; 'I' for Inactive)
REMARK    1  A    between atoms: C_5  and  N_6 
REMARK       I    between atoms: N_6  and  C_7 
REMARK       I    between atoms: C_7  and  N_8 
REMARK    2  A    between atoms: N_8  and  C_9 
REMARK    3  A    between atoms: C_12  and  C_13 
REMARK    4  A    between atoms: C_13  and  C_14 
REMARK       I    between atoms: C_14  and  N_15 
REMARK    5  A    between atoms: N_15  and  C_16 
ROOT
HETATM    1  C   UNL     1       5.708  -2.309   0.993  1.00  0.00     0.174 A 
HETATM    2  S   UNL     1       5.327  -3.660   1.953  1.00  0.00    -0.062 SA
HETATM    3  C   UNL     1       3.729  -3.056   2.129  1.00  0.00     0.081 A 
HETATM    4  C   UNL     1       3.593  -1.862   1.443  1.00  0.00     0.052 A 
HETATM    5  N   UNL     1       4.752  -1.432   0.797  1.00  0.00    -0.228 NA
ENDROOT
BRANCH   1   6
HETATM    6  N   UNL     1       6.977  -2.283   0.499  1.00  0.00    -0.287 N 
HETATM    7  C   UNL     1       7.499  -1.338  -0.343  1.00  0.00     0.326 C 
HETATM    8  N   UNL     1       6.711  -0.248  -0.604  1.00  0.00    -0.309 N 
HETATM    9  O   UNL     1       8.623  -1.542  -0.797  1.00  0.00    -0.247 OA
HETATM   10  H   UNL     1       5.883  -0.172  -0.022  1.00  0.00     0.170 HD
HETATM   11  H   UNL     1       7.582  -3.066   0.698  1.00  0.00     0.172 HD
BRANCH   8  12
HETATM   12  C   UNL     1       6.944   0.807  -1.506  1.00  0.00     0.036 A 
HETATM   13  C   UNL     1       8.020   0.852  -2.391  1.00  0.00     0.030 A 
HETATM   14  C   UNL     1       8.166   1.928  -3.275  1.00  0.00     0.009 A 
HETATM   15  C   UNL     1       7.233   2.970  -3.294  1.00  0.00    -0.062 A 
HETATM   16  C   UNL     1       7.420   4.133  -4.222  1.00  0.00     0.048 C 
HETATM   17  C   UNL     1       6.158   2.928  -2.402  1.00  0.00     0.009 A 
HETATM   18  C   UNL     1       6.013   1.853  -1.519  1.00  0.00     0.030 A 
ENDBRANCH   8  12
ENDBRANCH   1   6
BRANCH   4  19
HETATM   19  C   UNL     1       2.362  -1.016   1.342  1.00  0.00     0.163 C 
BRANCH  19  20
HETATM   20  C   UNL     1       1.811  -0.869  -0.073  1.00  0.00     0.227 C 
HETATM   21  N   UNL     1       2.771  -0.789  -1.066  1.00  0.00    -0.327 N 
HETATM   22  H   UNL     1       3.728  -0.976  -0.770  1.00  0.00     0.169 HD
HETATM   23  O   UNL     1       0.598  -0.760  -0.245  1.00  0.00    -0.273 OA
BRANCH  21  24
HETATM   24  C   UNL     1       2.590  -0.535  -2.439  1.00  0.00     0.036 A 
HETATM   25  C   UNL     1       1.364  -0.197  -3.018  1.00  0.00     0.056 A 
HETATM   26  C   UNL     1       1.287   0.069  -4.389  1.00  0.00     0.074 A 
HETATM   27 CL   UNL     1      -0.229   0.499  -5.084  1.00  0.00    -0.081 Cl
HETATM   28  C   UNL     1       2.429  -0.007  -5.182  1.00  0.00     0.138 A 
HETATM   29  F   UNL     1       2.372   0.248  -6.497  1.00  0.00    -0.204 F 
HETATM   30  C   UNL     1       3.653  -0.347  -4.620  1.00  0.00     0.046 A 
HETATM   31  C   UNL     1       3.732  -0.611  -3.251  1.00  0.00     0.032 A 
ENDBRANCH  21  24
ENDBRANCH  19  20
ENDBRANCH   4  19
TORSDOF 5
