REMARK  7 active torsions:
REMARK  status: ('A' for Active; 'I' for Inactive)
REMARK    1  A    between atoms: C_2  and  O_3 
REMARK    2  A    between atoms: O_3  and  C_4 
REMARK    3  A    between atoms: C_4  and  C_5 
REMARK    4  A    between atoms: C_6  and  C_7 
REMARK    5  A    between atoms: C_18  and  S_19 
REMARK    6  A    between atoms: S_19  and  C_20 
REMARK    7  A    between atoms: C_20  and  C_21 
ROOT
HETATM    1  C   UNL     1       5.343  -0.342  -0.356  1.00  0.00     0.070 C 
HETATM    2  C   UNL     1       5.487   1.151  -0.619  1.00  0.00     0.203 C 
HETATM    3  N   UNL     1       6.161   1.822   0.496  1.00  0.00    -0.082 N 
HETATM    4  C   UNL     1       6.751   1.171   1.543  1.00  0.00     0.726 A 
HETATM    5  N   UNL     1       6.694  -0.174   1.595  1.00  0.00    -0.192 N 
HETATM    6  N   UNL     1       6.189   3.157   0.668  1.00  0.00    -0.128 NA
HETATM    7  C   UNL     1       6.891   3.247   1.804  1.00  0.00     0.226 A 
HETATM    8  N   UNL     1       7.260   2.049   2.369  1.00  0.00    -0.035 NA
HETATM    9  C   UNL     1       5.945  -0.939   0.703  1.00  0.00     0.037 C 
HETATM   10  C   UNL     1       5.838  -2.408   1.028  1.00  0.00     0.070 C 
HETATM   11  H   UNL     1       7.077  -0.647   2.410  1.00  0.00     0.184 HD
ENDROOT
BRANCH   7  12
HETATM   12  S   UNL     1       7.237   4.796   2.511  1.00  0.00    -0.083 SA
BRANCH  12  13
HETATM   13  C   UNL     1       8.752   4.396   3.420  1.00  0.00     0.121 C 
BRANCH  13  14
HETATM   14  C   UNL     1       9.332   5.625   4.077  1.00  0.00    -0.048 A 
HETATM   15  C   UNL     1      10.093   6.540   3.330  1.00  0.00     0.020 A 
HETATM   16  C   UNL     1      10.604   7.711   3.914  1.00  0.00    -0.025 A 
HETATM   17  C   UNL     1      10.352   7.971   5.279  1.00  0.00    -0.026 A 
HETATM   18  C   UNL     1      11.353   8.635   3.167  1.00  0.00     0.012 A 
HETATM   19  C   UNL     1       9.595   7.053   6.023  1.00  0.00     0.013 A 
HETATM   20  C   UNL     1      10.857   9.145   5.860  1.00  0.00     0.012 A 
HETATM   21  C   UNL     1       9.086   5.895   5.428  1.00  0.00     0.009 A 
HETATM   22  C   UNL     1      11.599  10.054   5.104  1.00  0.00     0.001 A 
HETATM   23  C   UNL     1      11.847   9.799   3.758  1.00  0.00     0.001 A 
ENDBRANCH  13  14
ENDBRANCH  12  13
ENDBRANCH   7  12
BRANCH   2  24
HETATM   24  C   UNL     1       6.231   1.449  -1.921  1.00  0.00    -0.028 A 
HETATM   25  C   UNL     1       5.636   2.274  -2.893  1.00  0.00     0.012 A 
HETATM   26  C   UNL     1       6.301   2.557  -4.087  1.00  0.00     0.043 A 
HETATM   27  C   UNL     1       7.562   2.020  -4.315  1.00  0.00     0.116 A 
HETATM   28  F   UNL     1       8.198   2.294  -5.461  1.00  0.00    -0.206 F 
HETATM   29  C   UNL     1       8.173   1.207  -3.370  1.00  0.00     0.043 A 
HETATM   30  C   UNL     1       7.513   0.922  -2.174  1.00  0.00     0.012 A 
ENDBRANCH   2  24
BRANCH   1  31
HETATM   31  C   UNL     1       4.551  -1.104  -1.346  1.00  0.00     0.293 C 
HETATM   32  O   UNL     1       4.842  -2.215  -1.756  1.00  0.00    -0.259 OA
BRANCH  31  33
HETATM   33  O   UNL     1       3.471  -0.370  -1.712  1.00  0.00    -0.318 OA
BRANCH  33  34
HETATM   34  C   UNL     1       2.606  -0.972  -2.688  1.00  0.00     0.174 C 
HETATM   35  C   UNL     1       3.109  -0.671  -4.087  1.00  0.00     0.034 C 
ENDBRANCH  33  34
ENDBRANCH  31  33
ENDBRANCH   1  31
TORSDOF 7
