REMARK  7 active torsions:
REMARK  status: ('A' for Active; 'I' for Inactive)
REMARK    1  A    between atoms: S_2  and  C_3 
REMARK    2  A    between atoms: C_6  and  C_7 
REMARK    3  A    between atoms: N_8  and  C_9 
REMARK    4  A    between atoms: C_9  and  C_10 
REMARK    5  A    between atoms: C_10  and  C_11 
REMARK    6  A    between atoms: C_24  and  C_25 
REMARK    7  A    between atoms: C_26  and  O_27 
ROOT
HETATM    1  C   UNL     1       3.713  -4.533  -4.195  1.00  0.00     0.159 A 
HETATM    2  N   UNL     1       2.923  -5.785  -4.147  1.00  0.00    -0.333 N 
HETATM    3  C   UNL     1       3.678  -6.952  -4.345  1.00  0.00     0.275 A 
HETATM    4  O   UNL     1       3.273  -8.101  -4.402  1.00  0.00    -0.266 OA
HETATM    5  C   UNL     1       5.043  -6.476  -4.416  1.00  0.00     0.155 A 
HETATM    6  C   UNL     1       5.088  -5.081  -4.300  1.00  0.00     0.034 A 
HETATM    7  N   UNL     1       6.244  -7.038  -4.495  1.00  0.00    -0.168 NA
HETATM    8  N   UNL     1       7.069  -5.964  -4.439  1.00  0.00    -0.276 N 
HETATM    9  H   UNL     1       8.071  -6.120  -4.495  1.00  0.00     0.189 HD
HETATM   10  C   UNL     1       6.421  -4.756  -4.230  1.00  0.00     0.074 A 
ENDROOT
BRANCH   1  11
HETATM   11  C   UNL     1       3.463  -3.724  -5.452  1.00  0.00    -0.031 A 
HETATM   12  C   UNL     1       3.210  -2.347  -5.353  1.00  0.00     0.011 A 
HETATM   13  C   UNL     1       3.024  -1.567  -6.501  1.00  0.00     0.019 A 
HETATM   14  C   UNL     1       3.090  -2.144  -7.771  1.00  0.00    -0.000 A 
HETATM   15  C   UNL     1       3.293  -3.519  -7.881  1.00  0.00     0.019 A 
HETATM   16  C   UNL     1       3.476  -4.300  -6.737  1.00  0.00     0.011 A 
BRANCH  14  17
HETATM   17  S   UNL     1       2.887  -1.114  -9.212  1.00  0.00    -0.134 SA
HETATM   18  C   UNL     1       4.441  -1.481 -10.076  1.00  0.00     0.095 C 
ENDBRANCH  14  17
ENDBRANCH   1  11
BRANCH   2  19
HETATM   19  C   UNL     1       1.493  -5.787  -3.884  1.00  0.00     0.132 C 
BRANCH  19  20
HETATM   20  C   UNL     1       1.138  -6.573  -2.615  1.00  0.00     0.058 C 
BRANCH  20  21
HETATM   21  C   UNL     1      -0.260  -6.300  -2.117  1.00  0.00    -0.057 A 
HETATM   22  C   UNL     1      -1.379  -6.691  -2.863  1.00  0.00     0.007 A 
HETATM   23  C   UNL     1      -2.668  -6.454  -2.383  1.00  0.00     0.001 A 
HETATM   24  C   UNL     1      -2.852  -5.828  -1.151  1.00  0.00     0.000 A 
HETATM   25  C   UNL     1      -1.746  -5.439  -0.398  1.00  0.00     0.001 A 
HETATM   26  C   UNL     1      -0.457  -5.673  -0.878  1.00  0.00     0.007 A 
ENDBRANCH  20  21
ENDBRANCH  19  20
ENDBRANCH   2  19
BRANCH  10  27
HETATM   27  C   UNL     1       7.144  -3.511  -3.997  1.00  0.00     0.026 A 
HETATM   28  C   UNL     1       8.173  -3.424  -3.045  1.00  0.00     0.078 A 
HETATM   29  C   UNL     1       8.903  -2.251  -2.872  1.00  0.00     0.037 A 
HETATM   30  C   UNL     1       8.592  -1.125  -3.630  1.00  0.00     0.003 A 
HETATM   31  C   UNL     1       7.562  -1.183  -4.567  1.00  0.00     0.001 A 
HETATM   32  C   UNL     1       6.849  -2.372  -4.756  1.00  0.00     0.016 A 
BRANCH  28  33
HETATM   33  O   UNL     1       8.509  -4.473  -2.230  1.00  0.00    -0.360 OA
HETATM   34  H   UNL     1       7.702  -4.991  -2.060  1.00  0.00     0.217 HD
ENDBRANCH  28  33
ENDBRANCH  10  27
TORSDOF 7
