REMARK  3 active torsions:
REMARK  status: ('A' for Active; 'I' for Inactive)
REMARK    1  A    between atoms: C_4  and  C_5 
REMARK    2  A    between atoms: C_9  and  C_10 
REMARK       I    between atoms: C_10  and  N_11 
REMARK    3  A    between atoms: N_11  and  C_12 
ROOT
HETATM    1  C   UNL     1       6.149  -1.604  -0.430  1.00  0.00     0.276 C 
HETATM    2  N   UNL     1       7.255  -0.874  -0.809  1.00  0.00    -0.317 N 
HETATM    3  O   UNL     1       6.143  -2.799  -0.152  1.00  0.00    -0.266 OA
HETATM    4  H   UNL     1       7.070   0.110  -1.017  1.00  0.00     0.169 HD
ENDROOT
BRANCH   1   5
HETATM    5  C   UNL     1       4.922  -0.791  -0.400  1.00  0.00     0.147 A 
HETATM    6  N   UNL     1       4.935   0.533  -0.650  1.00  0.00    -0.169 NA
HETATM    7  N   UNL     1       3.647   0.897  -0.528  1.00  0.00    -0.277 N 
HETATM    8  C   UNL     1       2.785  -0.132  -0.243  1.00  0.00     0.063 A 
HETATM    9  H   UNL     1       3.418   1.877  -0.650  1.00  0.00     0.189 HD
HETATM   10  C   UNL     1       3.605  -1.240  -0.133  1.00  0.00     0.071 A 
BRANCH   8  11
HETATM   11  C   UNL     1       1.336   0.022  -0.092  1.00  0.00    -0.008 A 
HETATM   12  C   UNL     1       0.651   1.118  -0.640  1.00  0.00     0.014 A 
HETATM   13  C   UNL     1      -0.734   1.244  -0.494  1.00  0.00     0.001 A 
HETATM   14  C   UNL     1      -1.456   0.275   0.198  1.00  0.00     0.000 A 
HETATM   15  C   UNL     1      -0.794  -0.820   0.744  1.00  0.00     0.001 A 
HETATM   16  C   UNL     1       0.591  -0.945   0.600  1.00  0.00     0.014 A 
ENDBRANCH   8  11
ENDBRANCH   1   5
BRANCH   2  17
HETATM   17  C   UNL     1       8.555  -1.293  -0.972  1.00  0.00     0.102 A 
HETATM   18  C   UNL     1       9.540  -0.252  -1.460  1.00  0.00     0.218 A 
HETATM   19  O   UNL     1       9.154   0.897  -1.675  1.00  0.00    -0.284 OA
HETATM   20  C   UNL     1      10.966  -0.679  -1.668  1.00  0.00     0.078 A 
HETATM   21 BR   UNL     1      12.213   0.551  -2.289  1.00  0.00    -0.045 Br
HETATM   22  C   UNL     1      11.269  -1.956  -1.393  1.00  0.00     0.111 A 
HETATM   23  N   UNL     1      10.353  -2.868  -0.940  1.00  0.00    -0.372 N 
HETATM   24  C   UNL     1       9.038  -2.525  -0.748  1.00  0.00     0.121 A 
HETATM   25  H   UNL     1      10.643  -3.826  -0.758  1.00  0.00     0.164 HD
ENDBRANCH   2  17
TORSDOF 3
