REMARK  5 active torsions:
REMARK  status: ('A' for Active; 'I' for Inactive)
REMARK    1  A    between atoms: C_2  and  N_3 
REMARK    2  A    between atoms: C_2  and  C_21 
REMARK       I    between atoms: N_3  and  C_5 
REMARK       I    between atoms: C_5  and  N_6 
REMARK    3  A    between atoms: N_6  and  C_7 
REMARK    4  A    between atoms: C_7  and  C_8 
REMARK    5  A    between atoms: C_10  and  C_11 
ROOT
HETATM    1  N   UNL     1       2.833   1.277   0.240  1.00  0.00    -0.218 N 
HETATM    2  H   UNL     1       3.213   1.567   1.129  1.00  0.00     0.178 HD
HETATM    3  C   UNL     1       2.852   2.212  -0.739  1.00  0.00     0.670 C 
HETATM    4  N   UNL     1       2.190   2.006  -1.903  1.00  0.00    -0.221 N 
HETATM    5  N   UNL     1       3.542   3.358  -0.538  1.00  0.00    -0.231 N 
HETATM    6  C   UNL     1       4.441   3.642   0.574  1.00  0.00     0.165 C 
HETATM    7  H   UNL     1       1.489   1.279  -1.904  1.00  0.00     0.178 HD
HETATM    8  H   UNL     1       3.254   4.138  -1.131  1.00  0.00     0.177 HD
ENDROOT
BRANCH   4   9
HETATM    9  C   UNL     1       2.367   2.785  -3.138  1.00  0.00     0.199 C 
BRANCH   9  10
HETATM   10  C   UNL     1       1.734   4.120  -3.015  1.00  0.00     0.077 A 
HETATM   11  N   UNL     1       1.659   4.763  -1.793  1.00  0.00    -0.225 NA
HETATM   12  C   UNL     1       1.022   5.892  -2.063  1.00  0.00     0.179 A 
HETATM   13  O   UNL     1       0.733   6.059  -3.391  1.00  0.00    -0.301 OA
HETATM   14  C   UNL     1       1.188   4.923  -3.987  1.00  0.00     0.173 A 
BRANCH  12  15
HETATM   15  C   UNL     1       0.569   6.936  -1.151  1.00  0.00     0.017 A 
HETATM   16  C   UNL     1       0.439   6.653   0.218  1.00  0.00     0.016 A 
HETATM   17  C   UNL     1      -0.008   7.630   1.110  1.00  0.00     0.001 A 
HETATM   18  C   UNL     1      -0.321   8.905   0.645  1.00  0.00     0.000 A 
HETATM   19  C   UNL     1      -0.191   9.204  -0.710  1.00  0.00     0.001 A 
HETATM   20  C   UNL     1       0.248   8.224  -1.604  1.00  0.00     0.016 A 
ENDBRANCH  12  15
ENDBRANCH   9  10
ENDBRANCH   4   9
BRANCH   1  21
HETATM   21  C   UNL     1       2.318  -0.107   0.199  1.00  0.00     0.135 C 
HETATM   22  C   UNL     1       2.814  -0.892  -1.013  1.00  0.00     0.038 C 
BRANCH  21  23
HETATM   23  C   UNL     1       0.817  -0.156   0.355  1.00  0.00     0.005 A 
HETATM   24  S   UNL     1      -0.166   1.254   0.391  1.00  0.00    -0.104 SA
HETATM   25  C   UNL     1      -1.596   0.351   0.611  1.00  0.00     0.050 A 
HETATM   26  C   UNL     1      -1.347  -1.000   0.668  1.00  0.00     0.008 A 
HETATM   27  C   UNL     1       0.041  -1.291   0.527  1.00  0.00     0.017 A 
ENDBRANCH  21  23
ENDBRANCH   1  21
TORSDOF 5
