REMARK  6 active torsions:
REMARK  status: ('A' for Active; 'I' for Inactive)
REMARK    1  A    between atoms: C_3  and  N_4 
REMARK    2  A    between atoms: N_4  and  C_5 
REMARK    3  A    between atoms: C_5  and  C_6 
REMARK    4  A    between atoms: N_8  and  C_10 
REMARK    5  A    between atoms: C_10  and  C_11 
REMARK    6  A    between atoms: C_12  and  O_13 
ROOT
HETATM    1  C   UNL     1       5.083  -0.674  -0.333  1.00  0.00     0.031 C 
HETATM    2  C   UNL     1       6.221  -1.488   0.275  1.00  0.00     0.241 C 
HETATM    3  N   UNL     1       7.394  -0.543   0.247  1.00  0.00    -0.067 N 
HETATM    4  H   UNL     1       7.912  -0.629   1.143  1.00  0.00     0.280 HD
HETATM    5  C   UNL     1       6.859   0.868   0.146  1.00  0.00     0.235 C 
HETATM    6  C   UNL     1       5.348   0.708   0.257  1.00  0.00     0.035 C 
ENDROOT
BRANCH   3   7
HETATM    7  C   UNL     1       8.447  -0.884  -0.781  1.00  0.00     0.276 C 
BRANCH   7   8
HETATM    8  C   UNL     1       9.711  -0.085  -0.631  1.00  0.00     0.002 A 
HETATM    9  C   UNL     1      10.391  -0.039   0.593  1.00  0.00     0.091 A 
HETATM   10  C   UNL     1      11.595   0.659   0.722  1.00  0.00     0.044 A 
HETATM   11 BR   UNL     1      12.509   0.710   2.378  1.00  0.00    -0.048 Br
HETATM   12  C   UNL     1      12.131   1.328  -0.375  1.00  0.00     0.022 A 
HETATM   13  C   UNL     1      11.463   1.294  -1.600  1.00  0.00     0.002 A 
HETATM   14  C   UNL     1      10.264   0.588  -1.731  1.00  0.00     0.012 A 
BRANCH   9  15
HETATM   15  O   UNL     1       9.822  -0.691   1.661  1.00  0.00    -0.359 OA
HETATM   16  H   UNL     1      10.489  -0.664   2.384  1.00  0.00     0.218 HD
ENDBRANCH   9  15
ENDBRANCH   7   8
ENDBRANCH   3   7
BRANCH   1  17
HETATM   17  C   UNL     1       3.692  -1.219  -0.003  1.00  0.00     0.127 C 
BRANCH  17  18
HETATM   18  N   UNL     1       3.553  -2.585  -0.491  1.00  0.00    -0.376 N 
HETATM   19  H   UNL     1       3.171  -3.214   0.227  1.00  0.00     0.161 HD
BRANCH  18  20
HETATM   20  C   UNL     1       3.054  -2.953  -1.737  1.00  0.00     0.100 A 
HETATM   21  C   UNL     1       3.065  -4.309  -2.098  1.00  0.00     0.048 A 
HETATM   22  C   UNL     1       2.632  -4.709  -3.360  1.00  0.00     0.005 A 
HETATM   23  C   UNL     1       2.194  -3.752  -4.263  1.00  0.00     0.017 A 
HETATM   24  C   UNL     1       2.199  -2.420  -3.879  1.00  0.00     0.089 A 
HETATM   25  N   UNL     1       2.628  -2.068  -2.654  1.00  0.00    -0.353 N 
HETATM   26  H   UNL     1       2.599  -1.084  -2.412  1.00  0.00     0.166 HD
ENDBRANCH  18  20
ENDBRANCH  17  18
ENDBRANCH   1  17
TORSDOF 6
