REMARK  2 active torsions:
REMARK  status: ('A' for Active; 'I' for Inactive)
REMARK    1  A    between atoms: C_7  and  C_8 
REMARK       I    between atoms: C_8  and  N_9 
REMARK    2  A    between atoms: N_9  and  N_10 
ROOT
HETATM    1  C   UNL     1      -4.047   1.358  -0.099  1.00  0.00     0.292 C 
HETATM    2  N   UNL     1      -5.213   0.653  -0.357  1.00  0.00    -0.241 N 
HETATM    3  O   UNL     1      -3.971   2.549   0.185  1.00  0.00    -0.264 OA
HETATM    4  H   UNL     1      -5.079  -0.294  -0.694  1.00  0.00     0.192 HD
ENDROOT
BRANCH   1   5
HETATM    5  C   UNL     1      -2.861   0.486  -0.199  1.00  0.00     0.154 A 
HETATM    6  C   UNL     1      -1.501   0.843  -0.025  1.00  0.00     0.007 A 
HETATM    7  C   UNL     1      -0.784  -0.321  -0.187  1.00  0.00     0.069 A 
HETATM    8  C   UNL     1      -0.831   2.130   0.306  1.00  0.00     0.048 C 
HETATM    9  C   UNL     1       0.662  -0.417  -0.087  1.00  0.00    -0.001 A 
HETATM   10  N   UNL     1      -1.701  -1.287  -0.463  1.00  0.00    -0.276 N 
HETATM   11  C   UNL     1       1.372   0.808  -0.037  1.00  0.00    -0.045 A 
HETATM   12  C   UNL     1       1.351  -1.629  -0.012  1.00  0.00     0.014 A 
HETATM   13  C   UNL     1       2.769   0.789   0.061  1.00  0.00     0.008 A 
HETATM   14  C   UNL     1       0.635   2.134  -0.193  1.00  0.00     0.044 C 
HETATM   15  C   UNL     1       3.448  -0.427   0.136  1.00  0.00     0.001 A 
HETATM   16  C   UNL     1       2.743  -1.631   0.101  1.00  0.00     0.001 A 
HETATM   17  N   UNL     1      -2.974  -0.837  -0.481  1.00  0.00    -0.168 NA
HETATM   18  H   UNL     1      -1.532  -2.268  -0.656  1.00  0.00     0.189 HD
ENDBRANCH   1   5
BRANCH   2  19
HETATM   19  N   UNL     1      -6.414   1.278  -0.461  1.00  0.00    -0.165 NA
HETATM   20  C   UNL     1      -7.493   0.571  -0.577  1.00  0.00     0.157 A 
HETATM   21  C   UNL     1      -8.852   1.254  -0.846  1.00  0.00     0.277 A 
HETATM   22  C   UNL     1      -7.780  -0.872  -0.523  1.00  0.00     0.027 A 
HETATM   23  O   UNL     1      -9.065   2.443  -0.927  1.00  0.00    -0.266 OA
HETATM   24  N   UNL     1      -9.756   0.228  -0.988  1.00  0.00    -0.321 N 
HETATM   25  C   UNL     1      -9.146  -1.004  -0.796  1.00  0.00     0.048 A 
HETATM   26  H   UNL     1     -10.735   0.389  -1.170  1.00  0.00     0.169 HD
HETATM   27  C   UNL     1      -9.776  -2.233  -0.829  1.00  0.00     0.030 A 
HETATM   28  C   UNL     1      -9.000  -3.362  -0.565  1.00  0.00     0.002 A 
HETATM   29  C   UNL     1      -7.633  -3.239  -0.261  1.00  0.00     0.001 A 
HETATM   30  C   UNL     1      -7.011  -1.984  -0.228  1.00  0.00     0.016 A 
ENDBRANCH   2  19
TORSDOF 2
