REMARK  4 active torsions:
REMARK  status: ('A' for Active; 'I' for Inactive)
REMARK    1  A    between atoms: C_4  and  C_5 
REMARK    2  A    between atoms: C_8  and  N_9 
REMARK       I    between atoms: N_9  and  C_10 
REMARK       I    between atoms: C_10  and  N_11 
REMARK    3  A    between atoms: N_11  and  C_12 
REMARK    4  A    between atoms: C_12  and  C_13 
ROOT
HETATM    1  C   UNL     1       2.950   0.205  -0.185  1.00  0.00     0.089 A 
HETATM    2  N   UNL     1       3.665  -0.937  -0.066  1.00  0.00    -0.148 NA
HETATM    3  N   UNL     1       5.047  -0.911  -0.092  1.00  0.00    -0.131 NA
HETATM    4  C   UNL     1       5.705   0.255  -0.223  1.00  0.00     0.153 A 
HETATM    5  C   UNL     1       5.005   1.445  -0.334  1.00  0.00     0.055 A 
HETATM    6  C   UNL     1       3.610   1.420  -0.314  1.00  0.00     0.038 A 
ENDROOT
BRANCH   4   7
HETATM    7  N   UNL     1       7.098   0.310  -0.270  1.00  0.00    -0.292 N 
HETATM    8  C   UNL     1       8.010  -0.692  -0.194  1.00  0.00     0.322 C 
HETATM    9  N   UNL     1       7.558  -1.954   0.014  1.00  0.00    -0.337 N 
HETATM   10  O   UNL     1       9.204  -0.414  -0.298  1.00  0.00    -0.247 OA
HETATM   11  H   UNL     1       6.575  -2.123  -0.170  1.00  0.00     0.164 HD
HETATM   12  H   UNL     1       7.535   1.212  -0.395  1.00  0.00     0.172 HD
BRANCH   9  13
HETATM   13  C   UNL     1       8.466  -3.075  -0.045  1.00  0.00     0.189 C 
BRANCH  13  14
HETATM   14  C   UNL     1       7.826  -4.283   0.528  1.00  0.00     0.070 A 
HETATM   15  O   UNL     1       8.112  -5.468  -0.088  1.00  0.00    -0.325 OA
HETATM   16  C   UNL     1       7.461  -6.442   0.597  1.00  0.00     0.142 A 
HETATM   17  C   UNL     1       6.759  -5.904   1.649  1.00  0.00     0.027 A 
HETATM   18  C   UNL     1       6.995  -4.509   1.608  1.00  0.00     0.036 A 
ENDBRANCH  13  14
ENDBRANCH   9  13
ENDBRANCH   4   7
BRANCH   1  19
HETATM   19  C   UNL     1       1.483   0.077  -0.157  1.00  0.00    -0.006 A 
HETATM   20  C   UNL     1       0.858  -0.888   0.655  1.00  0.00     0.014 A 
HETATM   21  C   UNL     1      -0.534  -1.010   0.702  1.00  0.00     0.001 A 
HETATM   22  C   UNL     1      -1.333  -0.172  -0.070  1.00  0.00     0.000 A 
HETATM   23  C   UNL     1      -0.742   0.783  -0.890  1.00  0.00     0.001 A 
HETATM   24  C   UNL     1       0.650   0.906  -0.933  1.00  0.00     0.014 A 
ENDBRANCH   1  19
TORSDOF 4
