REMARK  3 active torsions:
REMARK  status: ('A' for Active; 'I' for Inactive)
REMARK    1  A    between atoms: C_3  and  N_4 
REMARK       I    between atoms: N_4  and  C_5 
REMARK    2  A    between atoms: C_5  and  C_6 
REMARK    3  A    between atoms: C_6  and  C_7 
ROOT
HETATM    1  C   UNL     1      -1.394   2.498   0.257  1.00  0.00     0.286 C 
HETATM    2  N   UNL     1      -2.186   2.186  -1.020  1.00  0.00    -0.056 N 
HETATM    3  H   UNL     1      -2.916   2.907  -1.160  1.00  0.00     0.278 HD
HETATM    4  H   UNL     1      -1.567   2.285  -1.838  1.00  0.00     0.278 HD
HETATM    5  C   UNL     1      -2.771   0.808  -0.956  1.00  0.00     0.209 C 
HETATM    6  C   UNL     1      -1.597  -0.194  -0.887  1.00  0.00     0.115 C 
HETATM    7  N   UNL     1      -0.699   0.105   0.228  1.00  0.00    -0.353 N 
HETATM    8  C   UNL     1      -0.368   1.393   0.595  1.00  0.00     0.249 C 
HETATM    9  O   UNL     1       0.652   1.608   1.239  1.00  0.00    -0.271 OA
HETATM   10  C   UNL     1      -3.661   0.551  -2.163  1.00  0.00     0.035 C 
HETATM   11  C   UNL     1      -4.202  -0.878  -2.107  1.00  0.00     0.002 C 
HETATM   12  C   UNL     1      -3.077  -1.910  -2.002  1.00  0.00     0.002 C 
HETATM   13  C   UNL     1      -2.127  -1.627  -0.835  1.00  0.00     0.027 C 
HETATM   14  H   UNL     1       0.035  -0.568   0.446  1.00  0.00     0.163 HD
ENDROOT
BRANCH   1  15
HETATM   15  C   UNL     1      -0.729   3.863   0.128  1.00  0.00     0.146 C 
BRANCH  15  16
HETATM   16  C   UNL     1      -1.820   4.883  -0.002  1.00  0.00     0.224 C 
HETATM   17  N   UNL     1      -2.477   5.433   1.045  1.00  0.00    -0.325 N 
HETATM   18  H   UNL     1      -3.308   5.944   0.742  1.00  0.00     0.169 HD
HETATM   19  O   UNL     1      -2.302   5.040  -1.133  1.00  0.00    -0.273 OA
BRANCH  17  20
HETATM   20  C   UNL     1      -2.347   5.363   2.445  1.00  0.00     0.073 A 
HETATM   21  C   UNL     1      -1.194   5.031   3.150  1.00  0.00     0.033 A 
HETATM   22  C   UNL     1      -1.218   4.976   4.552  1.00  0.00     0.002 A 
HETATM   23  C   UNL     1      -2.387   5.263   5.258  1.00  0.00     0.003 A 
HETATM   24  C   UNL     1      -3.537   5.627   4.567  1.00  0.00     0.044 A 
HETATM   25  C   UNL     1      -3.502   5.686   3.179  1.00  0.00     0.143 A 
HETATM   26  F   UNL     1      -4.622   6.016   2.516  1.00  0.00    -0.204 F 
ENDBRANCH  17  20
ENDBRANCH  15  16
ENDBRANCH   1  15
TORSDOF 3
