REMARK  3 active torsions:
REMARK  status: ('A' for Active; 'I' for Inactive)
REMARK    1  A    between atoms: C_2  and  N_3 
REMARK       I    between atoms: N_3  and  C_4 
REMARK    2  A    between atoms: C_4  and  C_5 
REMARK    3  A    between atoms: C_5  and  C_6 
ROOT
HETATM    1  C   UNL     1      -0.952   2.698  -0.068  1.00  0.00     0.286 C 
HETATM    2  N   UNL     1      -1.827   3.201   1.076  1.00  0.00    -0.056 N 
HETATM    3  H   UNL     1      -2.631   2.538   1.114  1.00  0.00     0.278 HD
HETATM    4  H   UNL     1      -1.347   3.116   1.980  1.00  0.00     0.278 HD
HETATM    5  C   UNL     1      -2.386   4.582   0.880  1.00  0.00     0.209 C 
HETATM    6  C   UNL     1      -3.120   4.650  -0.482  1.00  0.00     0.115 C 
HETATM    7  N   UNL     1      -2.326   4.110  -1.586  1.00  0.00    -0.353 N 
HETATM    8  C   UNL     1      -1.546   2.983  -1.462  1.00  0.00     0.249 C 
HETATM    9  O   UNL     1      -1.266   2.315  -2.452  1.00  0.00    -0.271 OA
HETATM   10  C   UNL     1      -1.274   5.624   1.023  1.00  0.00     0.035 C 
HETATM   11  C   UNL     1      -1.798   7.028   0.736  1.00  0.00     0.002 C 
HETATM   12  C   UNL     1      -2.457   7.105  -0.639  1.00  0.00     0.002 C 
HETATM   13  C   UNL     1      -3.582   6.080  -0.784  1.00  0.00     0.027 C 
HETATM   14  H   UNL     1      -2.704   4.207  -2.527  1.00  0.00     0.163 HD
ENDROOT
BRANCH   1  15
HETATM   15  C   UNL     1      -0.610   1.212   0.112  1.00  0.00     0.146 C 
BRANCH  15  16
HETATM   16  C   UNL     1      -1.860   0.376   0.187  1.00  0.00     0.224 C 
HETATM   17  N   UNL     1      -1.846  -0.976   0.063  1.00  0.00    -0.327 N 
HETATM   18  H   UNL     1      -2.790  -1.355   0.038  1.00  0.00     0.169 HD
HETATM   19  O   UNL     1      -2.935   0.948   0.420  1.00  0.00    -0.273 OA
BRANCH  17  20
HETATM   20  C   UNL     1      -0.822  -1.941  -0.024  1.00  0.00     0.034 A 
HETATM   21  C   UNL     1       0.540  -1.705   0.179  1.00  0.00     0.032 A 
HETATM   22  C   UNL     1       1.464  -2.755   0.095  1.00  0.00     0.044 A 
HETATM   23  C   UNL     1       1.030  -4.042  -0.187  1.00  0.00     0.116 A 
HETATM   24  C   UNL     1      -0.316  -4.303  -0.384  1.00  0.00     0.044 A 
HETATM   25  F   UNL     1       1.919  -5.039  -0.260  1.00  0.00    -0.206 F 
HETATM   26  C   UNL     1      -1.238  -3.256  -0.298  1.00  0.00     0.032 A 
ENDBRANCH  17  20
ENDBRANCH  15  16
ENDBRANCH   1  15
TORSDOF 3
