REMARK  5 active torsions:
REMARK  status: ('A' for Active; 'I' for Inactive)
REMARK    1  A    between atoms: C_8  and  N_9 
REMARK       I    between atoms: N_9  and  C_10 
REMARK    2  A    between atoms: C_10  and  C_11 
REMARK    3  A    between atoms: C_11  and  N_12 
REMARK    4  A    between atoms: N_12  and  C_13 
REMARK    5  A    between atoms: C_13  and  C_14 
ROOT
HETATM    1  C   UNL     1       0.340  -1.846  -0.644  1.00  0.00     0.372 C 
ENDROOT
BRANCH   1   2
HETATM    2  C   UNL     1       1.520  -2.816  -0.475  1.00  0.00     0.250 C 
HETATM    3  N   UNL     1       2.481  -2.326   0.384  1.00  0.00    -0.322 N 
HETATM    4  H   UNL     1       2.263  -1.415   0.779  1.00  0.00     0.169 HD
HETATM    5  O   UNL     1       1.524  -3.897  -1.052  1.00  0.00    -0.271 OA
BRANCH   3   6
HETATM    6  C   UNL     1       3.689  -2.897   0.735  1.00  0.00     0.085 A 
HETATM    7  C   UNL     1       4.568  -2.259   1.591  1.00  0.00     0.052 A 
HETATM    8  C   UNL     1       4.512  -0.960   2.301  1.00  0.00     0.072 C 
HETATM    9  N   UNL     1       5.647  -3.088   1.706  1.00  0.00    -0.280 N 
HETATM   10  H   UNL     1       6.491  -2.947   2.251  1.00  0.00     0.189 HD
HETATM   11  N   UNL     1       5.543  -4.212   0.993  1.00  0.00    -0.177 NA
HETATM   12  C   UNL     1       4.346  -4.116   0.393  1.00  0.00     0.079 A 
HETATM   13  C   UNL     1       3.919  -5.233  -0.487  1.00  0.00     0.075 C 
ENDBRANCH   3   6
ENDBRANCH   1   2
BRANCH   1  14
HETATM   14  N   UNL     1       0.759  -0.450  -0.349  1.00  0.00     0.100 N 
HETATM   15  H   UNL     1       1.524  -0.228  -0.993  1.00  0.00     0.317 HD
BRANCH  14  16
HETATM   16  C   UNL     1      -0.332   0.505  -0.624  1.00  0.00     0.250 C 
HETATM   17  C   UNL     1       0.230   1.929  -0.541  1.00  0.00     0.048 C 
BRANCH  16  18
HETATM   18  C   UNL     1      -1.513   0.362   0.322  1.00  0.00    -0.024 A 
HETATM   19  C   UNL     1      -1.333   0.287   1.716  1.00  0.00     0.036 A 
HETATM   20  C   UNL     1      -2.434   0.174   2.567  1.00  0.00     0.073 A 
HETATM   21 CL   UNL     1      -2.183   0.080   4.267  1.00  0.00    -0.081 Cl
HETATM   22  C   UNL     1      -3.720   0.140   2.036  1.00  0.00     0.138 A 
HETATM   23  F   UNL     1      -4.792   0.037   2.836  1.00  0.00    -0.204 F 
HETATM   24  C   UNL     1      -3.920   0.218   0.661  1.00  0.00     0.044 A 
HETATM   25  C   UNL     1      -2.820   0.329  -0.193  1.00  0.00     0.012 A 
ENDBRANCH  16  18
ENDBRANCH  14  16
ENDBRANCH   1  14
TORSDOF 5
