REMARK  6 active torsions:
REMARK  status: ('A' for Active; 'I' for Inactive)
REMARK    1  A    between atoms: O_2  and  C_3 
REMARK    2  A    between atoms: C_4  and  C_5 
REMARK    3  A    between atoms: C_6  and  C_7 
REMARK       I    between atoms: C_7  and  N_8 
REMARK    4  A    between atoms: N_8  and  C_9 
REMARK    5  A    between atoms: C_9  and  C_10 
REMARK       I    between atoms: C_10  and  N_11 
REMARK    6  A    between atoms: N_11  and  N_12 
ROOT
HETATM    1  C   UNL     1       1.935   3.486  -1.343  1.00  0.00     0.255 C 
HETATM    2  N   UNL     1       1.176   3.943  -2.408  1.00  0.00    -0.245 N 
HETATM    3  O   UNL     1       1.472   3.062  -0.284  1.00  0.00    -0.270 OA
HETATM    4  H   UNL     1       1.643   4.293  -3.246  1.00  0.00     0.192 HD
ENDROOT
BRANCH   1   5
HETATM    5  C   UNL     1       3.437   3.726  -1.508  1.00  0.00     0.227 C 
BRANCH   5   6
HETATM    6  N   UNL     1       3.897   3.969  -2.870  1.00  0.00    -0.349 N 
HETATM    7  C   UNL     1       4.373   2.934  -3.637  1.00  0.00     0.241 C 
HETATM    8  O   UNL     1       4.310   1.758  -3.307  1.00  0.00    -0.269 OA
HETATM    9  H   UNL     1       4.038   4.926  -3.167  1.00  0.00     0.163 HD
BRANCH   7  10
HETATM   10  C   UNL     1       5.024   3.388  -4.888  1.00  0.00     0.075 C 
HETATM   11  C   UNL     1       5.725   2.509  -5.620  1.00  0.00     0.020 C 
BRANCH  11  12
HETATM   12  C   UNL     1       6.424   2.905  -6.848  1.00  0.00    -0.003 A 
HETATM   13  C   UNL     1       5.748   3.094  -8.068  1.00  0.00     0.078 A 
HETATM   14  C   UNL     1       6.479   3.455  -9.206  1.00  0.00     0.037 A 
HETATM   15  C   UNL     1       7.862   3.649  -9.128  1.00  0.00     0.003 A 
HETATM   16  C   UNL     1       8.526   3.479  -7.917  1.00  0.00     0.001 A 
HETATM   17  C   UNL     1       7.811   3.104  -6.781  1.00  0.00     0.014 A 
BRANCH  13  18
HETATM   18  O   UNL     1       4.393   2.879  -8.055  1.00  0.00    -0.355 OA
HETATM   19  C   UNL     1       3.652   3.349  -9.172  1.00  0.00     0.210 C 
ENDBRANCH  13  18
ENDBRANCH  11  12
ENDBRANCH   7  10
ENDBRANCH   5   6
ENDBRANCH   1   5
BRANCH   2  20
HETATM   20  N   UNL     1      -0.186   3.909  -2.344  1.00  0.00    -0.166 NA
HETATM   21  C   UNL     1      -0.832   4.485  -3.304  1.00  0.00     0.157 A 
HETATM   22  C   UNL     1      -0.279   5.255  -4.506  1.00  0.00     0.277 A 
HETATM   23  C   UNL     1      -2.283   4.553  -3.417  1.00  0.00     0.028 A 
HETATM   24  O   UNL     1       0.900   5.413  -4.749  1.00  0.00    -0.266 OA
HETATM   25  N   UNL     1      -1.385   5.710  -5.193  1.00  0.00    -0.321 N 
HETATM   26  C   UNL     1      -2.558   5.303  -4.560  1.00  0.00     0.048 A 
HETATM   27  H   UNL     1      -1.329   6.263  -6.035  1.00  0.00     0.169 HD
HETATM   28  C   UNL     1      -3.856   5.568  -4.945  1.00  0.00     0.032 A 
HETATM   29  C   UNL     1      -4.882   5.049  -4.143  1.00  0.00     0.021 A 
HETATM   30  C   UNL     1      -4.588   4.289  -2.991  1.00  0.00     0.012 A 
HETATM   31 BR   UNL     1      -6.010   3.609  -1.945  1.00  0.00    -0.051 Br
HETATM   32  C   UNL     1      -3.272   4.031  -2.609  1.00  0.00     0.035 A 
ENDBRANCH   2  20
TORSDOF 6
