REMARK  6 active torsions:
REMARK  status: ('A' for Active; 'I' for Inactive)
REMARK    1  A    between atoms: C_2  and  O_3 
REMARK    2  A    between atoms: O_3  and  C_4 
REMARK    3  A    between atoms: C_9  and  S_10 
REMARK    4  A    between atoms: S_10  and  C_11 
REMARK    5  A    between atoms: C_11  and  C_12 
REMARK       I    between atoms: C_12  and  N_13 
REMARK    6  A    between atoms: N_13  and  C_14 
ROOT
HETATM    1  C   UNL     1       4.438   1.477  -0.417  1.00  0.00     0.069 A 
HETATM    2  C   UNL     1       5.294   0.398  -0.203  1.00  0.00     0.050 A 
HETATM    3  C   UNL     1       6.688   0.597  -0.127  1.00  0.00    -0.004 A 
HETATM    4  C   UNL     1       7.236   1.883  -0.275  1.00  0.00     0.068 A 
HETATM    5  N   UNL     1       8.557   2.113  -0.207  1.00  0.00    -0.241 NA
HETATM    6  C   UNL     1       9.394   1.069   0.014  1.00  0.00     0.100 A 
HETATM    7  C   UNL     1       8.952  -0.240   0.195  1.00  0.00    -0.026 A 
HETATM    8  C   UNL     1       9.864  -1.407   0.429  1.00  0.00     0.051 C 
HETATM    9  C   UNL     1       7.573  -0.465   0.102  1.00  0.00     0.023 A 
HETATM   10  C   UNL     1       6.368   2.941  -0.496  1.00  0.00     0.035 A 
HETATM   11  C   UNL     1       4.984   2.749  -0.566  1.00  0.00     0.039 A 
ENDROOT
BRANCH   6  12
HETATM   12  S   UNL     1      11.104   1.561   0.046  1.00  0.00    -0.096 SA
BRANCH  12  13
HETATM   13  C   UNL     1      11.672   0.909  -1.569  1.00  0.00     0.142 C 
HETATM   14  C   UNL     1      13.062   1.466  -1.856  1.00  0.00     0.031 C 
BRANCH  13  15
HETATM   15  C   UNL     1      10.736   1.234  -2.736  1.00  0.00     0.236 C 
HETATM   16  N   UNL     1      10.259   2.531  -2.748  1.00  0.00    -0.326 N 
HETATM   17  H   UNL     1      10.339   3.029  -1.865  1.00  0.00     0.169 HD
HETATM   18  O   UNL     1      10.534   0.382  -3.600  1.00  0.00    -0.272 OA
BRANCH  16  19
HETATM   19  C   UNL     1       9.465   3.150  -3.732  1.00  0.00     0.034 A 
HETATM   20  C   UNL     1       9.180   2.584  -4.975  1.00  0.00     0.029 A 
HETATM   21  C   UNL     1       8.385   3.269  -5.900  1.00  0.00     0.002 A 
HETATM   22  C   UNL     1       7.874   4.527  -5.591  1.00  0.00     0.000 A 
HETATM   23  C   UNL     1       8.157   5.103  -4.356  1.00  0.00     0.002 A 
HETATM   24  C   UNL     1       8.950   4.418  -3.432  1.00  0.00     0.029 A 
ENDBRANCH  16  19
ENDBRANCH  13  15
ENDBRANCH  12  13
ENDBRANCH   6  12
BRANCH   1  25
HETATM   25  O   UNL     1       3.075   1.424  -0.497  1.00  0.00    -0.351 OA
BRANCH  25  26
HETATM   26  C   UNL     1       2.460   0.148  -0.328  1.00  0.00     0.171 C 
HETATM   27  C   UNL     1       0.956   0.337  -0.411  1.00  0.00     0.034 C 
ENDBRANCH  25  26
ENDBRANCH   1  25
TORSDOF 6
