REMARK  6 active torsions:
REMARK  status: ('A' for Active; 'I' for Inactive)
REMARK       I    between atoms: C_2  and  N_3 
REMARK    1  A    between atoms: N_3  and  C_4 
REMARK    2  A    between atoms: C_4  and  C_5 
REMARK    3  A    between atoms: C_4  and  C_11 
REMARK    4  A    between atoms: C_11  and  C_12 
REMARK       I    between atoms: C_12  and  N_13 
REMARK    5  A    between atoms: N_13  and  C_14 
REMARK    6  A    between atoms: C_16  and  C_17 
ROOT
HETATM    1  C   UNL     1       2.119   4.452  -0.851  1.00  0.00     0.224 C 
HETATM    2  N   UNL     1       2.706   5.583  -1.401  1.00  0.00    -0.327 N 
HETATM    3  O   UNL     1       0.935   4.144  -0.929  1.00  0.00    -0.273 OA
HETATM    4  H   UNL     1       3.690   5.726  -1.205  1.00  0.00     0.169 HD
ENDROOT
BRANCH   1   5
HETATM    5  C   UNL     1       3.128   3.614  -0.082  1.00  0.00     0.133 C 
BRANCH   5   6
HETATM    6  C   UNL     1       2.436   2.612   0.855  1.00  0.00     0.126 C 
BRANCH   6   7
HETATM    7  N   UNL     1       1.730   1.504   0.218  1.00  0.00    -0.352 N 
HETATM    8  C   UNL     1       2.178   0.748  -0.836  1.00  0.00     0.214 C 
HETATM    9  C   UNL     1       1.199  -0.311  -1.271  1.00  0.00     0.117 C 
HETATM   10  O   UNL     1       3.271   0.877  -1.376  1.00  0.00    -0.274 OA
HETATM   11  H   UNL     1       0.802   1.316   0.572  1.00  0.00     0.163 HD
ENDBRANCH   6   7
BRANCH   6  12
HETATM   12  C   UNL     1       3.372   2.133   1.956  1.00  0.00    -0.035 A 
HETATM   13  C   UNL     1       4.432   1.250   1.703  1.00  0.00     0.009 A 
HETATM   14  C   UNL     1       5.285   0.845   2.732  1.00  0.00     0.001 A 
HETATM   15  C   UNL     1       5.100   1.326   4.026  1.00  0.00     0.000 A 
HETATM   16  C   UNL     1       4.060   2.213   4.293  1.00  0.00     0.001 A 
HETATM   17  C   UNL     1       3.202   2.613   3.267  1.00  0.00     0.009 A 
ENDBRANCH   6  12
ENDBRANCH   5   6
ENDBRANCH   1   5
BRANCH   2  18
HETATM   18  C   UNL     1       2.068   6.610  -2.129  1.00  0.00     0.035 A 
HETATM   19  C   UNL     1       0.744   6.546  -2.572  1.00  0.00     0.042 A 
HETATM   20  C   UNL     1       0.164   7.610  -3.284  1.00  0.00    -0.021 A 
HETATM   21  C   UNL     1       0.927   8.756  -3.533  1.00  0.00     0.012 A 
HETATM   22  C   UNL     1       2.252   8.827  -3.102  1.00  0.00     0.003 A 
HETATM   23  C   UNL     1       2.821   7.756  -2.412  1.00  0.00     0.029 A 
BRANCH  20  24
HETATM   24  C   UNL     1      -1.208   7.531  -3.758  1.00  0.00     0.010 A 
HETATM   25  C   UNL     1      -2.179   8.538  -3.967  1.00  0.00     0.152 A 
HETATM   26  N   UNL     1      -3.332   8.057  -4.440  1.00  0.00    -0.187 NA
HETATM   27  N   UNL     1      -3.105   6.737  -4.535  1.00  0.00    -0.289 N 
HETATM   28  H   UNL     1      -3.851   6.143  -4.881  1.00  0.00     0.188 HD
HETATM   29  C   UNL     1      -1.850   6.372  -4.144  1.00  0.00     0.123 A 
ENDBRANCH  20  24
ENDBRANCH   2  18
TORSDOF 6
