REMARK  8 active torsions:
REMARK  status: ('A' for Active; 'I' for Inactive)
REMARK    1  A    between atoms: C_2  and  N_3 
REMARK    2  A    between atoms: C_11  and  C_12 
REMARK    3  A    between atoms: C_14  and  O_15 
REMARK    4  A    between atoms: O_15  and  C_16 
REMARK    5  A    between atoms: C_18  and  O_19 
REMARK    6  A    between atoms: O_19  and  C_20 
REMARK    7  A    between atoms: C_20  and  C_21 
REMARK    8  A    between atoms: C_31  and  O_32 
ROOT
HETATM    1  N   UNL     1       2.819  -1.088   0.267  1.00  0.00    -0.067 N 
HETATM    2  H   UNL     1       2.556  -2.068   0.423  1.00  0.00     0.280 HD
HETATM    3  C   UNL     1       3.909  -1.121  -0.809  1.00  0.00     0.281 C 
HETATM    4  C   UNL     1       4.667   0.161  -0.832  1.00  0.00     0.018 A 
HETATM    5  C   UNL     1       4.692   1.092   0.194  1.00  0.00    -0.024 A 
HETATM    6  C   UNL     1       5.508   2.214  -0.153  1.00  0.00     0.057 A 
HETATM    7  C   UNL     1       6.075   2.061  -1.393  1.00  0.00     0.087 A 
HETATM    8  N   UNL     1       6.891   2.993  -1.920  1.00  0.00    -0.357 N 
HETATM    9  C   UNL     1       7.534   3.905  -0.973  1.00  0.00     0.243 C 
HETATM   10  N   UNL     1       6.715   4.279   0.204  1.00  0.00    -0.235 NA
HETATM   11  C   UNL     1       5.812   3.436   0.546  1.00  0.00     0.173 C 
HETATM   12  S   UNL     1       5.628   0.617  -2.160  1.00  0.00    -0.074 SA
HETATM   13  C   UNL     1       3.909   0.886   1.457  1.00  0.00     0.068 C 
HETATM   14  C   UNL     1       3.402  -0.564   1.581  1.00  0.00     0.240 C 
HETATM   15  H   UNL     1       7.437   2.765  -2.744  1.00  0.00     0.162 HD
ENDROOT
BRANCH   9  16
HETATM   16  C   UNL     1       8.906   3.340  -0.581  1.00  0.00    -0.012 A 
HETATM   17  C   UNL     1       9.259   3.105   0.763  1.00  0.00     0.050 A 
HETATM   18  C   UNL     1      10.487   2.529   1.102  1.00  0.00     0.103 A 
HETATM   19  C   UNL     1      11.371   2.163   0.079  1.00  0.00     0.112 A 
HETATM   20  C   UNL     1      11.060   2.409  -1.256  1.00  0.00     0.041 A 
HETATM   21  C   UNL     1       9.846   3.017  -1.579  1.00  0.00     0.014 A 
BRANCH  18  22
HETATM   22  O   UNL     1      10.876   2.244   2.386  1.00  0.00    -0.349 OA
BRANCH  22  23
HETATM   23  C   UNL     1      10.325   3.077   3.407  1.00  0.00     0.171 C 
HETATM   24  C   UNL     1      11.155   2.889   4.665  1.00  0.00     0.034 C 
ENDBRANCH  22  23
ENDBRANCH  18  22
BRANCH  19  25
HETATM   25  O   UNL     1      12.531   1.454   0.471  1.00  0.00    -0.272 OA
BRANCH  25  26
HETATM   26  C   UNL     1      13.724   1.492  -0.231  1.00  0.00     0.298 C 
HETATM   27  O   UNL     1      13.983   2.167  -1.214  1.00  0.00    -0.259 OA
BRANCH  26  28
HETATM   28  C   UNL     1      14.664   0.505   0.366  1.00  0.00     0.039 A 
HETATM   29  C   UNL     1      15.775   0.109  -0.390  1.00  0.00     0.017 A 
HETATM   30  C   UNL     1      16.671  -0.834   0.118  1.00  0.00     0.001 A 
HETATM   31  C   UNL     1      16.466  -1.379   1.385  1.00  0.00     0.000 A 
HETATM   32  C   UNL     1      15.369  -0.981   2.149  1.00  0.00     0.001 A 
HETATM   33  C   UNL     1      14.468  -0.041   1.643  1.00  0.00     0.017 A 
ENDBRANCH  26  28
ENDBRANCH  25  26
ENDBRANCH  19  25
ENDBRANCH   9  16
BRANCH  11  34
HETATM   34  O   UNL     1       5.077   3.697   1.641  1.00  0.00    -0.344 OA
HETATM   35  H   UNL     1       5.372   4.564   1.971  1.00  0.00     0.219 HD
ENDBRANCH  11  34
BRANCH   1  36
HETATM   36  C   UNL     1       1.575  -0.377  -0.225  1.00  0.00     0.231 C 
HETATM   37  C   UNL     1       0.430  -0.539   0.758  1.00  0.00     0.034 C 
ENDBRANCH   1  36
TORSDOF 8
