REMARK  3 active torsions:
REMARK  status: ('A' for Active; 'I' for Inactive)
REMARK    1  A    between atoms: C_11  and  N_12 
REMARK       I    between atoms: N_12  and  C_13 
REMARK       I    between atoms: C_13  and  N_14 
REMARK    2  A    between atoms: N_14  and  C_15 
REMARK    3  A    between atoms: C_20  and  O_21 
ROOT
HETATM    1  N   UNL     1       1.553   2.300  -1.784  1.00  0.00    -0.338 N 
HETATM    2  C   UNL     1       1.061   2.615  -3.042  1.00  0.00     0.321 C 
HETATM    3  N   UNL     1       0.081   3.576  -2.966  1.00  0.00    -0.306 N 
HETATM    4  O   UNL     1       1.455   2.060  -4.056  1.00  0.00    -0.247 OA
HETATM    5  H   UNL     1       1.426   3.073  -1.143  1.00  0.00     0.164 HD
HETATM    6  H   UNL     1      -0.143   3.967  -2.060  1.00  0.00     0.171 HD
ENDROOT
BRANCH   1   7
HETATM    7  C   UNL     1       2.801   1.563  -1.587  1.00  0.00     0.091 C 
HETATM    8  C   UNL     1       3.047   0.304  -2.431  1.00  0.00     0.063 C 
HETATM    9  C   UNL     1       2.196  -0.913  -2.065  1.00  0.00     0.121 C 
HETATM   10  N   UNL     1       2.297  -1.154  -0.571  1.00  0.00    -0.059 N 
HETATM   11  C   UNL     1       0.728  -0.824  -2.489  1.00  0.00     0.046 C 
HETATM   12  C   UNL     1       2.796  -2.166  -2.738  1.00  0.00     0.046 C 
HETATM   13  C   UNL     1       2.184   0.003   0.398  1.00  0.00     0.121 C 
HETATM   14  H   UNL     1       3.208  -1.605  -0.405  1.00  0.00     0.279 HD
HETATM   15  H   UNL     1       1.609  -1.877  -0.311  1.00  0.00     0.279 HD
HETATM   16  C   UNL     1       0.710   0.324   0.667  1.00  0.00     0.046 C 
HETATM   17  C   UNL     1       2.797  -0.496   1.724  1.00  0.00     0.046 C 
HETATM   18  C   UNL     1       2.999   1.210  -0.106  1.00  0.00     0.063 C 
ENDBRANCH   1   7
BRANCH   3  19
HETATM   19  C   UNL     1      -0.629   4.171  -4.037  1.00  0.00     0.077 A 
HETATM   20  C   UNL     1      -1.479   5.237  -3.710  1.00  0.00     0.143 A 
HETATM   21  F   UNL     1      -1.580   5.626  -2.429  1.00  0.00    -0.204 F 
HETATM   22  C   UNL     1      -2.208   5.911  -4.681  1.00  0.00     0.047 A 
HETATM   23  C   UNL     1      -2.101   5.508  -6.009  1.00  0.00     0.040 A 
HETATM   24  C   UNL     1      -1.273   4.436  -6.361  1.00  0.00     0.070 A 
HETATM   25  C   UNL     1      -0.533   3.774  -5.374  1.00  0.00     0.069 A 
BRANCH  24  26
HETATM   26  O   UNL     1      -1.274   4.140  -7.697  1.00  0.00    -0.356 OA
HETATM   27  C   UNL     1      -0.528   3.002  -8.111  1.00  0.00     0.210 C 
ENDBRANCH  24  26
ENDBRANCH   3  19
TORSDOF 3
