REMARK  6 active torsions:
REMARK  status: ('A' for Active; 'I' for Inactive)
REMARK    1  A    between atoms: C_2  and  O_3 
REMARK    2  A    between atoms: O_3  and  C_4 
REMARK    3  A    between atoms: C_5  and  O_6 
REMARK    4  A    between atoms: O_6  and  C_7 
REMARK    5  A    between atoms: C_7  and  C_8 
REMARK    6  A    between atoms: C_16  and  C_17 
ROOT
HETATM    1  C   UNL     1       5.770  -5.992  -4.454  1.00  0.00     0.102 A 
HETATM    2  C   UNL     1       6.783  -5.386  -5.206  1.00  0.00     0.102 A 
HETATM    3  C   UNL     1       7.752  -4.612  -4.554  1.00  0.00     0.040 A 
HETATM    4  C   UNL     1       7.757  -4.489  -3.163  1.00  0.00     0.014 A 
HETATM    5  C   UNL     1       6.795  -5.141  -2.381  1.00  0.00    -0.007 A 
HETATM    6  C   UNL     1       5.797  -5.868  -3.052  1.00  0.00     0.051 A 
ENDROOT
BRANCH   5   7
HETATM    7  C   UNL     1       6.799  -4.986  -0.863  1.00  0.00     0.264 C 
HETATM    8  O   UNL     1       8.126  -4.781  -0.346  1.00  0.00    -0.321 OA
HETATM    9  C   UNL     1       8.847  -5.938  -0.200  1.00  0.00     0.087 A 
HETATM   10  C   UNL     1       8.245  -7.180  -0.007  1.00  0.00     0.065 A 
HETATM   11  C   UNL     1      10.236  -5.835  -0.220  1.00  0.00     0.038 A 
HETATM   12  C   UNL     1       6.778  -7.230   0.093  1.00  0.00     0.256 C 
HETATM   13  C   UNL     1       9.021  -8.331   0.140  1.00  0.00     0.020 A 
HETATM   14  O   UNL     1       6.171  -8.247   0.398  1.00  0.00    -0.267 OA
HETATM   15  N   UNL     1       6.140  -6.048  -0.151  1.00  0.00    -0.326 N 
HETATM   16  H   UNL     1       5.131  -6.096  -0.156  1.00  0.00     0.165 HD
HETATM   17  C   UNL     1      10.412  -8.230   0.095  1.00  0.00     0.001 A 
HETATM   18  C   UNL     1      11.018  -6.984  -0.080  1.00  0.00     0.003 A 
ENDBRANCH   5   7
BRANCH   1  19
HETATM   19  O   UNL     1       4.702  -6.736  -4.876  1.00  0.00    -0.349 OA
BRANCH  19  20
HETATM   20  C   UNL     1       4.422  -6.912  -6.260  1.00  0.00     0.171 C 
HETATM   21  C   UNL     1       3.688  -5.714  -6.839  1.00  0.00     0.034 C 
ENDBRANCH  19  20
ENDBRANCH   1  19
BRANCH   2  22
HETATM   22  O   UNL     1       6.789  -5.484  -6.571  1.00  0.00    -0.344 OA
BRANCH  22  23
HETATM   23  C   UNL     1       8.067  -5.804  -7.128  1.00  0.00     0.214 C 
BRANCH  23  24
HETATM   24  C   UNL     1       7.853  -6.372  -8.510  1.00  0.00    -0.034 A 
HETATM   25  C   UNL     1       7.564  -5.523  -9.588  1.00  0.00     0.009 A 
HETATM   26  C   UNL     1       7.360  -6.046 -10.866  1.00  0.00     0.001 A 
HETATM   27  C   UNL     1       7.435  -7.422 -11.077  1.00  0.00     0.000 A 
HETATM   28  C   UNL     1       7.707  -8.276 -10.010  1.00  0.00     0.001 A 
HETATM   29  C   UNL     1       7.912  -7.755  -8.731  1.00  0.00     0.009 A 
ENDBRANCH  23  24
ENDBRANCH  22  23
ENDBRANCH   2  22
TORSDOF 6
