REMARK  8 active torsions:
REMARK  status: ('A' for Active; 'I' for Inactive)
REMARK    1  A    between atoms: C_6  and  N_7 
REMARK       I    between atoms: N_7  and  C_8 
REMARK    2  A    between atoms: C_8  and  C_9 
REMARK    3  A    between atoms: C_9  and  S_10 
REMARK    4  A    between atoms: S_10  and  C_11 
REMARK    5  A    between atoms: N_12  and  C_13 
REMARK    6  A    between atoms: C_13  and  C_14 
REMARK    7  A    between atoms: C_14  and  C_15 
REMARK       I    between atoms: C_15  and  N_16 
REMARK    8  A    between atoms: N_16  and  C_17 
ROOT
HETATM    1  C   UNL     1       4.546   4.051   0.025  1.00  0.00     0.172 A 
HETATM    2  N   UNL     1       5.157   5.148   0.605  1.00  0.00    -0.292 N 
HETATM    3  C   UNL     1       4.381   6.116   1.248  1.00  0.00     0.262 A 
HETATM    4  O   UNL     1       4.848   7.060   1.881  1.00  0.00    -0.267 OA
HETATM    5  C   UNL     1       2.922   5.964   1.165  1.00  0.00     0.061 A 
HETATM    6  C   UNL     1       2.428   4.831   0.528  1.00  0.00     0.075 A 
HETATM    7  C   UNL     1       2.063   6.938   1.687  1.00  0.00     0.019 A 
HETATM    8  C   UNL     1       0.685   6.782   1.554  1.00  0.00     0.001 A 
HETATM    9  C   UNL     1       0.176   5.664   0.896  1.00  0.00     0.002 A 
HETATM   10  C   UNL     1       1.046   4.696   0.383  1.00  0.00     0.032 A 
HETATM   11  N   UNL     1       3.270   3.839   0.010  1.00  0.00    -0.224 NA
ENDROOT
BRANCH   1  12
HETATM   12  S   UNL     1       5.520   2.830  -0.755  1.00  0.00    -0.082 SA
BRANCH  12  13
HETATM   13  C   UNL     1       5.679   1.662   0.608  1.00  0.00     0.185 C 
BRANCH  13  14
HETATM   14  C   UNL     1       4.651   0.546   0.568  1.00  0.00     0.231 C 
HETATM   15  N   UNL     1       3.358   0.965   0.827  1.00  0.00    -0.326 N 
HETATM   16  H   UNL     1       3.155   1.950   0.655  1.00  0.00     0.169 HD
HETATM   17  O   UNL     1       5.012  -0.620   0.427  1.00  0.00    -0.272 OA
BRANCH  15  18
HETATM   18  C   UNL     1       2.276   0.167   1.256  1.00  0.00     0.036 A 
HETATM   19  C   UNL     1       2.381  -1.190   1.564  1.00  0.00     0.053 A 
HETATM   20  C   UNL     1       1.278  -1.891   2.071  1.00  0.00     0.042 A 
HETATM   21  C   UNL     1       0.047  -1.251   2.272  1.00  0.00    -0.040 A 
HETATM   22 CL   UNL     1       1.496  -3.561   2.466  1.00  0.00    -0.084 Cl
HETATM   23  C   UNL     1      -1.138  -1.965   2.858  1.00  0.00     0.050 C 
HETATM   24  C   UNL     1      -0.054   0.108   1.952  1.00  0.00     0.011 A 
HETATM   25  C   UNL     1       1.048   0.806   1.449  1.00  0.00     0.030 A 
ENDBRANCH  15  18
ENDBRANCH  13  14
ENDBRANCH  12  13
ENDBRANCH   1  12
BRANCH   2  26
HETATM   26  C   UNL     1       6.612   5.378   0.656  1.00  0.00     0.144 C 
BRANCH  26  27
HETATM   27  C   UNL     1       7.207   4.996   2.014  1.00  0.00     0.123 C 
BRANCH  27  28
HETATM   28  C   UNL     1       8.613   5.537   2.135  1.00  0.00     0.219 C 
HETATM   29  N   UNL     1       9.003   5.779   3.434  1.00  0.00    -0.356 N 
HETATM   30  H   UNL     1       8.395   5.499   4.193  1.00  0.00     0.162 HD
HETATM   31  O   UNL     1       9.339   5.715   1.162  1.00  0.00    -0.274 OA
BRANCH  29  32
HETATM   32  C   UNL     1      10.315   6.329   3.759  1.00  0.00     0.084 C 
HETATM   33  C   UNL     1      10.266   7.122   5.072  1.00  0.00     0.025 C 
HETATM   34  C   UNL     1      10.173   6.228   6.309  1.00  0.00     0.002 C 
HETATM   35  C   UNL     1      11.274   5.174   6.325  1.00  0.00     0.000 C 
HETATM   36  C   UNL     1      11.276   4.347   5.043  1.00  0.00     0.002 C 
HETATM   37  C   UNL     1      11.388   5.233   3.804  1.00  0.00     0.025 C 
ENDBRANCH  29  32
ENDBRANCH  27  28
ENDBRANCH  26  27
ENDBRANCH   2  26
TORSDOF 8
