REMARK  8 active torsions:
REMARK  status: ('A' for Active; 'I' for Inactive)
REMARK    1  A    between atoms: C_3  and  S_4 
REMARK    2  A    between atoms: S_4  and  C_5 
REMARK    3  A    between atoms: C_5  and  C_6 
REMARK       I    between atoms: C_6  and  N_7 
REMARK    4  A    between atoms: N_7  and  C_8 
REMARK    5  A    between atoms: C_8  and  C_9 
REMARK    6  A    between atoms: C_18  and  C_19 
REMARK    7  A    between atoms: C_19  and  O_20 
REMARK    8  A    between atoms: O_20  and  C_21 
ROOT
HETATM    1  C   UNL     1       1.290   0.124  -0.269  1.00  0.00     0.160 C 
HETATM    2  N   UNL     1       2.688   0.019   0.059  1.00  0.00    -0.314 N 
HETATM    3  C   UNL     1       3.580   1.034   0.262  1.00  0.00     0.191 A 
HETATM    4  N   UNL     1       4.755   0.537   0.571  1.00  0.00    -0.123 NA
HETATM    5  N   UNL     1       4.655  -0.829   0.537  1.00  0.00    -0.132 NA
HETATM    6  C   UNL     1       3.410  -1.142   0.227  1.00  0.00     0.154 A 
ENDROOT
BRANCH   3   7
HETATM    7  S   UNL     1       3.210   2.711   0.082  1.00  0.00    -0.081 SA
BRANCH   7   8
HETATM    8  C   UNL     1       4.611   3.477   0.946  1.00  0.00     0.185 C 
BRANCH   8   9
HETATM    9  C   UNL     1       5.803   3.707   0.030  1.00  0.00     0.227 C 
HETATM   10  N   UNL     1       6.431   2.569  -0.415  1.00  0.00    -0.356 N 
HETATM   11  H   UNL     1       6.084   1.668  -0.090  1.00  0.00     0.162 HD
HETATM   12  O   UNL     1       6.204   4.840  -0.233  1.00  0.00    -0.273 OA
BRANCH  10  13
HETATM   13  C   UNL     1       7.681   2.598  -1.136  1.00  0.00     0.161 C 
BRANCH  13  14
HETATM   14  C   UNL     1       7.786   1.484  -2.147  1.00  0.00    -0.041 A 
HETATM   15  C   UNL     1       8.082   1.778  -3.487  1.00  0.00     0.009 A 
HETATM   16  C   UNL     1       8.216   0.755  -4.428  1.00  0.00     0.001 A 
HETATM   17  C   UNL     1       8.056  -0.574  -4.042  1.00  0.00     0.000 A 
HETATM   18  C   UNL     1       7.765  -0.881  -2.715  1.00  0.00     0.001 A 
HETATM   19  C   UNL     1       7.636   0.140  -1.771  1.00  0.00     0.009 A 
ENDBRANCH  13  14
ENDBRANCH  10  13
ENDBRANCH   8   9
ENDBRANCH   7   8
ENDBRANCH   3   7
BRANCH   6  20
HETATM   20  C   UNL     1       2.866  -2.518   0.062  1.00  0.00     0.256 C 
BRANCH  20  21
HETATM   21  O   UNL     1       2.059  -2.777   1.211  1.00  0.00    -0.344 OA
BRANCH  21  22
HETATM   22  C   UNL     1       1.753  -4.094   1.422  1.00  0.00     0.069 A 
HETATM   23  C   UNL     1       1.569  -5.043   0.415  1.00  0.00     0.044 A 
HETATM   24  C   UNL     1       1.247  -6.373   0.737  1.00  0.00    -0.049 A 
HETATM   25  C   UNL     1       1.078  -6.741   2.084  1.00  0.00    -0.052 A 
HETATM   26  C   UNL     1       1.019  -7.362  -0.381  1.00  0.00     0.039 C 
HETATM   27  C   UNL     1       0.770  -8.164   2.482  1.00  0.00     0.039 C 
HETATM   28  C   UNL     1       1.257  -5.777   3.086  1.00  0.00     0.010 A 
HETATM   29  C   UNL     1       0.212  -9.002   1.333  1.00  0.00     0.005 C 
HETATM   30  C   UNL     1       1.058  -8.818   0.080  1.00  0.00     0.005 C 
HETATM   31  C   UNL     1       1.579  -4.461   2.754  1.00  0.00     0.037 A 
ENDBRANCH  21  22
ENDBRANCH  20  21
ENDBRANCH   6  20
TORSDOF 8
