REMARK  12 active torsions:
REMARK  status: ('A' for Active; 'I' for Inactive)
REMARK    1  A    between atoms: C_3  and  O_4 
REMARK    2  A    between atoms: C_8  and  C_9 
REMARK       I    between atoms: C_9  and  N_10 
REMARK    3  A    between atoms: N_10  and  C_11 
REMARK    4  A    between atoms: C_11  and  C_33 
REMARK    5  A    between atoms: C_11  and  C_12 
REMARK    6  A    between atoms: C_12  and  O_13 
REMARK    7  A    between atoms: C_12  and  C_14 
REMARK    8  A    between atoms: C_14  and  N_15 
REMARK    9  A    between atoms: C_17  and  C_18 
REMARK       I    between atoms: C_18  and  N_19 
REMARK   10  A    between atoms: N_19  and  C_20 
REMARK   11  A    between atoms: C_33  and  S_34 
REMARK   12  A    between atoms: S_34  and  C_35 
ROOT
HETATM    1  C   UNL     1       3.581  -2.707   0.836  1.00  0.00     0.167 C 
ENDROOT
BRANCH   1   2
HETATM    2  C   UNL     1       2.716  -2.562  -0.459  1.00  0.00     0.124 C 
BRANCH   2   3
HETATM    3  N   UNL     1       3.355  -3.265  -1.587  1.00  0.00    -0.349 N 
HETATM    4  C   UNL     1       4.554  -2.834  -2.115  1.00  0.00     0.252 C 
HETATM    5  O   UNL     1       5.201  -1.922  -1.614  1.00  0.00    -0.268 OA
HETATM    6  H   UNL     1       2.812  -3.934  -2.126  1.00  0.00     0.163 HD
BRANCH   4   7
HETATM    7  C   UNL     1       5.016  -3.546  -3.336  1.00  0.00     0.040 A 
HETATM    8  C   UNL     1       5.478  -2.837  -4.467  1.00  0.00    -0.013 A 
HETATM    9  C   UNL     1       5.475  -1.333  -4.502  1.00  0.00     0.052 C 
HETATM   10  C   UNL     1       5.954  -3.591  -5.550  1.00  0.00     0.072 A 
HETATM   11  C   UNL     1       5.921  -4.986  -5.541  1.00  0.00     0.037 A 
HETATM   12  C   UNL     1       5.444  -5.669  -4.427  1.00  0.00     0.004 A 
HETATM   13  C   UNL     1       5.002  -4.952  -3.320  1.00  0.00     0.018 A 
BRANCH  10  14
HETATM   14  O   UNL     1       6.476  -3.029  -6.680  1.00  0.00    -0.360 OA
HETATM   15  H   UNL     1       6.746  -2.114  -6.504  1.00  0.00     0.217 HD
ENDBRANCH  10  14
ENDBRANCH   4   7
ENDBRANCH   2   3
BRANCH   2  16
HETATM   16  C   UNL     1       1.262  -3.045  -0.328  1.00  0.00     0.107 C 
BRANCH  16  17
HETATM   17  S   UNL     1       0.289  -1.993   0.804  1.00  0.00    -0.128 SA
BRANCH  17  18
HETATM   18  C   UNL     1      -1.294  -2.792   0.604  1.00  0.00     0.000 A 
HETATM   19  C   UNL     1      -1.819  -3.565   1.643  1.00  0.00     0.018 A 
HETATM   20  C   UNL     1      -3.046  -4.212   1.484  1.00  0.00     0.001 A 
HETATM   21  C   UNL     1      -3.755  -4.084   0.290  1.00  0.00     0.000 A 
HETATM   22  C   UNL     1      -3.242  -3.303  -0.744  1.00  0.00     0.001 A 
HETATM   23  C   UNL     1      -2.015  -2.655  -0.586  1.00  0.00     0.018 A 
ENDBRANCH  17  18
ENDBRANCH  16  17
ENDBRANCH   2  16
ENDBRANCH   1   2
BRANCH   1  24
HETATM   24  O   UNL     1       2.907  -3.281   1.971  1.00  0.00    -0.392 OA
HETATM   25  H   UNL     1       2.070  -2.788   2.121  1.00  0.00     0.210 HD
ENDBRANCH   1  24
BRANCH   1  26
HETATM   26  C   UNL     1       4.191  -1.363   1.293  1.00  0.00     0.269 C 
BRANCH  26  27
HETATM   27  N   UNL     1       4.871  -1.579   2.652  1.00  0.00    -0.055 N 
HETATM   28  H   UNL     1       4.219  -2.265   3.084  1.00  0.00     0.281 HD
HETATM   29  C   UNL     1       4.853  -0.388   3.619  1.00  0.00     0.279 C 
HETATM   30  C   UNL     1       5.837   0.655   3.098  1.00  0.00     0.048 C 
HETATM   31  C   UNL     1       7.260   0.072   3.045  1.00  0.00    -0.006 C 
HETATM   32  C   UNL     1       7.360  -1.261   2.278  1.00  0.00     0.016 C 
HETATM   33  C   UNL     1       8.285   1.076   2.510  1.00  0.00     0.005 C 
HETATM   34  C   UNL     1       6.216  -2.239   2.598  1.00  0.00     0.241 C 
HETATM   35  C   UNL     1       7.658  -1.099   0.772  1.00  0.00     0.007 C 
HETATM   36  C   UNL     1       7.447   0.304   0.212  1.00  0.00     0.000 C 
HETATM   37  C   UNL     1       8.123   1.400   1.028  1.00  0.00     0.000 C 
BRANCH  29  38
HETATM   38  C   UNL     1       3.412   0.096   3.919  1.00  0.00     0.249 C 
HETATM   39  N   UNL     1       3.284   1.359   4.452  1.00  0.00    -0.351 N 
HETATM   40  H   UNL     1       4.114   1.813   4.813  1.00  0.00     0.163 HD
HETATM   41  O   UNL     1       2.470  -0.671   3.718  1.00  0.00    -0.271 OA
BRANCH  39  42
HETATM   42  C   UNL     1       2.019   1.960   4.927  1.00  0.00     0.022 C 
HETATM   43  C   UNL     1       1.558   1.261   6.213  1.00  0.00     0.037 C 
HETATM   44  C   UNL     1       2.295   3.443   5.239  1.00  0.00     0.037 C 
HETATM   45  C   UNL     1       0.914   1.896   3.861  1.00  0.00     0.037 C 
ENDBRANCH  39  42
ENDBRANCH  29  38
ENDBRANCH  26  27
ENDBRANCH   1  26
TORSDOF 12
