REMARK  7 active torsions:
REMARK  status: ('A' for Active; 'I' for Inactive)
REMARK    1  A    between atoms: C_2  and  C_3 
REMARK    2  A    between atoms: C_6  and  C_7 
REMARK    3  A    between atoms: N_8  and  N_9 
REMARK    4  A    between atoms: C_20  and  C_21 
REMARK       I    between atoms: C_21  and  N_22 
REMARK    5  A    between atoms: N_22  and  C_23 
REMARK    6  A    between atoms: C_23  and  C_24 
REMARK    7  A    between atoms: C_30  and  N_31 
ROOT
HETATM    1  N   UNL     1       1.890   6.673  -1.567  1.00  0.00    -0.202 N 
HETATM    2  C   UNL     1       1.039   6.330  -2.600  1.00  0.00     0.183 A 
HETATM    3  C   UNL     1       0.228   7.438  -2.846  1.00  0.00     0.124 A 
HETATM    4  N   UNL     1      -0.783   7.373  -3.750  1.00  0.00    -0.242 NA
HETATM    5  C   UNL     1      -0.881   6.214  -4.415  1.00  0.00     0.086 A 
HETATM    6  C   UNL     1      -0.020   5.112  -4.169  1.00  0.00     0.088 A 
HETATM    7  N   UNL     1       0.946   5.136  -3.234  1.00  0.00    -0.225 NA
HETATM    8  C   UNL     1      -1.867   6.096  -5.386  1.00  0.00     0.034 A 
HETATM    9  C   UNL     1      -2.020   4.928  -6.134  1.00  0.00     0.002 A 
HETATM   10  C   UNL     1      -1.170   3.856  -5.906  1.00  0.00     0.002 A 
HETATM   11  C   UNL     1      -0.182   3.957  -4.925  1.00  0.00     0.034 A 
HETATM   12  C   UNL     1       0.627   8.488  -1.973  1.00  0.00     0.104 C 
HETATM   13  C   UNL     1       1.794   8.045  -1.368  1.00  0.00     0.123 C 
ENDROOT
BRANCH   1  14
HETATM   14  N   UNL     1       2.633   5.935  -0.686  1.00  0.00    -0.176 NA
HETATM   15  C   UNL     1       2.196   4.749  -0.419  1.00  0.00     0.150 C 
BRANCH  15  16
HETATM   16  C   UNL     1       2.651   4.078   0.822  1.00  0.00    -0.017 A 
HETATM   17  C   UNL     1       3.449   4.773   1.733  1.00  0.00     0.013 A 
HETATM   18  C   UNL     1       3.649   4.272   3.021  1.00  0.00     0.009 A 
HETATM   19  C   UNL     1       3.056   3.067   3.430  1.00  0.00    -0.051 A 
HETATM   20  C   UNL     1       2.321   2.345   2.466  1.00  0.00     0.009 A 
HETATM   21  C   UNL     1       2.107   2.847   1.176  1.00  0.00     0.013 A 
BRANCH  19  22
HETATM   22  C   UNL     1       3.172   2.550   4.876  1.00  0.00    -0.024 C 
HETATM   23  C   UNL     1       3.782   3.580   5.857  1.00  0.00     0.019 C 
HETATM   24  C   UNL     1       4.066   1.297   4.891  1.00  0.00     0.019 C 
HETATM   25  C   UNL     1       1.775   2.190   5.432  1.00  0.00     0.019 C 
ENDBRANCH  19  22
ENDBRANCH  15  16
ENDBRANCH   1  14
BRANCH  13  26
HETATM   26  N   UNL     1       2.674   8.684  -0.534  1.00  0.00    -0.286 NA
HETATM   27  H   UNL     1       3.479   8.113  -0.255  1.00  0.00     0.125 HD
HETATM   28  H   UNL     1       2.986   9.614  -0.819  1.00  0.00     0.125 HD
ENDBRANCH  13  26
BRANCH  12  29
HETATM   29  C   UNL     1      -0.067   9.738  -1.676  1.00  0.00     0.257 C 
HETATM   30  N   UNL     1       0.292  10.261  -0.449  1.00  0.00    -0.354 N 
HETATM   31  H   UNL     1       0.977   9.727   0.079  1.00  0.00     0.162 HD
HETATM   32  O   UNL     1      -0.932  10.222  -2.392  1.00  0.00    -0.267 OA
BRANCH  30  33
HETATM   33  C   UNL     1      -0.452  11.279   0.265  1.00  0.00     0.155 C 
BRANCH  33  34
HETATM   34  C   UNL     1       0.299  12.607   0.470  1.00  0.00     0.139 C 
HETATM   35  O   UNL     1       0.067  13.470  -0.659  1.00  0.00    -0.384 OA
HETATM   36  C   UNL     1       1.321  13.797  -1.264  1.00  0.00     0.168 C 
HETATM   37  C   UNL     1       2.327  12.793  -0.752  1.00  0.00     0.029 C 
HETATM   38  C   UNL     1       1.811  12.503   0.637  1.00  0.00     0.035 C 
ENDBRANCH  33  34
ENDBRANCH  30  33
ENDBRANCH  12  29
TORSDOF 7
