REMARK  9 active torsions:
REMARK  status: ('A' for Active; 'I' for Inactive)
REMARK    1  A    between atoms: O_2  and  C_3 
REMARK    2  A    between atoms: C_5  and  O_6 
REMARK    3  A    between atoms: C_8  and  N_9 
REMARK    4  A    between atoms: C_10  and  O_11 
REMARK    5  A    between atoms: C_10  and  C_12 
REMARK       I    between atoms: C_12  and  N_13 
REMARK    6  A    between atoms: N_13  and  C_14 
REMARK    7  A    between atoms: C_14  and  C_15 
REMARK    8  A    between atoms: C_15  and  N_16 
REMARK    9  A    between atoms: N_20  and  C_21 
ROOT
HETATM    1  N   UNL     1       4.118   4.405  -2.920  1.00  0.00    -0.251 N 
HETATM    2  C   UNL     1       5.110   5.397  -2.486  1.00  0.00     0.256 C 
HETATM    3  C   UNL     1       4.590   6.813  -2.667  1.00  0.00     0.034 A 
HETATM    4  C   UNL     1       3.690   7.048  -3.701  1.00  0.00     0.048 A 
HETATM    5  N   UNL     1       3.227   5.964  -4.437  1.00  0.00    -0.308 N 
HETATM    6  C   UNL     1       3.333   4.666  -4.033  1.00  0.00     0.330 C 
HETATM    7  O   UNL     1       2.753   3.799  -4.686  1.00  0.00    -0.246 OA
HETATM    8  C   UNL     1       5.013   7.901  -1.885  1.00  0.00     0.015 A 
HETATM    9  C   UNL     1       4.526   9.185  -2.136  1.00  0.00     0.001 A 
HETATM   10  C   UNL     1       3.636   9.401  -3.187  1.00  0.00     0.002 A 
HETATM   11  C   UNL     1       3.222   8.332  -3.980  1.00  0.00     0.030 A 
HETATM   12  H   UNL     1       2.554   6.117  -5.182  1.00  0.00     0.170 HD
ENDROOT
BRANCH   2  13
HETATM   13  O   UNL     1       5.379   5.265  -1.088  1.00  0.00    -0.359 OA
HETATM   14  H   UNL     1       5.916   4.461  -0.994  1.00  0.00     0.213 HD
ENDBRANCH   2  13
BRANCH   2  15
HETATM   15  C   UNL     1       6.485   5.276  -3.296  1.00  0.00     0.279 C 
HETATM   16  N   UNL     1       6.459   4.651  -4.530  1.00  0.00    -0.355 N 
HETATM   17  H   UNL     1       5.639   4.066  -4.690  1.00  0.00     0.162 HD
HETATM   18  O   UNL     1       7.540   5.785  -2.895  1.00  0.00    -0.268 OA
BRANCH  16  19
HETATM   19  C   UNL     1       7.654   4.282  -5.286  1.00  0.00     0.150 C 
BRANCH  19  20
HETATM   20  C   UNL     1       8.568   5.437  -5.763  1.00  0.00     0.254 C 
BRANCH  20  21
HETATM   21  N   UNL     1       9.332   6.106  -4.649  1.00  0.00    -0.067 N 
HETATM   22  H   UNL     1       8.641   6.275  -3.888  1.00  0.00     0.280 HD
HETATM   23  C   UNL     1      10.415   5.252  -3.995  1.00  0.00     0.254 C 
HETATM   24  C   UNL     1      10.986   5.975  -2.755  1.00  0.00     0.150 C 
HETATM   25  N   UNL     1      11.486   7.313  -3.124  1.00  0.00    -0.378 N 
HETATM   26  C   UNL     1      10.512   8.175  -3.813  1.00  0.00     0.150 C 
HETATM   27  C   UNL     1       9.896   7.469  -5.040  1.00  0.00     0.254 C 
BRANCH  25  28
HETATM   28  C   UNL     1      12.858   7.487  -3.265  1.00  0.00     0.030 A 
HETATM   29  C   UNL     1      13.440   8.163  -4.346  1.00  0.00     0.029 A 
HETATM   30  C   UNL     1      14.829   8.329  -4.449  1.00  0.00     0.002 A 
HETATM   31  C   UNL     1      15.670   7.831  -3.461  1.00  0.00     0.000 A 
HETATM   32  C   UNL     1      15.123   7.173  -2.369  1.00  0.00     0.002 A 
HETATM   33  C   UNL     1      13.736   7.009  -2.275  1.00  0.00     0.029 A 
ENDBRANCH  25  28
ENDBRANCH  20  21
ENDBRANCH  19  20
ENDBRANCH  16  19
ENDBRANCH   2  15
BRANCH   1  34
HETATM   34  C   UNL     1       3.870   3.213  -2.157  1.00  0.00     0.076 A 
HETATM   35  C   UNL     1       4.890   2.409  -1.614  1.00  0.00     0.098 A 
HETATM   36  C   UNL     1       4.581   1.367  -0.723  1.00  0.00     0.075 A 
HETATM   37  C   UNL     1       3.253   1.079  -0.410  1.00  0.00     0.070 A 
HETATM   38  C   UNL     1       2.236   1.808  -1.019  1.00  0.00     0.039 A 
HETATM   39  C   UNL     1       2.539   2.863  -1.882  1.00  0.00     0.035 A 
BRANCH  35  40
HETATM   40  O   UNL     1       6.192   2.697  -1.959  1.00  0.00    -0.354 OA
HETATM   41  C   UNL     1       6.970   1.529  -2.239  1.00  0.00     0.210 C 
ENDBRANCH  35  40
BRANCH  37  42
HETATM   42  O   UNL     1       2.826   0.111   0.455  1.00  0.00    -0.356 OA
HETATM   43  C   UNL     1       3.791  -0.417   1.357  1.00  0.00     0.210 C 
ENDBRANCH  37  42
ENDBRANCH   1  34
TORSDOF 9
