REMARK  9 active torsions:
REMARK  status: ('A' for Active; 'I' for Inactive)
REMARK    1  A    between atoms: O_2  and  C_3 
REMARK    2  A    between atoms: C_3  and  C_4 
REMARK    3  A    between atoms: C_6  and  C_7 
REMARK    4  A    between atoms: C_7  and  N_8 
REMARK       I    between atoms: N_8  and  C_9 
REMARK    5  A    between atoms: C_9  and  C_10 
REMARK    6  A    between atoms: C_10  and  S_11 
REMARK    7  A    between atoms: S_11  and  C_12 
REMARK    8  A    between atoms: C_12  and  C_13 
REMARK       I    between atoms: C_13  and  N_14 
REMARK    9  A    between atoms: N_14  and  C_15 
ROOT
HETATM    1  S   UNL     1      -1.360   2.959  -5.560  1.00  0.00    -0.150 SA
ENDROOT
BRANCH   1   2
HETATM    2  C   UNL     1      -1.536   4.765  -5.388  1.00  0.00     0.177 C 
BRANCH   2   3
HETATM    3  C   UNL     1      -2.366   5.212  -4.194  1.00  0.00     0.227 C 
HETATM    4  N   UNL     1      -2.455   4.334  -3.146  1.00  0.00    -0.354 N 
HETATM    5  H   UNL     1      -1.907   3.479  -3.170  1.00  0.00     0.162 HD
HETATM    6  O   UNL     1      -2.877   6.330  -4.164  1.00  0.00    -0.273 OA
BRANCH   4   7
HETATM    7  C   UNL     1      -3.070   4.700  -1.892  1.00  0.00     0.187 C 
BRANCH   7   8
HETATM    8  C   UNL     1      -3.545   3.477  -1.200  1.00  0.00     0.071 A 
HETATM    9  O   UNL     1      -2.691   2.411  -1.156  1.00  0.00    -0.307 OA
HETATM   10  C   UNL     1      -3.323   1.405  -0.471  1.00  0.00     0.150 A 
HETATM   11  C   UNL     1      -4.574   1.841  -0.074  1.00  0.00     0.046 A 
HETATM   12  C   UNL     1      -4.718   3.167  -0.545  1.00  0.00     0.037 A 
BRANCH  10  13
HETATM   13  C   UNL     1      -2.667   0.134  -0.261  1.00  0.00     0.316 C 
HETATM   14  O   UNL     1      -3.128  -0.797   0.390  1.00  0.00    -0.257 OA
BRANCH  13  15
HETATM   15  O   UNL     1      -1.457   0.111  -0.892  1.00  0.00    -0.321 OA
HETATM   16  C   UNL     1      -0.753  -1.122  -0.750  1.00  0.00     0.213 C 
ENDBRANCH  13  15
ENDBRANCH  10  13
ENDBRANCH   7   8
ENDBRANCH   4   7
ENDBRANCH   2   3
ENDBRANCH   1   2
BRANCH   1  17
HETATM   17  C   UNL     1      -3.075   2.547  -6.053  1.00  0.00     0.177 C 
BRANCH  17  18
HETATM   18  C   UNL     1      -3.253   1.054  -6.332  1.00  0.00     0.231 C 
HETATM   19  N   UNL     1      -2.151   0.461  -6.920  1.00  0.00    -0.327 N 
HETATM   20  H   UNL     1      -1.338   1.063  -7.013  1.00  0.00     0.169 HD
HETATM   21  O   UNL     1      -4.332   0.512  -6.105  1.00  0.00    -0.272 OA
BRANCH  19  22
HETATM   22  C   UNL     1      -1.979  -0.883  -7.305  1.00  0.00     0.035 A 
HETATM   23  C   UNL     1      -2.954  -1.871  -7.153  1.00  0.00     0.042 A 
HETATM   24  C   UNL     1      -2.703  -3.203  -7.534  1.00  0.00    -0.024 A 
HETATM   25  C   UNL     1      -1.450  -3.545  -8.090  1.00  0.00    -0.026 A 
HETATM   26  C   UNL     1      -3.672  -4.206  -7.369  1.00  0.00     0.012 A 
HETATM   27  C   UNL     1      -0.481  -2.546  -8.250  1.00  0.00     0.014 A 
HETATM   28  C   UNL     1      -1.200  -4.875  -8.466  1.00  0.00     0.012 A 
HETATM   29  C   UNL     1      -0.743  -1.230  -7.859  1.00  0.00     0.030 A 
HETATM   30  C   UNL     1      -2.175  -5.859  -8.292  1.00  0.00     0.001 A 
HETATM   31  C   UNL     1      -3.409  -5.524  -7.744  1.00  0.00     0.001 A 
ENDBRANCH  19  22
ENDBRANCH  17  18
ENDBRANCH   1  17
TORSDOF 9
