REMARK  5 active torsions:
REMARK  status: ('A' for Active; 'I' for Inactive)
REMARK    1  A    between atoms: C_2  and  N_3 
REMARK    2  A    between atoms: C_10  and  C_11 
REMARK    3  A    between atoms: C_11  and  C_12 
REMARK    4  A    between atoms: C_12  and  C_13 
REMARK       I    between atoms: C_13  and  N_14 
REMARK    5  A    between atoms: N_14  and  C_15 
ROOT
HETATM    1  C   UNL     1       4.881   2.689   5.684  1.00  0.00     0.222 C 
HETATM    2  N   UNL     1       5.263   1.862   6.721  1.00  0.00    -0.327 N 
HETATM    3  O   UNL     1       4.859   3.917   5.731  1.00  0.00    -0.273 OA
HETATM    4  H   UNL     1       5.310   0.871   6.538  1.00  0.00     0.169 HD
ENDROOT
BRANCH   2   5
HETATM    5  C   UNL     1       5.636   2.234   8.032  1.00  0.00     0.035 A 
HETATM    6  C   UNL     1       5.644   3.542   8.516  1.00  0.00     0.049 A 
HETATM    7  C   UNL     1       6.067   3.838   9.833  1.00  0.00     0.061 A 
HETATM    8  C   UNL     1       6.489   2.800  10.675  1.00  0.00     0.050 A 
HETATM    9  C   UNL     1       5.874   5.247  10.268  1.00  0.00     0.256 C 
HETATM   10  N   UNL     1       6.990   2.934  11.980  1.00  0.00    -0.324 N 
HETATM   11  C   UNL     1       6.413   1.481  10.205  1.00  0.00     0.033 A 
HETATM   12  C   UNL     1       7.687   3.976  12.526  1.00  0.00     0.245 C 
HETATM   13  H   UNL     1       7.038   2.107  12.565  1.00  0.00     0.169 HD
HETATM   14  O   UNL     1       8.193   3.812  13.638  1.00  0.00    -0.271 OA
HETATM   15  C   UNL     1       7.979   5.192  11.651  1.00  0.00     0.180 C 
HETATM   16  N   UNL     1       6.743   5.795  11.180  1.00  0.00    -0.334 N 
HETATM   17  C   UNL     1       8.680   6.314  12.429  1.00  0.00     0.037 C 
HETATM   18  C   UNL     1       6.668   7.201  11.537  1.00  0.00     0.127 C 
HETATM   19  C   UNL     1       8.111   7.585  11.815  1.00  0.00     0.022 C 
HETATM   20  C   UNL     1       6.007   1.203   8.897  1.00  0.00     0.032 A 
HETATM   21  O   UNL     1       4.936   5.888   9.799  1.00  0.00    -0.267 OA
ENDBRANCH   2   5
BRANCH   1  22
HETATM   22  C   UNL     1       4.525   2.001   4.369  1.00  0.00     0.108 C 
BRANCH  22  23
HETATM   23  C   UNL     1       4.182   0.517   4.433  1.00  0.00     0.050 C 
BRANCH  23  24
HETATM   24  C   UNL     1       3.686  -0.087   3.153  1.00  0.00    -0.030 A 
HETATM   25  C   UNL     1       3.497  -1.489   2.920  1.00  0.00    -0.002 A 
HETATM   26  C   UNL     1       3.006  -1.648   1.619  1.00  0.00     0.045 A 
HETATM   27  C   UNL     1       3.699  -2.638   3.715  1.00  0.00     0.014 A 
HETATM   28  N   UNL     1       2.899  -0.383   1.075  1.00  0.00    -0.352 N 
HETATM   29  C   UNL     1       2.714  -2.919   1.093  1.00  0.00     0.030 A 
HETATM   30  C   UNL     1       3.312   0.555   1.991  1.00  0.00     0.099 A 
HETATM   31  C   UNL     1       2.924  -4.039   1.902  1.00  0.00     0.002 A 
HETATM   32  C   UNL     1       3.411  -3.904   3.197  1.00  0.00     0.001 A 
BRANCH  28  33
HETATM   33  C   UNL     1       2.408  -0.065  -0.268  1.00  0.00     0.081 C 
HETATM   34  C   UNL     1       3.486   0.608  -1.119  1.00  0.00     0.032 C 
HETATM   35  C   UNL     1       1.130   0.774  -0.215  1.00  0.00     0.032 C 
ENDBRANCH  28  33
ENDBRANCH  23  24
ENDBRANCH  22  23
ENDBRANCH   1  22
TORSDOF 5
