REMARK  8 active torsions:
REMARK  status: ('A' for Active; 'I' for Inactive)
REMARK    1  A    between atoms: C_2  and  C_3 
REMARK    2  A    between atoms: C_3  and  N_4 
REMARK    3  A    between atoms: N_9  and  C_11 
REMARK    4  A    between atoms: C_11  and  C_12 
REMARK    5  A    between atoms: C_14  and  C_15 
REMARK    6  A    between atoms: C_15  and  C_16 
REMARK    7  A    between atoms: C_16  and  C_17 
REMARK    8  A    between atoms: C_17  and  O_18 
ROOT
HETATM    1  N   UNL     1       0.422   3.558   0.094  1.00  0.00    -0.066 N 
HETATM    2  H   UNL     1      -0.093   3.516  -0.793  1.00  0.00     0.280 HD
HETATM    3  C   UNL     1      -0.501   3.288   1.264  1.00  0.00     0.246 C 
HETATM    4  C   UNL     1      -1.665   4.296   1.298  1.00  0.00     0.009 C 
HETATM    5  C   UNL     1      -2.687   4.016   0.186  1.00  0.00     0.246 C 
HETATM    6  N   UNL     1      -3.999   4.572   0.691  1.00  0.00    -0.066 N 
HETATM    7  H   UNL     1      -4.127   5.519   0.306  1.00  0.00     0.280 HD
HETATM    8  C   UNL     1      -3.896   4.701   2.196  1.00  0.00     0.236 C 
HETATM    9  C   UNL     1      -2.549   4.075   2.539  1.00  0.00     0.040 C 
HETATM   10  C   UNL     1      -1.109   5.738   1.265  1.00  0.00     0.014 C 
HETATM   11  C   UNL     1      -0.071   5.966   0.162  1.00  0.00     0.029 C 
HETATM   12  C   UNL     1       1.048   4.930   0.184  1.00  0.00     0.235 C 
ENDROOT
BRANCH   1  13
HETATM   13  C   UNL     1       1.490   2.472  -0.072  1.00  0.00     0.273 C 
BRANCH  13  14
HETATM   14  C   UNL     1       0.875   1.138  -0.417  1.00  0.00    -0.032 A 
HETATM   15  C   UNL     1       0.209   0.951  -1.642  1.00  0.00     0.012 A 
HETATM   16  C   UNL     1      -0.435  -0.257  -1.917  1.00  0.00     0.043 A 
HETATM   17  C   UNL     1      -0.403  -1.283  -0.980  1.00  0.00     0.116 A 
HETATM   18  C   UNL     1       0.272  -1.128   0.223  1.00  0.00     0.043 A 
HETATM   19  F   UNL     1      -1.036  -2.432  -1.239  1.00  0.00    -0.206 F 
HETATM   20  C   UNL     1       0.913   0.080   0.507  1.00  0.00     0.012 A 
ENDBRANCH  13  14
ENDBRANCH   1  13
BRANCH   6  21
HETATM   21  C   UNL     1      -5.227   3.797   0.231  1.00  0.00     0.280 C 
BRANCH  21  22
HETATM   22  C   UNL     1      -5.339   3.753  -1.259  1.00  0.00     0.009 A 
HETATM   23  S   UNL     1      -4.797   2.368  -2.119  1.00  0.00    -0.084 SA
HETATM   24  C   UNL     1      -5.180   3.061  -3.628  1.00  0.00     0.058 A 
HETATM   25  C   UNL     1      -5.751   4.306  -3.487  1.00  0.00     0.029 A 
HETATM   26  C   UNL     1      -5.848   4.706  -2.120  1.00  0.00     0.018 A 
BRANCH  24  27
HETATM   27  C   UNL     1      -4.922   2.412  -4.871  1.00  0.00    -0.057 C 
BRANCH  27  28
HETATM   28  C   UNL     1      -4.669   1.871  -5.913  1.00  0.00    -0.075 C 
BRANCH  28  29
HETATM   29  C   UNL     1      -4.323   1.219  -7.175  1.00  0.00     0.258 C 
BRANCH  29  30
HETATM   30  O   UNL     1      -3.548   2.111  -7.961  1.00  0.00    -0.389 OA
HETATM   31  H   UNL     1      -4.166   2.761  -8.337  1.00  0.00     0.210 HD
ENDBRANCH  29  30
ENDBRANCH  28  29
ENDBRANCH  27  28
ENDBRANCH  24  27
ENDBRANCH  21  22
ENDBRANCH   6  21
TORSDOF 8
