REMARK  4 active torsions:
REMARK  status: ('A' for Active; 'I' for Inactive)
REMARK       I    between atoms: N_10  and  C_11 
REMARK    1  A    between atoms: C_11  and  C_12 
REMARK    2  A    between atoms: C_14  and  O_15 
REMARK    3  A    between atoms: O_15  and  C_16 
REMARK    4  A    between atoms: C_16  and  C_17 
ROOT
HETATM    1  C   UNL     1      -3.917  -3.327   1.587  1.00  0.00     0.034 A 
HETATM    2  C   UNL     1      -2.645  -3.561   2.126  1.00  0.00     0.053 A 
HETATM    3  C   UNL     1      -2.366  -4.790   2.723  1.00  0.00     0.070 A 
HETATM    4  C   UNL     1      -3.368  -5.765   2.787  1.00  0.00     0.037 A 
HETATM    5  C   UNL     1      -4.644  -5.519   2.278  1.00  0.00     0.004 A 
HETATM    6  C   UNL     1      -4.925  -4.292   1.684  1.00  0.00     0.017 A 
ENDROOT
BRANCH   1   7
HETATM    7  C   UNL     1      -4.198  -2.005   0.985  1.00  0.00     0.254 C 
HETATM    8  N   UNL     1      -4.639  -1.939  -0.333  1.00  0.00    -0.343 N 
HETATM    9  C   UNL     1      -4.726  -3.107  -1.238  1.00  0.00     0.167 C 
HETATM   10  C   UNL     1      -5.150  -0.647  -0.834  1.00  0.00     0.132 C 
HETATM   11  C   UNL     1      -4.558  -2.688  -2.663  1.00  0.00    -0.005 A 
HETATM   12  C   UNL     1      -4.504  -3.488  -3.842  1.00  0.00     0.000 A 
HETATM   13  C   UNL     1      -4.448  -1.374  -3.065  1.00  0.00     0.020 A 
HETATM   14  C   UNL     1      -4.570  -4.873  -4.095  1.00  0.00     0.014 A 
HETATM   15  C   UNL     1      -4.359  -2.615  -4.925  1.00  0.00     0.043 A 
HETATM   16  C   UNL     1      -4.493  -5.335  -5.414  1.00  0.00     0.001 A 
HETATM   17  C   UNL     1      -4.352  -4.442  -6.474  1.00  0.00     0.002 A 
HETATM   18  C   UNL     1      -4.281  -3.064  -6.250  1.00  0.00     0.030 A 
HETATM   19  N   UNL     1      -4.316  -1.332  -4.421  1.00  0.00    -0.358 N 
HETATM   20  H   UNL     1      -4.211  -0.498  -4.982  1.00  0.00     0.166 HD
HETATM   21  C   UNL     1      -4.469  -0.208  -2.145  1.00  0.00     0.077 C 
HETATM   22  O   UNL     1      -4.024  -1.019   1.698  1.00  0.00    -0.267 OA
ENDBRANCH   1   7
BRANCH   3  23
HETATM   23  O   UNL     1      -1.176  -5.167   3.279  1.00  0.00    -0.345 OA
BRANCH  23  24
HETATM   24  C   UNL     1      -0.112  -4.207   3.272  1.00  0.00     0.236 C 
BRANCH  24  25
HETATM   25  C   UNL     1       1.138  -4.789   3.852  1.00  0.00     0.077 A 
HETATM   26  N   UNL     1       2.379  -4.401   3.383  1.00  0.00    -0.232 NA
HETATM   27  C   UNL     1       3.253  -5.104   4.072  1.00  0.00     0.134 A 
HETATM   28  N   UNL     1       2.625  -5.937   4.991  1.00  0.00    -0.316 N 
HETATM   29  C   UNL     1       4.676  -5.152   4.021  1.00  0.00     0.051 A 
HETATM   30  C   UNL     1       1.278  -5.725   4.860  1.00  0.00     0.127 A 
HETATM   31  C   UNL     1       3.310  -6.799   5.844  1.00  0.00     0.098 A 
HETATM   32  C   UNL     1       4.652  -6.843   5.789  1.00  0.00     0.018 A 
HETATM   33  C   UNL     1       5.347  -5.985   4.841  1.00  0.00     0.005 A 
ENDBRANCH  24  25
ENDBRANCH  23  24
ENDBRANCH   3  23
TORSDOF 4
