REMARK  7 active torsions:
REMARK  status: ('A' for Active; 'I' for Inactive)
REMARK    1  A    between atoms: C_2  and  C_3 
REMARK    2  A    between atoms: C_3  and  N_4 
REMARK    3  A    between atoms: C_3  and  C_15 
REMARK       I    between atoms: N_4  and  C_5 
REMARK    4  A    between atoms: C_5  and  C_6 
REMARK    5  A    between atoms: C_9  and  O_10 
REMARK    6  A    between atoms: C_15  and  N_16 
REMARK    7  A    between atoms: C_18  and  C_19 
ROOT
HETATM    1  C   UNL     1       3.074  -1.544  -0.475  1.00  0.00     0.107 C 
ENDROOT
BRANCH   1   2
HETATM    2  C   UNL     1       2.401  -2.299  -1.654  1.00  0.00     0.002 C 
HETATM    3  C   UNL     1       2.873  -3.750  -1.798  1.00  0.00     0.011 C 
HETATM    4  C   UNL     1       2.583  -1.568  -2.988  1.00  0.00     0.011 C 
ENDBRANCH   1   2
BRANCH   1   5
HETATM    5  N   UNL     1       4.537  -1.550  -0.581  1.00  0.00    -0.354 N 
HETATM    6  C   UNL     1       5.256  -0.524  -1.154  1.00  0.00     0.222 C 
HETATM    7  O   UNL     1       4.729   0.435  -1.707  1.00  0.00    -0.273 OA
HETATM    8  H   UNL     1       5.042  -2.195   0.025  1.00  0.00     0.162 HD
BRANCH   6   9
HETATM    9  C   UNL     1       6.772  -0.683  -1.003  1.00  0.00     0.078 C 
HETATM   10  C   UNL     1       7.290  -1.952  -1.694  1.00  0.00     0.016 C 
HETATM   11  C   UNL     1       7.372  -1.805  -3.216  1.00  0.00     0.033 C 
HETATM   12  C   UNL     1       8.205  -0.589  -3.632  1.00  0.00     0.120 C 
HETATM   13  C   UNL     1       7.631   0.679  -2.996  1.00  0.00     0.033 C 
HETATM   14  C   UNL     1       7.534   0.566  -1.472  1.00  0.00     0.016 C 
BRANCH  12  15
HETATM   15  O   UNL     1       9.553  -0.831  -3.209  1.00  0.00    -0.391 OA
HETATM   16  C   UNL     1      10.509   0.015  -3.832  1.00  0.00     0.202 C 
ENDBRANCH  12  15
ENDBRANCH   6   9
ENDBRANCH   1   5
BRANCH   1  17
HETATM   17  C   UNL     1       2.619  -2.124   0.888  1.00  0.00     0.180 C 
BRANCH  17  18
HETATM   18  N   UNL     1       3.096  -1.333   2.023  1.00  0.00    -0.232 N 
HETATM   19  N   UNL     1       2.235  -0.364   2.488  1.00  0.00    -0.168 NA
HETATM   20  C   UNL     1       2.625   0.410   3.460  1.00  0.00     0.094 A 
HETATM   21  C   UNL     1       3.966   0.288   4.085  1.00  0.00     0.040 A 
HETATM   22  C   UNL     1       4.793  -0.646   3.612  1.00  0.00     0.078 A 
HETATM   23  C   UNL     1       4.384  -1.524   2.501  1.00  0.00     0.263 A 
HETATM   24  O   UNL     1       5.183  -2.346   2.056  1.00  0.00    -0.267 OA
BRANCH  20  25
HETATM   25  C   UNL     1       1.675   1.424   3.919  1.00  0.00     0.035 A 
HETATM   26  S   UNL     1       1.978   2.447   5.263  1.00  0.00    -0.100 SA
HETATM   27  C   UNL     1       0.477   3.243   5.104  1.00  0.00     0.050 A 
HETATM   28  C   UNL     1      -0.257   2.749   4.051  1.00  0.00     0.008 A 
HETATM   29  C   UNL     1       0.431   1.703   3.372  1.00  0.00     0.022 A 
ENDBRANCH  20  25
ENDBRANCH  17  18
ENDBRANCH   1  17
TORSDOF 7
