REMARK  7 active torsions:
REMARK  status: ('A' for Active; 'I' for Inactive)
REMARK    1  A    between atoms: N_3  and  N_4 
REMARK       I    between atoms: N_4  and  C_5 
REMARK    2  A    between atoms: C_5  and  C_6 
REMARK    3  A    between atoms: C_9  and  O_10 
REMARK    4  A    between atoms: O_10  and  C_11 
REMARK    5  A    between atoms: C_11  and  C_12 
REMARK       I    between atoms: C_12  and  N_13 
REMARK    6  A    between atoms: N_13  and  C_14 
REMARK    7  A    between atoms: C_17  and  O_18 
ROOT
HETATM    1  C   UNL     1       5.007   3.426  -0.426  1.00  0.00     0.033 A 
HETATM    2  C   UNL     1       5.893   4.349   0.143  1.00  0.00     0.020 A 
HETATM    3  C   UNL     1       7.251   4.036   0.244  1.00  0.00     0.038 A 
HETATM    4  C   UNL     1       7.729   2.802  -0.203  1.00  0.00     0.069 A 
HETATM    5  C   UNL     1       6.853   1.891  -0.794  1.00  0.00     0.038 A 
HETATM    6  C   UNL     1       5.495   2.205  -0.908  1.00  0.00     0.020 A 
ENDROOT
BRANCH   4   7
HETATM    7  O   UNL     1       9.079   2.613  -0.089  1.00  0.00    -0.342 OA
BRANCH   7   8
HETATM    8  C   UNL     1       9.488   1.295   0.270  1.00  0.00     0.278 C 
BRANCH   8   9
HETATM    9  C   UNL     1       9.968   0.427  -0.899  1.00  0.00     0.246 C 
HETATM   10  N   UNL     1      10.074   1.129  -2.086  1.00  0.00    -0.325 N 
HETATM   11  H   UNL     1       9.795   2.105  -2.036  1.00  0.00     0.169 HD
HETATM   12  O   UNL     1      10.218  -0.762  -0.725  1.00  0.00    -0.271 OA
BRANCH  10  13
HETATM   13  C   UNL     1      10.454   0.639  -3.349  1.00  0.00     0.035 A 
HETATM   14  C   UNL     1      10.882  -0.666  -3.583  1.00  0.00     0.032 A 
HETATM   15  C   UNL     1      11.224  -1.077  -4.876  1.00  0.00     0.039 A 
HETATM   16  C   UNL     1      11.135  -0.196  -5.954  1.00  0.00     0.068 A 
HETATM   17  C   UNL     1      10.724   1.115  -5.724  1.00  0.00     0.039 A 
HETATM   18  C   UNL     1      10.388   1.529  -4.428  1.00  0.00     0.032 A 
BRANCH  16  19
HETATM   19  O   UNL     1      11.483  -0.730  -7.163  1.00  0.00    -0.356 OA
HETATM   20  C   UNL     1      11.174   0.044  -8.315  1.00  0.00     0.210 C 
ENDBRANCH  16  19
ENDBRANCH  10  13
ENDBRANCH   8   9
ENDBRANCH   7   8
ENDBRANCH   4   7
BRANCH   1  21
HETATM   21  C   UNL     1       3.556   3.723  -0.576  1.00  0.00     0.270 C 
HETATM   22  N   UNL     1       3.010   4.497   0.419  1.00  0.00    -0.259 N 
HETATM   23  H   UNL     1       3.482   4.712   1.283  1.00  0.00     0.191 HD
HETATM   24  O   UNL     1       2.945   3.255  -1.529  1.00  0.00    -0.266 OA
BRANCH  22  25
HETATM   25  N   UNL     1       1.690   4.758   0.411  1.00  0.00    -0.263 N 
HETATM   26  C   UNL     1       1.166   5.957   0.017  1.00  0.00     0.030 A 
HETATM   27  C   UNL     1       1.964   7.027  -0.633  1.00  0.00     0.070 C 
HETATM   28  C   UNL     1      -0.181   5.917   0.330  1.00  0.00     0.028 A 
HETATM   29  C   UNL     1      -0.443   4.671   0.955  1.00  0.00     0.028 A 
HETATM   30  C   UNL     1       0.749   3.971   1.016  1.00  0.00     0.030 A 
HETATM   31  C   UNL     1       1.034   2.620   1.562  1.00  0.00     0.070 C 
ENDBRANCH  22  25
ENDBRANCH   1  21
TORSDOF 7
