REMARK  3 active torsions:
REMARK  status: ('A' for Active; 'I' for Inactive)
REMARK    1  A    between atoms: C_6  and  N_7 
REMARK       I    between atoms: N_7  and  C_8 
REMARK    2  A    between atoms: C_8  and  C_9 
REMARK    3  A    between atoms: C_9  and  C_10 
ROOT
HETATM    1  C   UNL     1      -2.664  -0.070  -0.305  1.00  0.00     0.286 C 
HETATM    2  N   UNL     1      -2.195  -0.438   1.099  1.00  0.00    -0.056 N 
HETATM    3  H   UNL     1      -1.488   0.288   1.347  1.00  0.00     0.278 HD
HETATM    4  H   UNL     1      -2.952  -0.337   1.784  1.00  0.00     0.278 HD
HETATM    5  C   UNL     1      -1.528  -1.780   1.212  1.00  0.00     0.209 C 
HETATM    6  C   UNL     1      -0.393  -1.887   0.162  1.00  0.00     0.115 C 
HETATM    7  N   UNL     1      -0.811  -1.477  -1.178  1.00  0.00    -0.353 N 
HETATM    8  C   UNL     1      -1.630  -0.395  -1.401  1.00  0.00     0.249 C 
HETATM    9  O   UNL     1      -1.590   0.195  -2.475  1.00  0.00    -0.271 OA
HETATM   10  C   UNL     1      -2.572  -2.893   1.098  1.00  0.00     0.035 C 
HETATM   11  C   UNL     1      -1.912  -4.268   1.113  1.00  0.00     0.002 C 
HETATM   12  C   UNL     1      -0.857  -4.388   0.018  1.00  0.00     0.002 C 
HETATM   13  C   UNL     1       0.207  -3.297   0.139  1.00  0.00     0.027 C 
HETATM   14  H   UNL     1      -0.142  -1.605  -1.936  1.00  0.00     0.163 HD
ENDROOT
BRANCH   1  15
HETATM   15  C   UNL     1      -3.126   1.394  -0.382  1.00  0.00     0.146 C 
BRANCH  15  16
HETATM   16  C   UNL     1      -2.071   2.338   0.131  1.00  0.00     0.224 C 
HETATM   17  N   UNL     1      -2.173   3.687   0.024  1.00  0.00    -0.327 N 
HETATM   18  H   UNL     1      -1.354   4.148   0.413  1.00  0.00     0.169 HD
HETATM   19  O   UNL     1      -1.104   1.863   0.745  1.00  0.00    -0.273 OA
BRANCH  17  20
HETATM   20  C   UNL     1      -3.149   4.566  -0.490  1.00  0.00     0.037 A 
HETATM   21  C   UNL     1      -4.374   4.200  -1.043  1.00  0.00     0.071 A 
HETATM   22  C   UNL     1      -5.251   5.180  -1.515  1.00  0.00     0.118 A 
HETATM   23  C   UNL     1      -4.942   6.529  -1.441  1.00  0.00     0.042 A 
HETATM   24  F   UNL     1      -6.420   4.799  -2.047  1.00  0.00    -0.206 F 
HETATM   25  C   UNL     1      -3.730   6.912  -0.882  1.00  0.00     0.005 A 
HETATM   26  C   UNL     1      -2.843   5.937  -0.412  1.00  0.00     0.029 A 
ENDBRANCH  17  20
ENDBRANCH  15  16
ENDBRANCH   1  15
TORSDOF 3
