REMARK  3 active torsions:
REMARK  status: ('A' for Active; 'I' for Inactive)
REMARK    1  A    between atoms: N_9  and  C_10 
REMARK    2  A    between atoms: C_10  and  C_11 
REMARK    3  A    between atoms: C_11  and  C_12 
REMARK       I    between atoms: C_12  and  N_13 
ROOT
HETATM    1  C   UNL     1       6.661   4.152   0.167  1.00  0.00     0.221 C 
HETATM    2  N   UNL     1       7.792   3.334   0.084  1.00  0.00    -0.352 N 
HETATM    3  C   UNL     1       8.641   3.020   1.234  1.00  0.00     0.129 C 
HETATM    4  C   UNL     1       9.331   1.670   1.087  1.00  0.00     0.068 C 
HETATM    5  C   UNL     1      10.068   1.524  -0.253  1.00  0.00     0.094 C 
HETATM    6  N   UNL     1      10.551   0.163  -0.363  1.00  0.00    -0.334 N 
HETATM    7  C   UNL     1      11.526  -0.212  -1.248  1.00  0.00     0.255 C 
HETATM    8  O   UNL     1      11.648  -1.377  -1.605  1.00  0.00    -0.268 OA
HETATM    9  C   UNL     1      12.426   0.857  -1.716  1.00  0.00     0.053 A 
HETATM   10  C   UNL     1      12.233   2.143  -1.201  1.00  0.00     0.026 A 
HETATM   11  N   UNL     1      11.235   2.407  -0.252  1.00  0.00    -0.265 NA
HETATM   12  C   UNL     1      13.457   0.576  -2.619  1.00  0.00     0.019 A 
HETATM   13  C   UNL     1      14.333   1.592  -2.995  1.00  0.00     0.001 A 
HETATM   14  C   UNL     1      14.185   2.869  -2.455  1.00  0.00     0.002 A 
HETATM   15  C   UNL     1      13.151   3.138  -1.552  1.00  0.00     0.024 A 
HETATM   16  C   UNL     1       9.107   1.847  -1.408  1.00  0.00     0.068 C 
HETATM   17  C   UNL     1       8.412   3.189  -1.231  1.00  0.00     0.129 C 
HETATM   18  O   UNL     1       6.100   4.594  -0.835  1.00  0.00    -0.273 OA
HETATM   19  H   UNL     1       9.919  -0.593  -0.138  1.00  0.00     0.164 HD
HETATM   20  H   UNL     1      11.015   3.397  -0.199  1.00  0.00     0.130 HD
ENDROOT
BRANCH   1  21
HETATM   21  C   UNL     1       6.144   4.475   1.554  1.00  0.00     0.123 C 
BRANCH  21  22
HETATM   22  C   UNL     1       4.868   5.307   1.488  1.00  0.00     0.138 C 
BRANCH  22  23
HETATM   23  N   UNL     1       4.453   5.746   2.815  1.00  0.00    -0.349 N 
HETATM   24  C   UNL     1       4.882   6.920   3.408  1.00  0.00     0.045 A 
HETATM   25  C   UNL     1       4.288   6.980   4.670  1.00  0.00    -0.001 A 
HETATM   26  C   UNL     1       5.741   7.931   2.943  1.00  0.00     0.030 A 
HETATM   27  C   UNL     1       3.483   5.808   4.825  1.00  0.00    -0.027 A 
HETATM   28  C   UNL     1       4.564   8.093   5.494  1.00  0.00     0.014 A 
HETATM   29  C   UNL     1       2.659   5.453   6.014  1.00  0.00     0.051 C 
HETATM   30  C   UNL     1       3.608   5.060   3.663  1.00  0.00     0.015 A 
HETATM   31  C   UNL     1       2.970   3.761   3.307  1.00  0.00     0.069 C 
HETATM   32  C   UNL     1       5.415   9.105   5.038  1.00  0.00     0.001 A 
HETATM   33  C   UNL     1       5.995   9.023   3.778  1.00  0.00     0.002 A 
ENDBRANCH  22  23
ENDBRANCH  21  22
ENDBRANCH   1  21
TORSDOF 3
