REMARK  10 active torsions:
REMARK  status: ('A' for Active; 'I' for Inactive)
REMARK    1  A    between atoms: N_2  and  C_4 
REMARK    2  A    between atoms: C_4  and  C_5 
REMARK    3  A    between atoms: N_6  and  C_7 
REMARK    4  A    between atoms: C_11  and  N_12 
REMARK    5  A    between atoms: C_15  and  C_16 
REMARK       I    between atoms: C_16  and  N_17 
REMARK    6  A    between atoms: N_17  and  N_18 
REMARK    7  A    between atoms: C_19  and  C_20 
REMARK    8  A    between atoms: C_22  and  O_23 
REMARK    9  A    between atoms: O_23  and  C_24 
REMARK   10  A    between atoms: C_24  and  C_25 
ROOT
HETATM    1  C   UNL     1       2.724   0.509   2.949  1.00  0.00     0.293 C 
HETATM    2  N   UNL     1       1.904   1.059   3.914  1.00  0.00    -0.242 N 
HETATM    3  O   UNL     1       3.394  -0.518   3.071  1.00  0.00    -0.264 OA
HETATM    4  H   UNL     1       1.394   1.921   3.736  1.00  0.00     0.192 HD
ENDROOT
BRANCH   1   5
HETATM    5  C   UNL     1       2.784   1.254   1.699  1.00  0.00     0.170 A 
HETATM    6  C   UNL     1       3.371   0.818   0.517  1.00  0.00     0.096 A 
HETATM    7  N   UNL     1       3.264   1.910  -0.344  1.00  0.00    -0.215 N 
HETATM    8  N   UNL     1       2.537   2.878   0.282  1.00  0.00     0.012 NA
HETATM    9  N   UNL     1       2.269   2.500   1.521  1.00  0.00    -0.152 NA
BRANCH   6  10
HETATM   10  C   UNL     1       3.915  -0.523   0.184  1.00  0.00     0.295 C 
BRANCH  10  11
HETATM   11  N   UNL     1       5.058  -0.962   1.065  1.00  0.00    -0.073 N 
HETATM   12  C   UNL     1       6.297  -0.136   0.911  1.00  0.00     0.269 C 
HETATM   13  H   UNL     1       4.714  -0.859   2.043  1.00  0.00     0.279 HD
HETATM   14  C   UNL     1       5.347  -2.428   0.921  1.00  0.00     0.269 C 
ENDBRANCH  10  11
ENDBRANCH   6  10
BRANCH   7  15
HETATM   15  C   UNL     1       3.820   2.103  -1.631  1.00  0.00     0.225 A 
HETATM   16  N   UNL     1       4.654   1.197  -2.146  1.00  0.00    -0.081 NA
HETATM   17  O   UNL     1       5.008   1.734  -3.386  1.00  0.00    -0.103 OA
HETATM   18  N   UNL     1       4.401   2.964  -3.590  1.00  0.00    -0.083 NA
HETATM   19  C   UNL     1       3.668   3.195  -2.503  1.00  0.00     0.201 A 
BRANCH  19  20
HETATM   20  N   UNL     1       2.921   4.294  -2.310  1.00  0.00    -0.379 N 
HETATM   21  H   UNL     1       2.963   5.061  -2.975  1.00  0.00     0.158 HD
HETATM   22  H   UNL     1       2.461   4.517  -1.430  1.00  0.00     0.158 HD
ENDBRANCH  19  20
ENDBRANCH   7  15
ENDBRANCH   1   5
BRANCH   2  23
HETATM   23  N   UNL     1       1.743   0.398   5.093  1.00  0.00    -0.184 NA
HETATM   24  C   UNL     1       0.946   0.939   5.959  1.00  0.00     0.150 C 
BRANCH  24  25
HETATM   25  C   UNL     1       0.680   0.287   7.259  1.00  0.00    -0.014 A 
HETATM   26  C   UNL     1      -0.182   0.900   8.172  1.00  0.00     0.049 A 
HETATM   27  C   UNL     1      -0.465   0.278   9.392  1.00  0.00     0.070 A 
HETATM   28  C   UNL     1       0.139  -0.944   9.701  1.00  0.00     0.037 A 
HETATM   29  C   UNL     1       1.005  -1.551   8.790  1.00  0.00     0.004 A 
HETATM   30  C   UNL     1       1.275  -0.940   7.568  1.00  0.00     0.013 A 
BRANCH  27  31
HETATM   31  O   UNL     1      -1.321   0.965  10.211  1.00  0.00    -0.346 OA
BRANCH  31  32
HETATM   32  C   UNL     1      -1.989   0.188  11.209  1.00  0.00     0.219 C 
BRANCH  32  33
HETATM   33  C   UNL     1      -3.068   1.015  11.858  1.00  0.00     0.026 A 
HETATM   34  C   UNL     1      -4.183   1.500  11.160  1.00  0.00     0.045 A 
HETATM   35 CL   UNL     1      -4.412   1.187   9.475  1.00  0.00    -0.084 Cl
HETATM   36  C   UNL     1      -5.171   2.244  11.818  1.00  0.00     0.024 A 
HETATM   37  C   UNL     1      -5.064   2.508  13.184  1.00  0.00     0.005 A 
HETATM   38  C   UNL     1      -3.967   2.027  13.891  1.00  0.00     0.043 A 
HETATM   39  C   UNL     1      -2.987   1.292  13.227  1.00  0.00     0.126 A 
HETATM   40  F   UNL     1      -1.950   0.830  13.942  1.00  0.00    -0.205 F 
ENDBRANCH  32  33
ENDBRANCH  31  32
ENDBRANCH  27  31
ENDBRANCH  24  25
ENDBRANCH   2  23
TORSDOF 10
