REMARK  6 active torsions:
REMARK  status: ('A' for Active; 'I' for Inactive)
REMARK    1  A    between atoms: C_2  and  C_3 
REMARK    2  A    between atoms: C_7  and  C_8 
REMARK       I    between atoms: C_8  and  N_9 
REMARK    3  A    between atoms: N_9  and  C_10 
REMARK    4  A    between atoms: C_13  and  C_14 
REMARK       I    between atoms: C_14  and  N_15 
REMARK    5  A    between atoms: N_15  and  C_16 
REMARK    6  A    between atoms: C_16  and  C_17 
ROOT
HETATM    1  C   UNL     1       0.313  -4.444  -0.922  1.00  0.00     0.035 A 
HETATM    2  C   UNL     1      -0.611  -4.672  -1.944  1.00  0.00     0.030 A 
HETATM    3  C   UNL     1      -1.481  -3.655  -2.362  1.00  0.00     0.019 A 
HETATM    4  C   UNL     1      -1.430  -2.394  -1.761  1.00  0.00     0.032 A 
HETATM    5  C   UNL     1      -0.533  -2.173  -0.712  1.00  0.00     0.019 A 
HETATM    6  C   UNL     1       0.333  -3.190  -0.298  1.00  0.00     0.030 A 
ENDROOT
BRANCH   1   7
HETATM    7  N   UNL     1       1.248  -5.396  -0.471  1.00  0.00    -0.322 N 
HETATM    8  C   UNL     1       1.468  -6.670  -0.960  1.00  0.00     0.274 C 
HETATM    9  O   UNL     1       0.841  -7.197  -1.872  1.00  0.00    -0.266 OA
HETATM   10  H   UNL     1       1.853  -5.093   0.279  1.00  0.00     0.169 HD
BRANCH   8  11
HETATM   11  C   UNL     1       2.547  -7.379  -0.312  1.00  0.00     0.120 A 
HETATM   12  N   UNL     1       2.903  -8.640  -0.711  1.00  0.00    -0.273 N 
HETATM   13  N   UNL     1       3.928  -9.167  -0.022  1.00  0.00    -0.179 NA
HETATM   14  H   UNL     1       2.477  -9.185  -1.454  1.00  0.00     0.189 HD
HETATM   15  C   UNL     1       4.248  -8.214   0.859  1.00  0.00     0.056 A 
HETATM   16  C   UNL     1       3.415  -7.078   0.721  1.00  0.00     0.065 A 
BRANCH  15  17
HETATM   17  C   UNL     1       5.365  -8.422   1.826  1.00  0.00     0.056 C 
HETATM   18  C   UNL     1       4.881  -8.987   3.153  1.00  0.00     0.011 C 
ENDBRANCH  15  17
ENDBRANCH   8  11
ENDBRANCH   1   7
BRANCH   4  19
HETATM   19  C   UNL     1      -2.284  -1.258  -2.203  1.00  0.00     0.251 C 
HETATM   20  N   UNL     1      -2.649  -1.246  -3.530  1.00  0.00    -0.353 N 
HETATM   21  H   UNL     1      -2.368  -1.990  -4.152  1.00  0.00     0.163 HD
HETATM   22  O   UNL     1      -2.578  -0.367  -1.415  1.00  0.00    -0.268 OA
BRANCH  20  23
HETATM   23  C   UNL     1      -3.385  -0.137  -4.096  1.00  0.00     0.161 C 
BRANCH  23  24
HETATM   24  C   UNL     1      -3.119   0.008  -5.575  1.00  0.00    -0.040 A 
HETATM   25  C   UNL     1      -4.182   0.203  -6.471  1.00  0.00     0.012 A 
HETATM   26  C   UNL     1      -3.936   0.365  -7.836  1.00  0.00     0.043 A 
HETATM   27  C   UNL     1      -2.629   0.337  -8.307  1.00  0.00     0.116 A 
HETATM   28  F   UNL     1      -2.396   0.491  -9.617  1.00  0.00    -0.206 F 
HETATM   29  C   UNL     1      -1.560   0.160  -7.438  1.00  0.00     0.043 A 
HETATM   30  C   UNL     1      -1.803   0.005  -6.073  1.00  0.00     0.012 A 
ENDBRANCH  23  24
ENDBRANCH  20  23
ENDBRANCH   4  19
TORSDOF 6
