REMARK  5 active torsions:
REMARK  status: ('A' for Active; 'I' for Inactive)
REMARK    1  A    between atoms: C_2  and  N_3 
REMARK    2  A    between atoms: C_14  and  C_17 
REMARK       I    between atoms: C_17  and  N_19 
REMARK    3  A    between atoms: N_19  and  C_20 
REMARK    4  A    between atoms: C_20  and  C_22 
REMARK    5  A    between atoms: C_26  and  O_27 
ROOT
HETATM    1  N   UNL     1       2.198   2.481   0.836  1.00  0.00    -0.008 N 
HETATM    2  H   UNL     1       1.924   3.103   0.085  1.00  0.00     0.293 HD
HETATM    3  C   UNL     1       3.438   1.908   0.522  1.00  0.00     0.169 A 
HETATM    4  C   UNL     1       3.827   1.071  -0.555  1.00  0.00     0.154 A 
HETATM    5  N   UNL     1       5.091   0.595  -0.711  1.00  0.00    -0.271 NA
HETATM    6  C   UNL     1       6.031   0.941   0.189  1.00  0.00     0.117 A 
HETATM    7  C   UNL     1       5.786   1.757   1.267  1.00  0.00     0.034 A 
HETATM    8  C   UNL     1       4.482   2.250   1.437  1.00  0.00     0.014 A 
HETATM    9  C   UNL     1       3.848   3.122   2.408  1.00  0.00     0.012 A 
HETATM   10  C   UNL     1       4.300   3.805   3.554  1.00  0.00     0.016 A 
HETATM   11  C   UNL     1       3.417   4.590   4.280  1.00  0.00     0.018 A 
HETATM   12  C   UNL     1       2.087   4.711   3.862  1.00  0.00     0.034 A 
HETATM   13  C   UNL     1       1.631   4.065   2.706  1.00  0.00     0.055 A 
HETATM   14  C   UNL     1       2.491   3.223   1.973  1.00  0.00     0.152 A 
ENDROOT
BRANCH  12  15
HETATM   15  C   UNL     1       1.182   5.568   4.686  1.00  0.00     0.252 C 
HETATM   16  O   UNL     1       1.656   6.371   5.483  1.00  0.00    -0.268 OA
HETATM   17  N   UNL     1      -0.174   5.386   4.523  1.00  0.00    -0.349 N 
HETATM   18  H   UNL     1      -0.520   4.618   3.970  1.00  0.00     0.163 HD
BRANCH  17  19
HETATM   19  C   UNL     1      -1.150   6.123   5.310  1.00  0.00     0.114 C 
HETATM   20  C   UNL     1      -1.391   5.442   6.660  1.00  0.00     0.037 C 
BRANCH  19  21
HETATM   21  C   UNL     1      -2.428   6.287   4.506  1.00  0.00    -0.033 A 
HETATM   22  C   UNL     1      -2.801   7.564   4.057  1.00  0.00     0.009 A 
HETATM   23  C   UNL     1      -3.954   7.739   3.295  1.00  0.00     0.003 A 
HETATM   24  C   UNL     1      -4.741   6.637   2.963  1.00  0.00     0.037 A 
HETATM   25  C   UNL     1      -4.386   5.356   3.386  1.00  0.00     0.068 A 
HETATM   26  C   UNL     1      -3.235   5.185   4.161  1.00  0.00     0.046 A 
BRANCH  25  27
HETATM   27  O   UNL     1      -5.236   4.365   2.978  1.00  0.00    -0.356 OA
HETATM   28  C   UNL     1      -4.881   3.030   3.311  1.00  0.00     0.210 C 
ENDBRANCH  25  27
ENDBRANCH  19  21
ENDBRANCH  17  19
ENDBRANCH  12  15
BRANCH   1  29
HETATM   29  C   UNL     1       1.090   1.503   0.976  1.00  0.00     0.244 C 
HETATM   30  C   UNL     1       1.280   0.467   2.082  1.00  0.00     0.035 C 
ENDBRANCH   1  29
TORSDOF 5
