REMARK  3 active torsions:
REMARK  status: ('A' for Active; 'I' for Inactive)
REMARK    1  A    between atoms: C_6  and  C_7 
REMARK       I    between atoms: C_7  and  N_8 
REMARK    2  A    between atoms: N_8  and  C_9 
REMARK    3  A    between atoms: C_9  and  C_10 
ROOT
HETATM    1  C   UNL     1       7.638   0.657  -0.266  1.00  0.00     0.271 C 
HETATM    2  N   UNL     1       8.849   0.268   0.251  1.00  0.00    -0.341 N 
HETATM    3  O   UNL     1       7.488   1.750  -0.803  1.00  0.00    -0.266 OA
HETATM    4  H   UNL     1       8.883  -0.571   0.818  1.00  0.00     0.164 HD
ENDROOT
BRANCH   1   5
HETATM    5  C   UNL     1       6.565  -0.298  -0.108  1.00  0.00     0.133 A 
HETATM    6  N   UNL     1       5.217   0.035  -0.067  1.00  0.00    -0.300 N 
HETATM    7  C   UNL     1       4.508  -1.155   0.068  1.00  0.00     0.135 A 
HETATM    8  C   UNL     1       4.581   1.279  -0.121  1.00  0.00     0.100 A 
HETATM    9  C   UNL     1       3.088  -1.078   0.134  1.00  0.00     0.057 A 
HETATM   10  N   UNL     1       5.308  -2.194   0.108  1.00  0.00    -0.233 NA
HETATM   11  C   UNL     1       2.464   0.118   0.073  1.00  0.00    -0.057 A 
HETATM   12  C   UNL     1       0.973   0.259   0.126  1.00  0.00     0.048 C 
HETATM   13  C   UNL     1       3.241   1.348  -0.055  1.00  0.00     0.024 A 
HETATM   14  C   UNL     1       6.580  -1.689  -0.018  1.00  0.00     0.066 A 
HETATM   15  C   UNL     1       7.715  -2.644  -0.078  1.00  0.00     0.073 C 
ENDBRANCH   1   5
BRANCH   2  16
HETATM   16  C   UNL     1      10.095   1.058   0.218  1.00  0.00     0.079 C 
HETATM   17  C   UNL     1      10.495   1.368  -1.236  1.00  0.00     0.046 C 
HETATM   18  C   UNL     1       9.925   2.355   1.029  1.00  0.00     0.046 C 
BRANCH  16  19
HETATM   19  C   UNL     1      11.160   0.172   0.871  1.00  0.00     0.128 A 
HETATM   20  S   UNL     1      12.809   0.650   1.034  1.00  0.00    -0.031 SA
HETATM   21  C   UNL     1      13.106  -0.857   1.799  1.00  0.00     0.187 A 
HETATM   22  N   UNL     1      14.333  -1.199   2.230  1.00  0.00    -0.377 N 
HETATM   23  N   UNL     1      12.040  -1.618   1.899  1.00  0.00    -0.124 NA
HETATM   24  H   UNL     1      15.135  -0.729   1.828  1.00  0.00     0.158 HD
HETATM   25  H   UNL     1      14.479  -2.184   2.426  1.00  0.00     0.158 HD
HETATM   26  N   UNL     1      10.914  -1.028   1.366  1.00  0.00    -0.142 NA
ENDBRANCH  16  19
ENDBRANCH   2  16
TORSDOF 3
