REMARK  6 active torsions:
REMARK  status: ('A' for Active; 'I' for Inactive)
REMARK    1  A    between atoms: C_2  and  C_3 
REMARK       I    between atoms: C_3  and  N_4 
REMARK    2  A    between atoms: N_4  and  C_5 
REMARK    3  A    between atoms: C_8  and  N_9 
REMARK       I    between atoms: N_9  and  C_10 
REMARK    4  A    between atoms: C_10  and  C_11 
REMARK    5  A    between atoms: C_16  and  C_17 
REMARK    6  A    between atoms: C_23  and  C_24 
ROOT
HETATM    1  C   UNL     1      -4.395   4.011  -1.082  1.00  0.00     0.148 A 
HETATM    2  N   UNL     1      -3.199   4.347  -0.548  1.00  0.00    -0.165 NA
HETATM    3  N   UNL     1      -3.261   5.689  -0.441  1.00  0.00    -0.240 N 
HETATM    4  C   UNL     1      -4.435   6.221  -0.907  1.00  0.00     0.123 A 
HETATM    5  N   UNL     1      -4.663   7.553  -0.900  1.00  0.00    -0.364 N 
HETATM    6  C   UNL     1      -3.557   8.495  -0.708  1.00  0.00     0.143 C 
HETATM    7  C   UNL     1      -2.579   7.922   0.328  1.00  0.00     0.068 C 
HETATM    8  C   UNL     1      -2.121   6.495  -0.036  1.00  0.00     0.221 C 
HETATM    9  C   UNL     1      -5.194   5.161  -1.324  1.00  0.00     0.089 A 
HETATM   10  H   UNL     1      -5.450   7.933  -1.426  1.00  0.00     0.162 HD
ENDROOT
BRANCH   1  11
HETATM   11  C   UNL     1      -4.772   2.614  -1.361  1.00  0.00     0.276 C 
HETATM   12  N   UNL     1      -3.882   1.711  -0.809  1.00  0.00    -0.322 N 
HETATM   13  H   UNL     1      -3.137   2.151  -0.273  1.00  0.00     0.169 HD
HETATM   14  O   UNL     1      -5.789   2.346  -1.993  1.00  0.00    -0.266 OA
BRANCH  12  15
HETATM   15  C   UNL     1      -3.924   0.308  -0.869  1.00  0.00     0.035 A 
HETATM   16  C   UNL     1      -4.819  -0.408  -1.662  1.00  0.00     0.032 A 
HETATM   17  C   UNL     1      -4.800  -1.811  -1.680  1.00  0.00     0.032 A 
HETATM   18  C   UNL     1      -3.888  -2.521  -0.902  1.00  0.00     0.034 A 
HETATM   19  C   UNL     1      -2.990  -1.802  -0.103  1.00  0.00     0.032 A 
HETATM   20  C   UNL     1      -3.005  -0.401  -0.091  1.00  0.00     0.032 A 
BRANCH  18  21
HETATM   21  N   UNL     1      -3.799  -3.929  -0.872  1.00  0.00    -0.327 N 
HETATM   22  C   UNL     1      -4.606  -4.837  -1.533  1.00  0.00     0.221 C 
HETATM   23  O   UNL     1      -5.552  -4.573  -2.268  1.00  0.00    -0.273 OA
HETATM   24  H   UNL     1      -3.061  -4.308  -0.295  1.00  0.00     0.169 HD
BRANCH  22  25
HETATM   25  C   UNL     1      -4.186  -6.284  -1.324  1.00  0.00     0.098 C 
HETATM   26  C   UNL     1      -4.122  -6.695   0.136  1.00  0.00     0.014 C 
ENDBRANCH  22  25
ENDBRANCH  18  21
ENDBRANCH  12  15
ENDBRANCH   1  11
BRANCH   8  27
HETATM   27  C   UNL     1      -1.376   5.886   1.131  1.00  0.00     0.409 C 
HETATM   28  F   UNL     1      -2.162   5.720   2.218  1.00  0.00    -0.169 F 
HETATM   29  F   UNL     1      -0.804   4.698   0.840  1.00  0.00    -0.169 F 
HETATM   30  F   UNL     1      -0.361   6.709   1.509  1.00  0.00    -0.169 F 
ENDBRANCH   8  27
BRANCH   6  31
HETATM   31  C   UNL     1      -2.859   8.907  -1.966  1.00  0.00     0.075 A 
HETATM   32  O   UNL     1      -2.130  10.060  -1.901  1.00  0.00    -0.325 OA
HETATM   33  C   UNL     1      -1.606  10.272  -3.135  1.00  0.00     0.142 A 
HETATM   34  C   UNL     1      -1.978   9.266  -3.995  1.00  0.00     0.027 A 
HETATM   35  C   UNL     1      -2.787   8.382  -3.242  1.00  0.00     0.037 A 
ENDBRANCH   6  31
TORSDOF 6
