REMARK  6 active torsions:
REMARK  status: ('A' for Active; 'I' for Inactive)
REMARK    1  A    between atoms: C_2  and  O_3 
REMARK    2  A    between atoms: O_3  and  C_4 
REMARK    3  A    between atoms: C_5  and  O_6 
REMARK    4  A    between atoms: O_6  and  C_7 
REMARK    5  A    between atoms: C_7  and  C_8 
REMARK    6  A    between atoms: C_16  and  C_17 
ROOT
HETATM    1  C   UNL     1       4.365  -1.846  -0.483  1.00  0.00     0.102 A 
HETATM    2  C   UNL     1       5.234  -0.750  -0.420  1.00  0.00     0.102 A 
HETATM    3  C   UNL     1       6.613  -0.971  -0.374  1.00  0.00     0.040 A 
HETATM    4  C   UNL     1       7.122  -2.274  -0.434  1.00  0.00     0.014 A 
HETATM    5  C   UNL     1       6.260  -3.376  -0.533  1.00  0.00    -0.007 A 
HETATM    6  C   UNL     1       4.876  -3.144  -0.573  1.00  0.00     0.051 A 
ENDROOT
BRANCH   5   7
HETATM    7  C   UNL     1       6.811  -4.781  -0.655  1.00  0.00     0.264 C 
HETATM    8  O   UNL     1       6.029  -5.670   0.156  1.00  0.00    -0.321 OA
HETATM    9  C   UNL     1       6.303  -6.992  -0.068  1.00  0.00     0.087 A 
HETATM   10  C   UNL     1       6.840  -7.460  -1.267  1.00  0.00     0.065 A 
HETATM   11  C   UNL     1       5.978  -7.892   0.945  1.00  0.00     0.038 A 
HETATM   12  C   UNL     1       7.085  -6.491  -2.348  1.00  0.00     0.256 C 
HETATM   13  C   UNL     1       7.080  -8.823  -1.454  1.00  0.00     0.020 A 
HETATM   14  O   UNL     1       7.485  -6.822  -3.454  1.00  0.00    -0.267 OA
HETATM   15  N   UNL     1       6.810  -5.191  -2.030  1.00  0.00    -0.326 N 
HETATM   16  H   UNL     1       7.069  -4.519  -2.740  1.00  0.00     0.165 HD
HETATM   17  C   UNL     1       6.772  -9.721  -0.432  1.00  0.00     0.001 A 
HETATM   18  C   UNL     1       6.218  -9.257   0.764  1.00  0.00     0.003 A 
ENDBRANCH   5   7
BRANCH   1  19
HETATM   19  O   UNL     1       3.017  -1.610  -0.566  1.00  0.00    -0.349 OA
BRANCH  19  20
HETATM   20  C   UNL     1       2.248  -2.304   0.421  1.00  0.00     0.171 C 
HETATM   21  C   UNL     1       1.246  -3.206  -0.278  1.00  0.00     0.034 C 
ENDBRANCH  19  20
ENDBRANCH   1  19
BRANCH   2  22
HETATM   22  O   UNL     1       4.660   0.493  -0.352  1.00  0.00    -0.344 OA
BRANCH  22  23
HETATM   23  C   UNL     1       5.395   1.545  -0.978  1.00  0.00     0.214 C 
BRANCH  23  24
HETATM   24  C   UNL     1       4.455   2.684  -1.298  1.00  0.00    -0.034 A 
HETATM   25  C   UNL     1       4.772   4.000  -0.932  1.00  0.00     0.009 A 
HETATM   26  C   UNL     1       3.915   5.053  -1.262  1.00  0.00     0.001 A 
HETATM   27  C   UNL     1       2.739   4.802  -1.967  1.00  0.00     0.000 A 
HETATM   28  C   UNL     1       2.417   3.500  -2.342  1.00  0.00     0.001 A 
HETATM   29  C   UNL     1       3.271   2.447  -2.012  1.00  0.00     0.009 A 
ENDBRANCH  23  24
ENDBRANCH  22  23
ENDBRANCH   2  22
TORSDOF 6
