REMARK  6 active torsions:
REMARK  status: ('A' for Active; 'I' for Inactive)
REMARK    1  A    between atoms: C_2  and  C_3 
REMARK    2  A    between atoms: C_7  and  C_8 
REMARK       I    between atoms: C_8  and  N_9 
REMARK    3  A    between atoms: N_9  and  C_10 
REMARK    4  A    between atoms: C_10  and  C_11 
REMARK    5  A    between atoms: C_11  and  N_12 
REMARK    6  A    between atoms: C_15  and  C_16 
ROOT
HETATM    1  C   UNL     1       4.117   3.894   4.891  1.00  0.00     0.150 C 
ENDROOT
BRANCH   1   2
HETATM    2  N   UNL     1       4.749   2.727   5.454  1.00  0.00    -0.354 N 
HETATM    3  C   UNL     1       6.123   2.611   5.555  1.00  0.00     0.272 C 
HETATM    4  O   UNL     1       6.868   3.562   5.326  1.00  0.00    -0.266 OA
HETATM    5  H   UNL     1       4.258   1.835   5.545  1.00  0.00     0.162 HD
BRANCH   3   6
HETATM    6  C   UNL     1       6.561   1.265   5.961  1.00  0.00     0.152 A 
HETATM    7  N   UNL     1       5.645   0.289   6.137  1.00  0.00    -0.169 NA
HETATM    8  N   UNL     1       6.370  -0.784   6.487  1.00  0.00    -0.281 N 
HETATM    9  C   UNL     1       7.713  -0.543   6.554  1.00  0.00     0.036 A 
HETATM   10  H   UNL     1       5.887  -1.659   6.670  1.00  0.00     0.189 HD
HETATM   11  C   UNL     1       7.882   0.788   6.216  1.00  0.00    -0.002 A 
HETATM   12  C   UNL     1       9.164   1.534   6.135  1.00  0.00     0.053 C 
BRANCH   9  13
HETATM   13  C   UNL     1       8.685  -1.609   6.930  1.00  0.00     0.055 C 
HETATM   14  C   UNL     1       8.899  -1.664   8.435  1.00  0.00     0.011 C 
ENDBRANCH   9  13
ENDBRANCH   3   6
ENDBRANCH   1   2
BRANCH   1  15
HETATM   15  C   UNL     1       4.324   5.161   5.744  1.00  0.00     0.254 C 
BRANCH  15  16
HETATM   16  N   UNL     1       3.558   6.344   5.177  1.00  0.00    -0.069 N 
HETATM   17  H   UNL     1       2.598   6.033   4.975  1.00  0.00     0.280 HD
HETATM   18  C   UNL     1       4.165   6.944   3.925  1.00  0.00     0.244 C 
HETATM   19  C   UNL     1       5.192   7.958   4.438  1.00  0.00     0.046 C 
HETATM   20  C   UNL     1       4.734   8.333   5.854  1.00  0.00     0.039 C 
HETATM   21  C   UNL     1       3.484   7.516   6.128  1.00  0.00     0.235 C 
BRANCH  19  22
HETATM   22  C   UNL     1       5.366   9.123   3.485  1.00  0.00    -0.046 A 
HETATM   23  C   UNL     1       6.555   9.303   2.742  1.00  0.00    -0.055 A 
HETATM   24  C   UNL     1       7.741   8.383   2.871  1.00  0.00     0.049 C 
HETATM   25  C   UNL     1       6.655  10.386   1.851  1.00  0.00     0.007 A 
HETATM   26  C   UNL     1       5.600  11.280   1.685  1.00  0.00     0.001 A 
HETATM   27  C   UNL     1       4.429  11.108   2.409  1.00  0.00     0.001 A 
HETATM   28  C   UNL     1       4.312  10.042   3.301  1.00  0.00     0.008 A 
ENDBRANCH  19  22
ENDBRANCH  15  16
ENDBRANCH   1  15
TORSDOF 6
