REMARK  4 active torsions:
REMARK  status: ('A' for Active; 'I' for Inactive)
REMARK    1  A    between atoms: C_2  and  C_3 
REMARK    2  A    between atoms: C_6  and  C_7 
REMARK    3  A    between atoms: N_8  and  N_9 
REMARK       I    between atoms: N_9  and  C_10 
REMARK    4  A    between atoms: C_10  and  C_11 
ROOT
HETATM    1  N   UNL     1       7.752   6.259   0.985  1.00  0.00    -0.242 N 
HETATM    2  C   UNL     1       8.907   6.219   1.745  1.00  0.00     0.292 C 
HETATM    3  O   UNL     1       9.469   5.254   2.240  1.00  0.00    -0.264 OA
HETATM    4  H   UNL     1       7.462   7.167   0.624  1.00  0.00     0.192 HD
ENDROOT
BRANCH   1   5
HETATM    5  N   UNL     1       6.828   5.262   0.803  1.00  0.00    -0.183 NA
HETATM    6  C   UNL     1       7.100   4.048   1.158  1.00  0.00     0.152 C 
BRANCH   6   7
HETATM    7  C   UNL     1       6.061   3.040   1.064  1.00  0.00     0.011 A 
HETATM    8  C   UNL     1       6.120   1.695   1.554  1.00  0.00     0.004 A 
HETATM    9  C   UNL     1       4.879   1.099   1.310  1.00  0.00     0.049 A 
HETATM   10  C   UNL     1       7.114   0.939   2.210  1.00  0.00     0.014 A 
HETATM   11  C   UNL     1       4.564  -0.217   1.703  1.00  0.00    -0.031 A 
HETATM   12  N   UNL     1       4.113   2.039   0.655  1.00  0.00    -0.364 N 
HETATM   13  C   UNL     1       5.588  -0.936   2.349  1.00  0.00     0.009 A 
HETATM   14  C   UNL     1       6.838  -0.374   2.597  1.00  0.00     0.002 A 
HETATM   15  C   UNL     1       4.806   3.208   0.512  1.00  0.00     0.102 A 
HETATM   16  H   UNL     1       3.164   1.886   0.343  1.00  0.00     0.165 HD
BRANCH  11  17
HETATM   17  C   UNL     1       3.228  -0.873   1.461  1.00  0.00     0.036 C 
HETATM   18  C   UNL     1       3.247  -1.762   0.227  1.00  0.00     0.010 C 
ENDBRANCH  11  17
ENDBRANCH   6   7
ENDBRANCH   1   5
BRANCH   2  19
HETATM   19  C   UNL     1       9.466   7.610   1.998  1.00  0.00     0.157 A 
HETATM   20  N   UNL     1       9.646   8.364   0.950  1.00  0.00    -0.166 NA
HETATM   21  N   UNL     1      10.131   9.622   1.149  1.00  0.00    -0.242 N 
HETATM   22  C   UNL     1      10.449  10.187   2.362  1.00  0.00     0.272 A 
HETATM   23  H   UNL     1      10.292  10.188   0.320  1.00  0.00     0.192 HD
HETATM   24  O   UNL     1      10.890  11.326   2.460  1.00  0.00    -0.266 OA
HETATM   25  C   UNL     1      10.216   9.347   3.550  1.00  0.00     0.046 A 
HETATM   26  C   UNL     1       9.724   8.055   3.383  1.00  0.00     0.016 A 
HETATM   27  C   UNL     1      10.473   9.850   4.831  1.00  0.00     0.018 A 
HETATM   28  C   UNL     1       9.474   7.261   4.509  1.00  0.00     0.015 A 
HETATM   29  C   UNL     1       9.732   7.762   5.788  1.00  0.00     0.001 A 
HETATM   30  C   UNL     1      10.231   9.053   5.950  1.00  0.00     0.001 A 
ENDBRANCH   2  19
TORSDOF 4
