REMARK  5 active torsions:
REMARK  status: ('A' for Active; 'I' for Inactive)
REMARK    1  A    between atoms: C_9  and  C_10 
REMARK       I    between atoms: C_10  and  N_11 
REMARK    2  A    between atoms: N_11  and  C_12 
REMARK    3  A    between atoms: C_12  and  C_13 
REMARK    4  A    between atoms: C_12  and  C_16 
REMARK    5  A    between atoms: C_19  and  O_20 
ROOT
HETATM    1  C   UNL     1       7.230   3.081   2.225  1.00  0.00     0.273 C 
HETATM    2  N   UNL     1       8.191   3.425   1.305  1.00  0.00    -0.346 N 
HETATM    3  O   UNL     1       6.047   3.390   2.131  1.00  0.00    -0.266 OA
HETATM    4  H   UNL     1       9.112   3.044   1.486  1.00  0.00     0.163 HD
ENDROOT
BRANCH   2   5
HETATM    5  C   UNL     1       7.918   4.122   0.072  1.00  0.00     0.122 C 
BRANCH   5   6
HETATM    6  C   UNL     1       8.140   3.241  -1.139  1.00  0.00     0.013 A 
HETATM    7  C   UNL     1       9.318   2.302  -1.280  1.00  0.00     0.007 A 
HETATM    8  C   UNL     1       7.931   1.743  -1.109  1.00  0.00     0.007 A 
ENDBRANCH   5   6
BRANCH   5   9
HETATM    9  C   UNL     1       8.755   5.386  -0.065  1.00  0.00    -0.035 A 
HETATM   10  C   UNL     1       8.197   6.520  -0.675  1.00  0.00     0.012 A 
HETATM   11  C   UNL     1       8.949   7.687  -0.838  1.00  0.00     0.037 A 
HETATM   12  C   UNL     1      10.269   7.753  -0.392  1.00  0.00     0.068 A 
HETATM   13  C   UNL     1      10.841   6.629   0.200  1.00  0.00     0.037 A 
HETATM   14  C   UNL     1      10.093   5.455   0.356  1.00  0.00     0.012 A 
BRANCH  12  15
HETATM   15  O   UNL     1      10.888   8.954  -0.603  1.00  0.00    -0.356 OA
HETATM   16  C   UNL     1      12.163   9.129   0.002  1.00  0.00     0.210 C 
ENDBRANCH  12  15
ENDBRANCH   5   9
ENDBRANCH   2   5
BRANCH   1  17
HETATM   17  C   UNL     1       7.775   2.280   3.334  1.00  0.00     0.157 A 
HETATM   18  C   UNL     1       7.068   1.756   4.457  1.00  0.00     0.029 A 
HETATM   19  C   UNL     1       5.738   1.782   4.923  1.00  0.00     0.023 A 
HETATM   20  C   UNL     1       8.023   1.074   5.200  1.00  0.00     0.063 A 
HETATM   21  C   UNL     1       5.409   1.119   6.117  1.00  0.00    -0.061 A 
HETATM   22  C   UNL     1       4.000   1.136   6.634  1.00  0.00     0.048 C 
HETATM   23  C   UNL     1       6.405   0.445   6.836  1.00  0.00     0.009 A 
HETATM   24  C   UNL     1       7.732   0.408   6.393  1.00  0.00     0.032 A 
HETATM   25  N   UNL     1       9.193   1.224   4.509  1.00  0.00    -0.277 N 
HETATM   26  H   UNL     1      10.103   0.856   4.760  1.00  0.00     0.189 HD
HETATM   27  N   UNL     1       9.085   1.940   3.376  1.00  0.00    -0.168 NA
ENDBRANCH   1  17
TORSDOF 5
