REMARK  2 active torsions:
REMARK  status: ('A' for Active; 'I' for Inactive)
REMARK    1  A    between atoms: N_20  and  C_21 
REMARK    2  A    between atoms: C_22  and  O_23 
ROOT
HETATM    1  C   UNL     1      -1.777  -0.607  -1.845  1.00  0.00     0.048 C 
HETATM    2  C   UNL     1      -0.300  -0.522  -1.575  1.00  0.00    -0.061 A 
HETATM    3  C   UNL     1       0.440  -1.675  -1.262  1.00  0.00     0.019 A 
HETATM    4  C   UNL     1       1.809  -1.555  -1.066  1.00  0.00     0.016 A 
HETATM    5  C   UNL     1       2.417  -0.299  -1.172  1.00  0.00     0.044 A 
HETATM    6  N   UNL     1       3.775  -0.390  -0.916  1.00  0.00    -0.324 N 
HETATM    7  C   UNL     1       4.143  -1.692  -0.636  1.00  0.00     0.264 A 
HETATM    8  O   UNL     1       5.257  -2.081  -0.327  1.00  0.00    -0.270 OA
HETATM    9  C   UNL     1       2.841  -2.576  -0.667  1.00  0.00     0.250 A 
HETATM   10  N   UNL     1       2.527  -3.162   0.708  1.00  0.00    -0.043 N 
HETATM   11  H   UNL     1       1.535  -3.437   0.699  1.00  0.00     0.282 HD
HETATM   12  C   UNL     1       3.398  -4.379   0.831  1.00  0.00     0.204 C 
HETATM   13  C   UNL     1       2.953  -4.906   2.174  1.00  0.00     0.036 C 
HETATM   14  C   UNL     1       2.803  -3.612   3.006  1.00  0.00     0.030 C 
HETATM   15  C   UNL     1       2.716  -2.445   2.005  1.00  0.00     0.237 C 
HETATM   16  C   UNL     1       3.266  -5.025  -0.522  1.00  0.00     0.126 C 
HETATM   17  C   UNL     1       3.147  -3.846  -1.511  1.00  0.00     0.145 C 
HETATM   18  C   UNL     1       2.042  -4.267  -2.434  1.00  0.00     0.239 C 
HETATM   19  O   UNL     1       1.720  -3.587  -3.396  1.00  0.00    -0.272 OA
HETATM   20  N   UNL     1       1.427  -5.380  -1.902  1.00  0.00    -0.249 N 
HETATM   21  C   UNL     1       1.985  -5.776  -0.715  1.00  0.00     0.238 C 
HETATM   22  O   UNL     1       1.561  -6.577   0.102  1.00  0.00    -0.272 OA
HETATM   23  C   UNL     1       1.720   0.851  -1.473  1.00  0.00     0.031 A 
HETATM   24  C   UNL     1       0.345   0.729  -1.677  1.00  0.00     0.009 A 
HETATM   25  H   UNL     1       4.428   0.385  -0.947  1.00  0.00     0.169 HD
ENDROOT
BRANCH  20  26
HETATM   26  C   UNL     1       0.227  -5.927  -2.424  1.00  0.00     0.078 A 
HETATM   27  C   UNL     1       0.109  -6.248  -3.791  1.00  0.00     0.095 A 
HETATM   28  C   UNL     1      -1.111  -6.722  -4.287  1.00  0.00     0.039 A 
HETATM   29  C   UNL     1      -2.193  -6.926  -3.428  1.00  0.00     0.003 A 
HETATM   30  C   UNL     1      -2.061  -6.672  -2.067  1.00  0.00     0.002 A 
HETATM   31  C   UNL     1      -0.856  -6.182  -1.566  1.00  0.00     0.033 A 
BRANCH  27  32
HETATM   32  O   UNL     1       1.248  -6.138  -4.550  1.00  0.00    -0.354 OA
HETATM   33  C   UNL     1       1.306  -6.946  -5.723  1.00  0.00     0.210 C 
ENDBRANCH  27  32
ENDBRANCH  20  26
TORSDOF 2
