REMARK  4 active torsions:
REMARK  status: ('A' for Active; 'I' for Inactive)
REMARK    1  A    between atoms: C_7  and  C_8 
REMARK    2  A    between atoms: C_10  and  O_11 
REMARK    3  A    between atoms: C_17  and  C_18 
REMARK    4  A    between atoms: C_25  and  C_26 
REMARK       I    between atoms: C_26  and  N_27 
ROOT
HETATM    1  C   UNL     1       0.955  -0.021   0.053  1.00  0.00     0.070 C 
HETATM    2  C   UNL     1       2.453  -0.146   0.190  1.00  0.00     0.037 A 
HETATM    3  N   UNL     1       3.147   1.051   0.324  1.00  0.00    -0.192 N 
HETATM    4  C   UNL     1       4.486   1.124   0.433  1.00  0.00     0.726 A 
HETATM    5  N   UNL     1       5.221  -0.026   0.426  1.00  0.00    -0.083 N 
HETATM    6  N   UNL     1       6.543   0.233   0.451  1.00  0.00    -0.135 NA
HETATM    7  C   UNL     1       6.548   1.574   0.581  1.00  0.00     0.199 A 
HETATM    8  N   UNL     1       5.288   2.149   0.544  1.00  0.00    -0.041 NA
HETATM    9  C   UNL     1       4.646  -1.371   0.306  1.00  0.00     0.202 A 
HETATM   10  C   UNL     1       3.130  -1.321   0.167  1.00  0.00     0.062 A 
HETATM   11  H   UNL     1       2.606   1.912   0.343  1.00  0.00     0.184 HD
ENDROOT
BRANCH   7  12
HETATM   12  C   UNL     1       7.762   2.367   0.752  1.00  0.00     0.017 A 
HETATM   13  C   UNL     1       9.012   1.741   0.904  1.00  0.00     0.052 A 
HETATM   14  C   UNL     1      10.170   2.499   1.091  1.00  0.00     0.069 A 
HETATM   15  C   UNL     1      10.080   3.892   1.119  1.00  0.00     0.037 A 
HETATM   16  C   UNL     1       8.847   4.527   0.969  1.00  0.00     0.004 A 
HETATM   17  C   UNL     1       7.692   3.767   0.788  1.00  0.00     0.015 A 
BRANCH  14  18
HETATM   18  O   UNL     1      11.436   2.005   1.256  1.00  0.00    -0.356 OA
HETATM   19  C   UNL     1      11.571   0.589   1.297  1.00  0.00     0.210 C 
ENDBRANCH  14  18
ENDBRANCH   7  12
BRANCH   9  20
HETATM   20  C   UNL     1       5.139  -2.245   1.457  1.00  0.00    -0.028 A 
HETATM   21  C   UNL     1       4.606  -2.128   2.755  1.00  0.00     0.012 A 
HETATM   22  C   UNL     1       5.086  -2.928   3.793  1.00  0.00     0.043 A 
HETATM   23  C   UNL     1       6.104  -3.840   3.544  1.00  0.00     0.116 A 
HETATM   24  F   UNL     1       6.566  -4.604   4.542  1.00  0.00    -0.206 F 
HETATM   25  C   UNL     1       6.655  -3.967   2.275  1.00  0.00     0.043 A 
HETATM   26  C   UNL     1       6.176  -3.171   1.234  1.00  0.00     0.012 A 
ENDBRANCH   9  20
BRANCH  10  27
HETATM   27  C   UNL     1       2.410  -2.612   0.098  1.00  0.00     0.249 C 
HETATM   28  N   UNL     1       2.870  -3.496  -0.824  1.00  0.00    -0.366 N 
HETATM   29  H   UNL     1       3.578  -3.298  -1.514  1.00  0.00     0.159 HD
HETATM   30  H   UNL     1       2.371  -4.375  -0.897  1.00  0.00     0.159 HD
HETATM   31  O   UNL     1       1.458  -2.876   0.819  1.00  0.00    -0.268 OA
ENDBRANCH  10  27
TORSDOF 4
