REMARK  3 active torsions:
REMARK  status: ('A' for Active; 'I' for Inactive)
REMARK    1  A    between atoms: C_9  and  C_10 
REMARK       I    between atoms: C_10  and  N_11 
REMARK    2  A    between atoms: N_11  and  C_12 
REMARK    3  A    between atoms: C_14  and  C_15 
ROOT
HETATM    1  C   UNL     1       0.816   3.573  -0.196  1.00  0.00     0.277 C 
HETATM    2  N   UNL     1      -0.442   3.789   0.303  1.00  0.00    -0.322 N 
HETATM    3  O   UNL     1       1.626   4.500  -0.195  1.00  0.00    -0.266 OA
HETATM    4  H   UNL     1      -0.503   4.753   0.616  1.00  0.00     0.169 HD
ENDROOT
BRANCH   1   5
HETATM    5  C   UNL     1       1.309   2.244  -0.715  1.00  0.00     0.156 A 
HETATM    6  C   UNL     1       2.465   1.604  -0.043  1.00  0.00     0.016 A 
HETATM    7  C   UNL     1       3.083   2.133   1.097  1.00  0.00     0.015 A 
HETATM    8  C   UNL     1       2.990   0.457  -0.636  1.00  0.00     0.046 A 
HETATM    9  C   UNL     1       4.233   1.528   1.615  1.00  0.00     0.001 A 
HETATM   10  C   UNL     1       4.762   0.390   1.008  1.00  0.00     0.001 A 
HETATM   11  C   UNL     1       4.138  -0.153  -0.114  1.00  0.00     0.018 A 
HETATM   12  C   UNL     1       2.335  -0.093  -1.834  1.00  0.00     0.272 A 
HETATM   13  O   UNL     1       2.728  -1.129  -2.360  1.00  0.00    -0.266 OA
HETATM   14  N   UNL     1       1.261   0.616  -2.319  1.00  0.00    -0.242 N 
HETATM   15  N   UNL     1       0.771   1.781  -1.807  1.00  0.00    -0.166 NA
HETATM   16  H   UNL     1       0.829   0.278  -3.173  1.00  0.00     0.192 HD
ENDBRANCH   1   5
BRANCH   2  17
HETATM   17  C   UNL     1      -1.645   3.067   0.386  1.00  0.00     0.035 A 
HETATM   18  C   UNL     1      -1.865   1.764  -0.063  1.00  0.00     0.042 A 
HETATM   19  C   UNL     1      -3.153   1.184  -0.025  1.00  0.00    -0.021 A 
HETATM   20  C   UNL     1      -4.208   1.922   0.530  1.00  0.00     0.012 A 
HETATM   21  C   UNL     1      -3.994   3.206   1.021  1.00  0.00     0.003 A 
HETATM   22  C   UNL     1      -2.724   3.772   0.942  1.00  0.00     0.029 A 
BRANCH  19  23
HETATM   23  C   UNL     1      -3.421  -0.142  -0.580  1.00  0.00     0.010 A 
HETATM   24  C   UNL     1      -4.631  -0.879  -0.670  1.00  0.00     0.152 A 
HETATM   25  N   UNL     1      -4.485  -2.057  -1.282  1.00  0.00    -0.187 NA
HETATM   26  N   UNL     1      -3.183  -2.082  -1.599  1.00  0.00    -0.289 N 
HETATM   27  H   UNL     1      -2.824  -2.892  -2.094  1.00  0.00     0.188 HD
HETATM   28  C   UNL     1      -2.504  -0.966  -1.200  1.00  0.00     0.123 A 
ENDBRANCH  19  23
ENDBRANCH   2  17
TORSDOF 3
