REMARK  5 active torsions:
REMARK  status: ('A' for Active; 'I' for Inactive)
REMARK    1  A    between atoms: C_8  and  C_9 
REMARK    2  A    between atoms: N_10  and  N_11 
REMARK       I    between atoms: N_11  and  C_12 
REMARK    3  A    between atoms: C_12  and  C_13 
REMARK    4  A    between atoms: C_13  and  N_14 
REMARK    5  A    between atoms: N_14  and  C_15 
ROOT
HETATM    1  N   UNL     1      -1.385  -5.063  -0.285  1.00  0.00    -0.246 N 
HETATM    2  C   UNL     1      -0.533  -6.075   0.167  1.00  0.00     0.255 C 
HETATM    3  O   UNL     1       0.660  -5.938   0.427  1.00  0.00    -0.270 OA
HETATM    4  H   UNL     1      -2.382  -5.189  -0.133  1.00  0.00     0.192 HD
ENDROOT
BRANCH   1   5
HETATM    5  N   UNL     1      -1.015  -3.743  -0.413  1.00  0.00    -0.184 NA
HETATM    6  C   UNL     1       0.179  -3.499  -0.858  1.00  0.00     0.152 C 
BRANCH   6   7
HETATM    7  C   UNL     1       0.648  -2.132  -0.956  1.00  0.00     0.011 A 
HETATM    8  C   UNL     1       1.923  -1.696  -1.444  1.00  0.00     0.004 A 
HETATM    9  C   UNL     1       3.059  -2.357  -1.958  1.00  0.00     0.014 A 
HETATM   10  C   UNL     1       1.954  -0.303  -1.348  1.00  0.00     0.043 A 
HETATM   11  C   UNL     1       4.174  -1.610  -2.355  1.00  0.00     0.001 A 
HETATM   12  C   UNL     1       4.172  -0.222  -2.246  1.00  0.00     0.002 A 
HETATM   13  C   UNL     1       3.061   0.459  -1.739  1.00  0.00     0.030 A 
HETATM   14  N   UNL     1       0.746   0.093  -0.822  1.00  0.00    -0.364 N 
HETATM   15  H   UNL     1       0.490   1.053  -0.636  1.00  0.00     0.165 HD
HETATM   16  C   UNL     1      -0.047  -0.996  -0.585  1.00  0.00     0.102 A 
ENDBRANCH   6   7
ENDBRANCH   1   5
BRANCH   2  17
HETATM   17  C   UNL     1      -1.251  -7.415   0.341  1.00  0.00     0.224 C 
BRANCH  17  18
HETATM   18  N   UNL     1      -1.800  -7.883  -0.934  1.00  0.00    -0.381 N 
HETATM   19  H   UNL     1      -2.165  -7.157  -1.544  1.00  0.00     0.160 HD
BRANCH  18  20
HETATM   20  C   UNL     1      -2.465  -9.102  -1.028  1.00  0.00     0.028 A 
HETATM   21  C   UNL     1      -3.160  -9.395  -2.213  1.00  0.00     0.032 A 
HETATM   22  C   UNL     1      -3.779 -10.633  -2.407  1.00  0.00     0.044 A 
HETATM   23  C   UNL     1      -3.686 -11.603  -1.421  1.00  0.00     0.116 A 
HETATM   24  F   UNL     1      -4.268 -12.795  -1.606  1.00  0.00    -0.206 F 
HETATM   25  C   UNL     1      -2.982 -11.357  -0.252  1.00  0.00     0.044 A 
HETATM   26  C   UNL     1      -2.367 -10.115  -0.063  1.00  0.00     0.032 A 
ENDBRANCH  18  20
ENDBRANCH  17  18
ENDBRANCH   2  17
TORSDOF 5
