REMARK  8 active torsions:
REMARK  status: ('A' for Active; 'I' for Inactive)
REMARK    1  A    between atoms: C_2  and  N_3 
REMARK    2  A    between atoms: C_2  and  C_17 
REMARK    3  A    between atoms: N_3  and  C_6 
REMARK    4  A    between atoms: C_6  and  C_7 
REMARK    5  A    between atoms: C_7  and  O_8 
REMARK    6  A    between atoms: C_7  and  C_9 
REMARK    7  A    between atoms: C_11  and  O_12 
REMARK    8  A    between atoms: C_17  and  C_18 
ROOT
HETATM    1  N   UNL     1       2.938  -0.236  -1.205  1.00  0.00    -0.068 N 
HETATM    2  H   UNL     1       2.756   0.597  -1.781  1.00  0.00     0.277 HD
HETATM    3  H   UNL     1       3.951  -0.411  -1.340  1.00  0.00     0.277 HD
ENDROOT
BRANCH   1   4
HETATM    4  C   UNL     1       2.596   0.072   0.233  1.00  0.00     0.188 C 
HETATM    5  C   UNL     1       3.127   1.481   0.513  1.00  0.00     0.040 C 
BRANCH   4   6
HETATM    6  C   UNL     1       3.209  -0.976   1.181  1.00  0.00     0.099 C 
BRANCH   6   7
HETATM    7  C   UNL     1       2.724  -0.788   2.585  1.00  0.00     0.078 A 
HETATM    8  S   UNL     1       3.674  -1.313   3.910  1.00  0.00    -0.073 SA
HETATM    9  C   UNL     1       2.473  -0.734   5.001  1.00  0.00     0.035 A 
HETATM   10  C   UNL     1       1.418  -0.187   4.265  1.00  0.00     0.074 A 
HETATM   11  C   UNL     1       2.463  -0.761   6.405  1.00  0.00     0.021 A 
HETATM   12  N   UNL     1       1.573  -0.232   2.886  1.00  0.00    -0.245 NA
HETATM   13  C   UNL     1       0.317   0.354   4.958  1.00  0.00     0.033 A 
HETATM   14  C   UNL     1       0.299   0.336   6.357  1.00  0.00     0.002 A 
HETATM   15  C   UNL     1       1.360  -0.216   7.068  1.00  0.00     0.002 A 
ENDBRANCH   6   7
ENDBRANCH   4   6
ENDBRANCH   1   4
BRANCH   1  16
HETATM   16  C   UNL     1       2.227  -1.401  -1.853  1.00  0.00     0.269 C 
BRANCH  16  17
HETATM   17  C   UNL     1       2.810  -1.574  -3.273  1.00  0.00     0.177 C 
BRANCH  17  18
HETATM   18  O   UNL     1       4.232  -1.377  -3.178  1.00  0.00    -0.389 OA
HETATM   19  H   UNL     1       4.616  -1.716  -4.013  1.00  0.00     0.210 HD
ENDBRANCH  17  18
BRANCH  17  20
HETATM   20  C   UNL     1       2.472  -2.914  -3.874  1.00  0.00    -0.025 A 
HETATM   21  C   UNL     1       3.238  -4.061  -3.588  1.00  0.00     0.046 A 
HETATM   22  C   UNL     1       2.899  -5.299  -4.139  1.00  0.00     0.068 A 
HETATM   23  C   UNL     1       1.776  -5.398  -4.961  1.00  0.00     0.037 A 
HETATM   24  C   UNL     1       1.006  -4.273  -5.249  1.00  0.00     0.003 A 
HETATM   25  C   UNL     1       1.351  -3.036  -4.709  1.00  0.00     0.010 A 
BRANCH  22  26
HETATM   26  O   UNL     1       3.565  -6.475  -3.941  1.00  0.00    -0.356 OA
HETATM   27  C   UNL     1       4.836  -6.410  -3.309  1.00  0.00     0.210 C 
ENDBRANCH  22  26
ENDBRANCH  17  20
ENDBRANCH  16  17
ENDBRANCH   1  16
TORSDOF 8
