REMARK  8 active torsions:
REMARK  status: ('A' for Active; 'I' for Inactive)
REMARK    1  A    between atoms: O_2  and  C_3 
REMARK    2  A    between atoms: C_5  and  N_6 
REMARK       I    between atoms: N_6  and  C_7 
REMARK    3  A    between atoms: C_7  and  C_8 
REMARK    4  A    between atoms: C_8  and  N_9 
REMARK    5  A    between atoms: C_8  and  C_25 
REMARK    6  A    between atoms: N_9  and  C_12 
REMARK    7  A    between atoms: C_12  and  C_13 
REMARK    8  A    between atoms: C_16  and  N_17 
ROOT
HETATM    1  C   UNL     1       5.712   0.432  -2.991  1.00  0.00     0.310 C 
ENDROOT
BRANCH   1   2
HETATM    2  C   UNL     1       5.751  -0.821  -3.903  1.00  0.00     0.257 C 
HETATM    3  N   UNL     1       6.542  -1.865  -3.476  1.00  0.00    -0.325 N 
HETATM    4  H   UNL     1       7.042  -1.769  -2.597  1.00  0.00     0.169 HD
HETATM    5  O   UNL     1       5.115  -0.753  -4.959  1.00  0.00    -0.270 OA
BRANCH   3   6
HETATM    6  C   UNL     1       6.715  -3.113  -4.120  1.00  0.00     0.037 A 
HETATM    7  C   UNL     1       6.041  -3.495  -5.282  1.00  0.00     0.066 A 
HETATM    8  C   UNL     1       6.244  -4.758  -5.855  1.00  0.00     0.070 A 
HETATM    9  C   UNL     1       7.146  -5.642  -5.268  1.00  0.00     0.037 A 
HETATM   10  C   UNL     1       7.829  -5.269  -4.109  1.00  0.00     0.005 A 
HETATM   11  C   UNL     1       7.611  -4.015  -3.535  1.00  0.00     0.029 A 
BRANCH   8  12
HETATM   12  O   UNL     1       5.502  -4.996  -6.979  1.00  0.00    -0.356 OA
HETATM   13  C   UNL     1       5.581  -6.301  -7.542  1.00  0.00     0.210 C 
ENDBRANCH   8  12
ENDBRANCH   3   6
ENDBRANCH   1   2
BRANCH   1  14
HETATM   14  N   UNL     1       4.683   1.379  -3.564  1.00  0.00    -0.054 N 
HETATM   15  H   UNL     1       4.709   1.230  -4.589  1.00  0.00     0.278 HD
HETATM   16  H   UNL     1       3.742   1.053  -3.314  1.00  0.00     0.278 HD
BRANCH  14  17
HETATM   17  C   UNL     1       4.816   2.819  -3.260  1.00  0.00     0.272 C 
BRANCH  17  18
HETATM   18  C   UNL     1       3.917   3.598  -4.175  1.00  0.00    -0.033 A 
HETATM   19  C   UNL     1       2.573   3.799  -3.851  1.00  0.00     0.011 A 
HETATM   20  C   UNL     1       1.700   4.387  -4.776  1.00  0.00     0.030 A 
HETATM   21  C   UNL     1       2.135   4.782  -6.047  1.00  0.00     0.037 A 
HETATM   22  C   UNL     1       3.495   4.615  -6.343  1.00  0.00     0.030 A 
HETATM   23  C   UNL     1       4.375   4.027  -5.426  1.00  0.00     0.011 A 
BRANCH  21  24
HETATM   24  N   UNL     1       1.240   5.313  -7.015  1.00  0.00    -0.318 N 
HETATM   25  C   UNL     1      -0.163   5.302  -6.939  1.00  0.00     0.224 C 
HETATM   26  O   UNL     1      -0.880   4.898  -6.036  1.00  0.00    -0.273 OA
HETATM   27  C   UNL     1      -0.704   5.809  -8.256  1.00  0.00     0.105 C 
HETATM   28  C   UNL     1       0.484   6.523  -8.868  1.00  0.00     0.029 C 
HETATM   29  C   UNL     1       1.672   5.764  -8.319  1.00  0.00     0.133 C 
ENDBRANCH  21  24
ENDBRANCH  17  18
ENDBRANCH  14  17
ENDBRANCH   1  14
BRANCH   1  30
HETATM   30  C   UNL     1       5.428   0.130  -1.539  1.00  0.00    -0.019 A 
HETATM   31  C   UNL     1       6.256   0.660  -0.536  1.00  0.00     0.010 A 
HETATM   32  C   UNL     1       5.989   0.404   0.810  1.00  0.00     0.001 A 
HETATM   33  C   UNL     1       4.894  -0.377   1.169  1.00  0.00     0.000 A 
HETATM   34  C   UNL     1       4.062  -0.906   0.186  1.00  0.00     0.001 A 
HETATM   35  C   UNL     1       4.323  -0.655  -1.161  1.00  0.00     0.010 A 
ENDBRANCH   1  30
TORSDOF 8
