REMARK  6 active torsions:
REMARK  status: ('A' for Active; 'I' for Inactive)
REMARK    1  A    between atoms: O_2  and  C_3 
REMARK    2  A    between atoms: C_6  and  C_7 
REMARK    3  A    between atoms: C_7  and  N_8 
REMARK       I    between atoms: N_8  and  C_9 
REMARK    4  A    between atoms: C_9  and  C_10 
REMARK    5  A    between atoms: C_10  and  O_11 
REMARK    6  A    between atoms: N_12  and  C_13 
ROOT
HETATM    1  C   UNL     1       5.615  -7.510  -3.347  1.00  0.00     0.256 C 
HETATM    2  N   UNL     1       5.904  -8.885  -3.774  1.00  0.00    -0.254 N 
HETATM    3  C   UNL     1       6.657  -9.660  -2.886  1.00  0.00     0.330 C 
HETATM    4  O   UNL     1       6.734 -10.887  -2.871  1.00  0.00    -0.246 OA
HETATM    5  N   UNL     1       7.481  -8.964  -2.026  1.00  0.00    -0.308 N 
HETATM    6  C   UNL     1       7.759  -7.603  -2.150  1.00  0.00     0.048 A 
HETATM    7  C   UNL     1       6.892  -6.825  -2.915  1.00  0.00     0.034 A 
HETATM    8  C   UNL     1       8.892  -7.049  -1.560  1.00  0.00     0.030 A 
HETATM    9  C   UNL     1       9.185  -5.702  -1.779  1.00  0.00     0.002 A 
HETATM   10  C   UNL     1       8.347  -4.922  -2.576  1.00  0.00     0.001 A 
HETATM   11  C   UNL     1       7.197  -5.477  -3.141  1.00  0.00     0.015 A 
HETATM   12  H   UNL     1       8.102  -9.558  -1.489  1.00  0.00     0.170 HD
ENDROOT
BRANCH   1  13
HETATM   13  C   UNL     1       4.553  -7.572  -2.157  1.00  0.00     0.279 C 
HETATM   14  N   UNL     1       4.555  -6.513  -1.268  1.00  0.00    -0.352 N 
HETATM   15  H   UNL     1       5.132  -5.702  -1.453  1.00  0.00     0.162 HD
HETATM   16  O   UNL     1       3.701  -8.461  -2.083  1.00  0.00    -0.268 OA
BRANCH  14  17
HETATM   17  C   UNL     1       3.614  -6.430  -0.176  1.00  0.00     0.161 C 
BRANCH  17  18
HETATM   18  C   UNL     1       4.195  -5.671   0.990  1.00  0.00    -0.040 A 
HETATM   19  C   UNL     1       3.514  -4.582   1.547  1.00  0.00     0.011 A 
HETATM   20  C   UNL     1       4.038  -3.914   2.657  1.00  0.00     0.037 A 
HETATM   21  C   UNL     1       5.240  -4.324   3.237  1.00  0.00     0.068 A 
HETATM   22  C   UNL     1       5.929  -5.402   2.684  1.00  0.00     0.037 A 
HETATM   23  C   UNL     1       5.407  -6.074   1.572  1.00  0.00     0.011 A 
BRANCH  21  24
HETATM   24  O   UNL     1       5.631  -3.594   4.326  1.00  0.00    -0.356 OA
HETATM   25  C   UNL     1       6.735  -4.095   5.069  1.00  0.00     0.210 C 
ENDBRANCH  21  24
ENDBRANCH  17  18
ENDBRANCH  14  17
ENDBRANCH   1  13
BRANCH   1  26
HETATM   26  O   UNL     1       4.980  -6.732  -4.366  1.00  0.00    -0.359 OA
HETATM   27  H   UNL     1       4.134  -7.189  -4.527  1.00  0.00     0.213 HD
ENDBRANCH   1  26
BRANCH   2  28
HETATM   28  C   UNL     1       5.271  -9.480  -4.906  1.00  0.00     0.043 A 
HETATM   29  C   UNL     1       4.655 -10.736  -4.826  1.00  0.00     0.031 A 
HETATM   30  C   UNL     1       4.088 -11.333  -5.959  1.00  0.00     0.026 A 
HETATM   31  C   UNL     1       4.143 -10.682  -7.186  1.00  0.00     0.034 A 
HETATM   32 CL   UNL     1       3.459 -11.418  -8.582  1.00  0.00    -0.084 Cl
HETATM   33  C   UNL     1       4.760  -9.439  -7.291  1.00  0.00     0.026 A 
HETATM   34  C   UNL     1       5.325  -8.846  -6.157  1.00  0.00     0.031 A 
ENDBRANCH   2  28
TORSDOF 6
