REMARK  11 active torsions:
REMARK  status: ('A' for Active; 'I' for Inactive)
REMARK    1  A    between atoms: C_1  and  C_17 
REMARK    2  A    between atoms: C_1  and  S_18 
REMARK    3  A    between atoms: C_2  and  N_23 
REMARK    4  A    between atoms: C_3  and  C_13 
REMARK    5  A    between atoms: C_6  and  S_18 
REMARK    6  A    between atoms: C_6  and  S_19 
REMARK    7  A    between atoms: C_7  and  C_20 
REMARK    8  A    between atoms: C_7  and  C_21 
REMARK    9  A    between atoms: C_9  and  C_24 
REMARK   10  A    between atoms: C_16  and  C_17 
REMARK   11  A    between atoms: S_19  and  C_20 
ROOT
HETATM    1  C           1      -0.795  -2.941   0.350  0.00  0.00     0.092 C 
HETATM    2  C           1       0.397  -0.906   0.815  0.00  0.00     0.156 C 
HETATM    3  C           1       0.087  -2.711  -0.847  0.00  0.00     0.127 C 
HETATM    4  C           1       1.123  -1.669  -0.350  0.00  0.00     0.136 C 
HETATM    5  C           1       2.314  -2.394   0.194  0.00  0.00     0.079 C 
HETATM    6  N           1       3.225  -3.035   0.520  0.00  0.00    -0.196 NA
HETATM    7  C           1      -0.576  -2.335  -2.247  0.00  0.00     0.248 C 
HETATM    8  C           1       1.472  -1.175  -2.851  0.00  0.00     0.105 C 
HETATM    9  N           1      -0.626  -1.979   1.216  0.00  0.00    -0.350 N 
HETATM   10  N           1       0.507  -2.140  -3.349  0.00  0.00    -0.040 N 
HETATM   11  C           1       2.212  -0.404  -3.919  0.00  0.00     0.075 C 
HETATM   12  C           1       1.688  -0.915  -1.542  0.00  0.00     0.036 C 
HETATM   13  H           1      -1.138  -1.949   2.108  0.00  0.00     0.163 HD
HETATM   14  H           1       0.032  -1.730  -4.186  0.00  0.00     0.284 HD
HETATM   15  H           1       0.969  -3.020  -3.653  0.00  0.00     0.284 HD
ENDROOT
BRANCH   2  16
HETATM   16  S           1       1.440  -0.607   2.282  0.00  0.00    -0.125 SA
BRANCH  16  17
HETATM   17  C           1       2.560   0.714   1.731  0.00  0.00     0.077 C 
BRANCH  17  18
HETATM   18  C           1       3.505   1.078   2.888  0.00  0.00     0.010 C 
BRANCH  18  19
HETATM   19  C           1       4.484   2.194   2.487  0.00  0.00    -0.004 C 
HETATM   20  C           1       5.430   2.566   3.637  0.00  0.00     0.005 C 
ENDBRANCH  18  19
ENDBRANCH  17  18
ENDBRANCH  16  17
ENDBRANCH   2  16
BRANCH   2  21
HETATM   21  S           1      -0.438   0.580   0.172  0.00  0.00    -0.125 SA
BRANCH  21  22
HETATM   22  C           1      -1.718   0.837   1.438  0.00  0.00     0.077 C 
BRANCH  22  23
HETATM   23  C           1      -2.408   2.185   1.171  0.00  0.00     0.010 C 
BRANCH  23  24
HETATM   24  C           1      -3.540   2.450   2.176  0.00  0.00    -0.004 C 
HETATM   25  C           1      -4.237   3.791   1.909  0.00  0.00     0.005 C 
ENDBRANCH  23  24
ENDBRANCH  22  23
ENDBRANCH  21  22
ENDBRANCH   2  21
BRANCH   3  26
HETATM   26  C           1       0.812  -3.898  -1.375  0.00  0.00     0.105 C 
HETATM   27  N           1       1.274  -4.220  -2.388  0.00  0.00    -0.151 N 
ENDBRANCH   3  26
BRANCH   1  28
HETATM   28  N           1      -1.593  -3.914   0.499  0.00  0.00    -0.388 N 
HETATM   29  H           1      -1.696  -4.648  -0.244  0.00  0.00     0.157 HD
HETATM   30  H           1      -2.175  -3.998   1.369  0.00  0.00     0.157 HD
ENDBRANCH   1  28
BRANCH   7  31
HETATM   31  C           1      -1.614  -1.217  -2.237  0.00  0.00    -0.026 A 
HETATM   32  C           1      -1.470  -0.058  -2.909  0.00  0.00     0.009 A 
HETATM   33  C           1      -2.414   0.895  -2.885  0.00  0.00     0.001 A 
HETATM   34  C           1      -3.546   0.708  -2.191  0.00  0.00     0.000 A 
HETATM   35  C           1      -3.723  -0.445  -1.531  0.00  0.00     0.001 A 
HETATM   36  C           1      -2.770  -1.389  -1.567  0.00  0.00     0.009 A 
ENDBRANCH   7  31
TORSDOF 11
