REMARK  9 active torsions:
REMARK  status: ('A' for Active; 'I' for Inactive)
REMARK    1  A    between atoms: O_2  and  C_3 
REMARK    2  A    between atoms: C_4  and  S_5 
REMARK    3  A    between atoms: S_5  and  N_6 
REMARK    4  A    between atoms: N_6  and  C_7 
REMARK    5  A    between atoms: C_7  and  C_8 
REMARK    6  A    between atoms: C_7  and  C_21 
REMARK       I    between atoms: C_8  and  N_9 
REMARK    7  A    between atoms: N_9  and  C_10 
REMARK    8  A    between atoms: C_21  and  C_22 
REMARK    9  A    between atoms: C_22  and  S_23 
ROOT
HETATM    1  C   UNL     1      -0.243   2.862  -1.613  1.00  0.00     0.165 C 
ENDROOT
BRANCH   1   2
HETATM    2  N   UNL     1       0.017   2.284  -0.266  1.00  0.00    -0.202 NA
HETATM    3  H   UNL     1       0.034   1.258  -0.258  1.00  0.00     0.141 HD
BRANCH   2   4
HETATM    4  S   UNL     1       1.456   2.802   0.488  1.00  0.00     0.245 S 
HETATM    5  O   UNL     1       2.265   3.437  -0.527  1.00  0.00    -0.206 OA
HETATM    6  O   UNL     1       1.909   1.659   1.248  1.00  0.00    -0.206 OA
BRANCH   4   7
HETATM    7  C   UNL     1       0.943   4.022   1.659  1.00  0.00     0.107 A 
HETATM    8  C   UNL     1       1.902   4.835   2.268  1.00  0.00     0.091 A 
HETATM    9  C   UNL     1       1.506   5.844   3.149  1.00  0.00     0.038 A 
HETATM   10  C   UNL     1       0.156   6.015   3.454  1.00  0.00     0.003 A 
HETATM   11  C   UNL     1      -0.800   5.183   2.873  1.00  0.00     0.002 A 
HETATM   12  C   UNL     1      -0.410   4.186   1.976  1.00  0.00     0.028 A 
BRANCH   8  13
HETATM   13  O   UNL     1       3.237   4.734   1.997  1.00  0.00    -0.354 OA
HETATM   14  C   UNL     1       3.866   3.744   2.814  1.00  0.00     0.210 C 
ENDBRANCH   8  13
ENDBRANCH   4   7
ENDBRANCH   2   4
ENDBRANCH   1   2
BRANCH   1  15
HETATM   15  C   UNL     1       0.724   2.216  -2.623  1.00  0.00     0.254 C 
HETATM   16  N   UNL     1       0.899   2.952  -3.774  1.00  0.00    -0.156 N 
HETATM   17  H   UNL     1       0.404   3.816  -3.948  1.00  0.00     0.187 HD
HETATM   18  O   UNL     1       1.235   1.113  -2.412  1.00  0.00    -0.271 OA
BRANCH  16  19
HETATM   19  C   UNL     1       1.787   2.587  -4.751  1.00  0.00     0.708 A 
HETATM   20  N   UNL     1       1.923   3.214  -5.895  1.00  0.00    -0.062 NA
HETATM   21  C   UNL     1       2.937   2.552  -6.549  1.00  0.00     0.103 A 
HETATM   22  C   UNL     1       3.433   1.508  -5.776  1.00  0.00     0.078 A 
HETATM   23  C   UNL     1       3.498   2.793  -7.812  1.00  0.00     0.034 A 
HETATM   24  N   UNL     1       2.666   1.540  -4.643  1.00  0.00    -0.188 N 
HETATM   25  C   UNL     1       4.487   0.685  -6.178  1.00  0.00     0.032 A 
HETATM   26  H   UNL     1       2.730   0.932  -3.836  1.00  0.00     0.184 HD
HETATM   27  C   UNL     1       5.041   0.948  -7.437  1.00  0.00     0.002 A 
HETATM   28  C   UNL     1       4.553   1.979  -8.245  1.00  0.00     0.002 A 
ENDBRANCH  16  19
ENDBRANCH   1  15
BRANCH   1  29
HETATM   29  C   UNL     1      -1.680   2.541  -2.050  1.00  0.00     0.040 C 
BRANCH  29  30
HETATM   30  C   UNL     1      -2.777   3.190  -1.206  1.00  0.00     0.075 C 
BRANCH  30  31
HETATM   31  S   UNL     1      -2.736   5.013  -1.180  1.00  0.00    -0.173 SA
HETATM   32  C   UNL     1      -3.252   5.361  -2.880  1.00  0.00     0.089 C 
ENDBRANCH  30  31
ENDBRANCH  29  30
ENDBRANCH   1  29
TORSDOF 9
