REMARK  4 active torsions:
REMARK  status: ('A' for Active; 'I' for Inactive)
REMARK    1  A    between atoms: C_9  and  C_10 
REMARK       I    between atoms: C_10  and  N_11 
REMARK    2  A    between atoms: N_11  and  C_12 
REMARK    3  A    between atoms: C_14  and  C_15 
REMARK       I    between atoms: C_15  and  N_16 
REMARK    4  A    between atoms: N_16  and  C_17 
ROOT
HETATM    1  C   UNL     1       6.065   5.925   0.563  1.00  0.00     0.277 C 
HETATM    2  N   UNL     1       6.520   4.696   0.120  1.00  0.00    -0.322 N 
HETATM    3  O   UNL     1       6.760   6.902   0.825  1.00  0.00    -0.266 OA
HETATM    4  H   UNL     1       5.770   4.025  -0.029  1.00  0.00     0.169 HD
ENDROOT
BRANCH   2   5
HETATM    5  C   UNL     1       7.839   4.288  -0.137  1.00  0.00     0.036 A 
HETATM    6  C   UNL     1       8.950   5.126  -0.013  1.00  0.00     0.046 A 
HETATM    7  C   UNL     1      10.234   4.650  -0.315  1.00  0.00     0.034 A 
HETATM    8  C   UNL     1      10.411   3.315  -0.696  1.00  0.00     0.017 A 
HETATM    9  C   UNL     1       9.308   2.472  -0.812  1.00  0.00     0.003 A 
HETATM   10  C   UNL     1       8.028   2.960  -0.543  1.00  0.00     0.029 A 
BRANCH   7  11
HETATM   11  C   UNL     1      11.437   5.524  -0.235  1.00  0.00     0.252 C 
HETATM   12  N   UNL     1      11.233   6.865  -0.504  1.00  0.00    -0.352 N 
HETATM   13  H   UNL     1      10.320   7.175  -0.813  1.00  0.00     0.163 HD
HETATM   14  O   UNL     1      12.532   5.032   0.016  1.00  0.00    -0.268 OA
BRANCH  12  15
HETATM   15  C   UNL     1      12.294   7.823  -0.499  1.00  0.00     0.084 A 
HETATM   16  C   UNL     1      12.093   9.184  -1.109  1.00  0.00     0.027 A 
HETATM   17  C   UNL     1      12.209   9.040   0.380  1.00  0.00     0.027 A 
ENDBRANCH  12  15
ENDBRANCH   7  11
ENDBRANCH   2   5
BRANCH   1  18
HETATM   18  C   UNL     1       4.596   5.945   0.696  1.00  0.00     0.157 A 
HETATM   19  C   UNL     1       3.787   6.981   1.247  1.00  0.00     0.029 A 
HETATM   20  C   UNL     1       4.012   8.242   1.834  1.00  0.00     0.023 A 
HETATM   21  C   UNL     1       2.481   6.521   1.129  1.00  0.00     0.063 A 
HETATM   22  C   UNL     1       2.919   8.998   2.292  1.00  0.00    -0.061 A 
HETATM   23  C   UNL     1       3.136  10.340   2.930  1.00  0.00     0.048 C 
HETATM   24  C   UNL     1       1.618   8.502   2.141  1.00  0.00     0.009 A 
HETATM   25  C   UNL     1       1.371   7.254   1.557  1.00  0.00     0.032 A 
HETATM   26  N   UNL     1       2.583   5.290   0.543  1.00  0.00    -0.277 N 
HETATM   27  H   UNL     1       1.824   4.663   0.302  1.00  0.00     0.189 HD
HETATM   28  N   UNL     1       3.844   4.898   0.283  1.00  0.00    -0.168 NA
ENDBRANCH   1  18
TORSDOF 4
