REMARK  4 active torsions:
REMARK  status: ('A' for Active; 'I' for Inactive)
REMARK    1  A    between atoms: C_8  and  C_9 
REMARK    2  A    between atoms: N_10  and  N_11 
REMARK       I    between atoms: N_11  and  C_12 
REMARK    3  A    between atoms: C_12  and  C_13 
REMARK    4  A    between atoms: C_17  and  C_18 
ROOT
HETATM    1  N   UNL     1      -1.705  -5.006   0.018  1.00  0.00    -0.242 N 
HETATM    2  C   UNL     1      -0.967  -6.180   0.006  1.00  0.00     0.292 C 
HETATM    3  O   UNL     1      -1.433  -7.317  -0.005  1.00  0.00    -0.264 OA
HETATM    4  H   UNL     1      -1.189  -4.130   0.022  1.00  0.00     0.192 HD
ENDROOT
BRANCH   2   5
HETATM    5  C   UNL     1       0.484  -5.935   0.001  1.00  0.00     0.148 A 
HETATM    6  N   UNL     1       1.019  -4.697   0.013  1.00  0.00    -0.169 NA
HETATM    7  N   UNL     1       2.348  -4.923  -0.001  1.00  0.00    -0.277 N 
HETATM    8  H   UNL     1       2.970  -4.121  -0.016  1.00  0.00     0.189 HD
HETATM    9  C   UNL     1       2.702  -6.248  -0.015  1.00  0.00     0.063 A 
HETATM   10  C   UNL     1       1.499  -6.924  -0.019  1.00  0.00     0.071 A 
BRANCH   9  11
HETATM   11  C   UNL     1       4.080  -6.740  -0.044  1.00  0.00    -0.005 A 
HETATM   12  C   UNL     1       5.126  -6.015   0.546  1.00  0.00     0.053 A 
HETATM   13  C   UNL     1       6.400  -6.548   0.498  1.00  0.00     0.106 A 
HETATM   14  C   UNL     1       6.663  -7.754  -0.106  1.00  0.00     0.105 A 
HETATM   15  O   UNL     1       7.517  -5.980   1.026  1.00  0.00    -0.323 OA
HETATM   16  O   UNL     1       7.976  -8.096  -0.037  1.00  0.00    -0.323 OA
HETATM   17  C   UNL     1       5.667  -8.496  -0.698  1.00  0.00     0.040 A 
HETATM   18  C   UNL     1       8.510  -6.975   0.696  1.00  0.00     0.352 A 
HETATM   19  C   UNL     1       4.366  -7.981  -0.662  1.00  0.00     0.017 A 
ENDBRANCH   9  11
ENDBRANCH   2   5
BRANCH   1  20
HETATM   20  N   UNL     1      -3.067  -5.046   0.013  1.00  0.00    -0.183 NA
HETATM   21  C   UNL     1      -3.674  -3.904   0.015  1.00  0.00     0.152 C 
BRANCH  21  22
HETATM   22  C   UNL     1      -5.123  -3.884   0.008  1.00  0.00     0.011 A 
HETATM   23  C   UNL     1      -5.990  -2.744   0.003  1.00  0.00     0.004 A 
HETATM   24  C   UNL     1      -5.786  -1.347   0.002  1.00  0.00     0.014 A 
HETATM   25  C   UNL     1      -7.304  -3.219  -0.004  1.00  0.00     0.043 A 
HETATM   26  C   UNL     1      -6.892  -0.487  -0.006  1.00  0.00     0.001 A 
HETATM   27  C   UNL     1      -8.188  -0.995  -0.012  1.00  0.00     0.002 A 
HETATM   28  C   UNL     1      -8.420  -2.373  -0.011  1.00  0.00     0.030 A 
HETATM   29  N   UNL     1      -7.240  -4.593  -0.001  1.00  0.00    -0.364 N 
HETATM   30  H   UNL     1      -8.043  -5.207  -0.005  1.00  0.00     0.165 HD
HETATM   31  C   UNL     1      -5.938  -5.002   0.005  1.00  0.00     0.102 A 
ENDBRANCH  21  22
ENDBRANCH   1  20
TORSDOF 4
