REMARK  8 active torsions:
REMARK  status: ('A' for Active; 'I' for Inactive)
REMARK    1  A    between atoms: C_4  and  N_5 
REMARK       I    between atoms: N_5  and  C_6 
REMARK    2  A    between atoms: C_6  and  C_7 
REMARK    3  A    between atoms: C_7  and  N_8 
REMARK    4  A    between atoms: N_11  and  C_12 
REMARK    5  A    between atoms: C_12  and  C_13 
REMARK    6  A    between atoms: C_16  and  C_17 
REMARK       I    between atoms: C_17  and  N_18 
REMARK    7  A    between atoms: N_18  and  C_19 
REMARK    8  A    between atoms: C_19  and  C_20 
ROOT
HETATM    1  N   UNL     1       2.333   3.315   0.842  1.00  0.00    -0.290 N 
HETATM    2  C   UNL     1       1.007   2.898   1.002  1.00  0.00     0.332 C 
HETATM    3  O   UNL     1       0.078   3.686   0.824  1.00  0.00    -0.246 OA
HETATM    4  N   UNL     1       0.809   1.573   1.376  1.00  0.00    -0.261 N 
HETATM    5  C   UNL     1       1.773   0.587   1.263  1.00  0.00     0.264 C 
HETATM    6  O   UNL     1       1.602  -0.588   1.578  1.00  0.00    -0.267 OA
HETATM    7  C   UNL     1       3.054   0.990   0.669  1.00  0.00     0.059 A 
HETATM    8  C   UNL     1       3.324   2.346   0.477  1.00  0.00     0.055 A 
HETATM    9  C   UNL     1       3.952  -0.008   0.253  1.00  0.00     0.019 A 
HETATM   10  C   UNL     1       5.139   0.343  -0.378  1.00  0.00     0.001 A 
HETATM   11  C   UNL     1       5.433   1.687  -0.573  1.00  0.00     0.002 A 
HETATM   12  C   UNL     1       4.540   2.679  -0.142  1.00  0.00     0.031 A 
ENDROOT
BRANCH   4  13
HETATM   13  C   UNL     1      -0.553   1.136   1.680  1.00  0.00     0.175 C 
BRANCH  13  14
HETATM   14  C   UNL     1      -1.184   1.921   2.807  1.00  0.00    -0.040 A 
HETATM   15  C   UNL     1      -2.273   2.763   2.532  1.00  0.00     0.010 A 
HETATM   16  C   UNL     1      -2.745   3.639   3.501  1.00  0.00     0.017 A 
HETATM   17  C   UNL     1      -2.131   3.678   4.756  1.00  0.00     0.032 A 
HETATM   18  C   UNL     1      -1.114   2.773   5.075  1.00  0.00     0.017 A 
HETATM   19  C   UNL     1      -0.640   1.895   4.100  1.00  0.00     0.010 A 
BRANCH  17  20
HETATM   20  C   UNL     1      -2.466   4.756   5.718  1.00  0.00     0.251 C 
HETATM   21  N   UNL     1      -2.648   5.992   5.131  1.00  0.00    -0.353 N 
HETATM   22  H   UNL     1      -2.403   6.091   4.156  1.00  0.00     0.163 HD
HETATM   23  O   UNL     1      -2.485   4.539   6.922  1.00  0.00    -0.268 OA
BRANCH  21  24
HETATM   24  C   UNL     1      -2.641   7.204   5.913  1.00  0.00     0.161 C 
BRANCH  24  25
HETATM   25  C   UNL     1      -1.221   7.655   6.262  1.00  0.00    -0.038 A 
HETATM   26  C   UNL     1      -0.209   7.609   5.232  1.00  0.00     0.048 A 
HETATM   27  C   UNL     1       1.000   7.992   5.750  1.00  0.00     0.105 A 
HETATM   28  C   UNL     1       1.144   8.488   7.469  1.00  0.00     0.105 A 
HETATM   29  O   UNL     1       2.876   8.032   5.015  1.00  0.00    -0.323 OA
HETATM   30  O   UNL     1       2.843   8.831   7.924  1.00  0.00    -0.323 OA
HETATM   31  C   UNL     1       0.136   8.533   8.360  1.00  0.00     0.040 A 
HETATM   32  C   UNL     1       4.036   8.587   6.472  1.00  0.00     0.352 A 
HETATM   33  C   UNL     1      -1.042   8.106   7.708  1.00  0.00     0.012 A 
ENDBRANCH  24  25
ENDBRANCH  21  24
ENDBRANCH  17  20
ENDBRANCH  13  14
ENDBRANCH   4  13
BRANCH   1  34
HETATM   34  C   UNL     1       2.506   4.725   0.472  1.00  0.00     0.237 C 
BRANCH  34  35
HETATM   35  C   UNL     1       1.903   5.836   1.363  1.00  0.00     0.240 C 
HETATM   36  N   UNL     1       2.049   5.647   2.727  1.00  0.00    -0.326 N 
HETATM   37  H   UNL     1       2.283   4.717   3.049  1.00  0.00     0.169 HD
HETATM   38  O   UNL     1       1.535   6.881   0.825  1.00  0.00    -0.271 OA
BRANCH  36  39
HETATM   39  C   UNL     1       2.009   6.661   3.728  1.00  0.00     0.035 A 
HETATM   40  C   UNL     1       1.774   8.320   3.295  1.00  0.00     0.036 A 
HETATM   41  C   UNL     1       1.902   9.645   4.352  1.00  0.00    -0.060 A 
HETATM   42  C   UNL     1       1.775  11.046   3.866  1.00  0.00     0.048 C 
HETATM   43  C   UNL     1       2.313   9.310   6.001  1.00  0.00     0.007 A 
HETATM   44  C   UNL     1       2.569   7.336   6.544  1.00  0.00     0.003 A 
HETATM   45  C   UNL     1       2.371   6.127   5.304  1.00  0.00     0.029 A 
ENDBRANCH  36  39
ENDBRANCH  34  35
ENDBRANCH   1  34
TORSDOF 8
