REMARK  9 active torsions:
REMARK  status: ('A' for Active; 'I' for Inactive)
REMARK    1  A    between atoms: C_4  and  S_5 
REMARK    2  A    between atoms: S_5  and  C_6 
REMARK    3  A    between atoms: C_6  and  C_7 
REMARK       I    between atoms: C_7  and  N_8 
REMARK    4  A    between atoms: N_8  and  C_9 
REMARK    5  A    between atoms: C_10  and  O_11 
REMARK    6  A    between atoms: C_22  and  C_23 
REMARK    7  A    between atoms: C_29  and  C_30 
REMARK       I    between atoms: C_30  and  N_31 
REMARK    8  A    between atoms: N_31  and  C_32 
REMARK    9  A    between atoms: C_33  and  O_34 
ROOT
HETATM    1  C   UNL     1       0.990  -0.151  -0.154  1.00  0.00     0.069 C 
HETATM    2  C   UNL     1       2.500  -0.193  -0.193  1.00  0.00     0.019 C 
HETATM    3  N   UNL     1       3.127   1.039  -0.163  1.00  0.00    -0.353 N 
HETATM    4  C   UNL     1       4.472   1.255  -0.388  1.00  0.00     0.087 C 
HETATM    5  C   UNL     1       5.303   0.190  -0.446  1.00  0.00     0.055 C 
HETATM    6  C   UNL     1       6.766   0.308  -0.841  1.00  0.00     0.019 C 
HETATM    7  N   UNL     1       7.980   0.407  -1.169  1.00  0.00    -0.096 N 
HETATM    8  C   UNL     1       4.775  -1.214  -0.138  1.00  0.00     0.104 C 
HETATM    9  C   UNL     1       3.250  -1.325  -0.215  1.00  0.00     0.046 C 
HETATM   10  H   UNL     1       2.547   1.873  -0.165  1.00  0.00     0.166 HD
ENDROOT
BRANCH   4  11
HETATM   11  S   UNL     1       5.056   2.892  -0.404  1.00  0.00    -0.102 SA
BRANCH  11  12
HETATM   12  C   UNL     1       5.170   3.325  -2.144  1.00  0.00     0.184 C 
BRANCH  12  13
HETATM   13  C   UNL     1       6.454   2.921  -2.852  1.00  0.00     0.231 C 
HETATM   14  N   UNL     1       7.574   3.714  -2.779  1.00  0.00    -0.324 N 
HETATM   15  H   UNL     1       8.136   3.684  -3.623  1.00  0.00     0.169 HD
HETATM   16  O   UNL     1       6.436   1.980  -3.654  1.00  0.00    -0.272 OA
BRANCH  14  17
HETATM   17  C   UNL     1       7.914   4.712  -1.847  1.00  0.00     0.070 C 
HETATM   18  C   UNL     1       8.439   5.934  -2.304  1.00  0.00     0.095 C 
HETATM   19  C   UNL     1       8.744   6.941  -1.379  1.00  0.00     0.041 C 
HETATM   20  C   UNL     1       8.600   6.709  -0.008  1.00  0.00     0.026 C 
HETATM   21  C   UNL     1       8.185   5.461   0.439  1.00  0.00     0.036 C 
HETATM   22 CL   UNL     1       8.080   5.144   2.126  1.00  0.00    -0.084 Cl
HETATM   23  C   UNL     1       7.864   4.461  -0.475  1.00  0.00     0.056 C 
BRANCH  18  24
HETATM   24  O   UNL     1       8.567   6.066  -3.664  1.00  0.00    -0.354 OA
HETATM   25  C   UNL     1       9.408   7.123  -4.115  1.00  0.00     0.210 C 
ENDBRANCH  18  24
ENDBRANCH  14  17
ENDBRANCH  12  13
ENDBRANCH  11  12
ENDBRANCH   4  11
BRANCH   8  26
HETATM   26  C   UNL     1       5.318  -1.636   1.238  1.00  0.00    -0.044 A 
HETATM   27  C   UNL     1       4.724  -1.175   2.429  1.00  0.00     0.008 A 
HETATM   28  C   UNL     1       5.259  -1.509   3.673  1.00  0.00     0.001 A 
HETATM   29  C   UNL     1       6.401  -2.301   3.749  1.00  0.00     0.000 A 
HETATM   30  C   UNL     1       7.008  -2.758   2.580  1.00  0.00     0.001 A 
HETATM   31  C   UNL     1       6.475  -2.426   1.332  1.00  0.00     0.008 A 
ENDBRANCH   8  26
BRANCH   9  32
HETATM   32  C   UNL     1       2.582  -2.661  -0.382  1.00  0.00     0.255 C 
HETATM   33  N   UNL     1       3.312  -3.761   0.022  1.00  0.00    -0.321 N 
HETATM   34  H   UNL     1       4.312  -3.688   0.117  1.00  0.00     0.169 HD
HETATM   35  O   UNL     1       1.502  -2.737  -0.966  1.00  0.00    -0.268 OA
BRANCH  33  36
HETATM   36  C   UNL     1       2.788  -5.075   0.042  1.00  0.00     0.068 A 
HETATM   37  C   UNL     1       1.493  -5.382   0.512  1.00  0.00     0.095 A 
HETATM   38  C   UNL     1       1.034  -6.701   0.430  1.00  0.00     0.039 A 
HETATM   39  C   UNL     1       1.857  -7.708  -0.083  1.00  0.00     0.003 A 
HETATM   40  C   UNL     1       3.156  -7.412  -0.486  1.00  0.00     0.002 A 
HETATM   41  C   UNL     1       3.628  -6.102  -0.406  1.00  0.00     0.032 A 
BRANCH  37  42
HETATM   42  O   UNL     1       0.809  -4.374   1.143  1.00  0.00    -0.354 OA
HETATM   43  C   UNL     1      -0.565  -4.590   1.426  1.00  0.00     0.210 C 
ENDBRANCH  37  42
ENDBRANCH  33  36
ENDBRANCH   9  32
TORSDOF 9
