REMARK  3 active torsions:
REMARK  status: ('A' for Active; 'I' for Inactive)
REMARK    1  A    between atoms: C_5  and  N_6 
REMARK       I    between atoms: N_6  and  C_7 
REMARK    2  A    between atoms: C_7  and  C_8 
REMARK    3  A    between atoms: C_9  and  C_10 
ROOT
HETATM    1  C   UNL     1       6.778  -2.419  -0.170  1.00  0.00     0.062 A 
HETATM    2  C   UNL     1       7.117  -3.585  -1.098  1.00  0.00     0.199 A 
HETATM    3  N   UNL     1       6.608  -4.849  -0.572  1.00  0.00    -0.092 N 
HETATM    4  C   UNL     1       5.941  -4.986   0.611  1.00  0.00     0.735 A 
HETATM    5  N   UNL     1       5.671  -3.888   1.343  1.00  0.00    -0.191 N 
HETATM    6  N   UNL     1       6.900  -6.057  -1.080  1.00  0.00     0.012 NA
HETATM    7  N   UNL     1       6.319  -6.916  -0.249  1.00  0.00     0.033 NA
HETATM    8  N   UNL     1       5.722  -6.262   0.812  1.00  0.00     0.030 NA
HETATM    9  C   UNL     1       6.078  -2.609   0.978  1.00  0.00     0.037 A 
HETATM   10  C   UNL     1       5.707  -1.508   1.944  1.00  0.00     0.070 C 
HETATM   11  H   UNL     1       5.166  -3.990   2.220  1.00  0.00     0.184 HD
ENDROOT
BRANCH   1  12
HETATM   12  C   UNL     1       7.126  -1.039  -0.621  1.00  0.00     0.256 C 
HETATM   13  N   UNL     1       8.427  -0.902  -1.053  1.00  0.00    -0.323 N 
HETATM   14  H   UNL     1       9.040  -1.704  -1.016  1.00  0.00     0.169 HD
HETATM   15  O   UNL     1       6.259  -0.174  -0.607  1.00  0.00    -0.267 OA
BRANCH  13  16
HETATM   16  C   UNL     1       9.026   0.266  -1.578  1.00  0.00     0.035 A 
HETATM   17  C   UNL     1       8.410   1.517  -1.605  1.00  0.00     0.030 A 
HETATM   18  C   UNL     1       9.074   2.626  -2.142  1.00  0.00     0.009 A 
HETATM   19  C   UNL     1      10.367   2.503  -2.660  1.00  0.00    -0.062 A 
HETATM   20  C   UNL     1      11.052   3.686  -3.275  1.00  0.00     0.048 C 
HETATM   21  C   UNL     1      10.979   1.247  -2.649  1.00  0.00     0.009 A 
HETATM   22  C   UNL     1      10.319   0.142  -2.102  1.00  0.00     0.030 A 
ENDBRANCH  13  16
ENDBRANCH   1  12
BRANCH   2  23
HETATM   23  C   UNL     1       6.670  -3.401  -2.535  1.00  0.00    -0.011 A 
HETATM   24  C   UNL     1       7.505  -3.802  -3.578  1.00  0.00     0.125 A 
HETATM   25  N   UNL     1       7.210  -3.663  -4.888  1.00  0.00    -0.272 NA
HETATM   26  C   UNL     1       6.013  -3.117  -5.187  1.00  0.00     0.116 A 
HETATM   27  C   UNL     1       5.097  -2.709  -4.234  1.00  0.00     0.020 A 
HETATM   28  C   UNL     1       5.429  -2.858  -2.889  1.00  0.00     0.012 A 
ENDBRANCH   2  23
TORSDOF 3
