REMARK  4 active torsions:
REMARK  status: ('A' for Active; 'I' for Inactive)
REMARK    1  A    between atoms: C_3  and  O_4 
REMARK    2  A    between atoms: O_4  and  C_5 
REMARK    3  A    between atoms: C_11  and  C_12 
REMARK    4  A    between atoms: C_23  and  N_24 
ROOT
HETATM    1  C   UNL     1       5.617  -2.230   0.115  1.00  0.00     0.244 A 
HETATM    2  N   UNL     1       5.785  -2.277  -1.319  1.00  0.00    -0.151 N 
HETATM    3  C   UNL     1       5.675  -3.464  -1.998  1.00  0.00     0.734 A 
HETATM    4  N   UNL     1       5.932  -3.268  -3.272  1.00  0.00    -0.060 NA
HETATM    5  C   UNL     1       6.245  -1.938  -3.405  1.00  0.00     0.103 A 
HETATM    6  C   UNL     1       6.167  -1.283  -2.179  1.00  0.00     0.083 A 
HETATM    7  C   UNL     1       6.617  -1.219  -4.549  1.00  0.00     0.034 A 
HETATM    8  C   UNL     1       6.901   0.145  -4.422  1.00  0.00     0.002 A 
HETATM    9  C   UNL     1       6.815   0.780  -3.181  1.00  0.00     0.002 A 
HETATM   10  C   UNL     1       6.446   0.079  -2.027  1.00  0.00     0.033 A 
HETATM   11  N   UNL     1       5.355  -4.628  -1.391  1.00  0.00    -0.033 NA
HETATM   12  C   UNL     1       5.221  -4.651  -0.115  1.00  0.00     0.193 A 
HETATM   13  N   UNL     1       5.361  -3.536   0.720  1.00  0.00    -0.339 N 
HETATM   14  H   UNL     1       5.128  -3.597   1.698  1.00  0.00     0.164 HD
ENDROOT
BRANCH   1  15
HETATM   15  C   UNL     1       4.481  -1.320   0.552  1.00  0.00    -0.014 A 
HETATM   16  C   UNL     1       3.193  -1.436  -0.002  1.00  0.00     0.020 A 
HETATM   17  C   UNL     1       2.133  -0.638   0.453  1.00  0.00    -0.027 A 
HETATM   18  C   UNL     1       2.369   0.277   1.490  1.00  0.00     0.086 A 
HETATM   19  C   UNL     1       0.758  -0.823  -0.128  1.00  0.00     0.051 C 
HETATM   20  C   UNL     1       3.632   0.382   2.093  1.00  0.00    -0.027 A 
HETATM   21  C   UNL     1       3.886   1.326   3.236  1.00  0.00     0.051 C 
HETATM   22  C   UNL     1       4.684  -0.404   1.599  1.00  0.00     0.020 A 
BRANCH  18  23
HETATM   23  O   UNL     1       1.313   1.000   1.980  1.00  0.00    -0.289 OA
BRANCH  23  24
HETATM   24  C   UNL     1       1.275   2.297   1.396  1.00  0.00     0.505 C 
HETATM   25  F   UNL     1      -0.024   2.580   1.127  1.00  0.00    -0.184 F 
HETATM   26  F   UNL     1       1.685   3.188   2.332  1.00  0.00    -0.184 F 
ENDBRANCH  23  24
ENDBRANCH  18  23
ENDBRANCH   1  15
BRANCH  12  27
HETATM   27  N   UNL     1       4.908  -5.770   0.569  1.00  0.00    -0.272 NA
HETATM   28  H   UNL     1       4.943  -6.588  -0.036  1.00  0.00     0.127 HD
HETATM   29  H   UNL     1       5.416  -5.934   1.428  1.00  0.00     0.127 HD
ENDBRANCH  12  27
TORSDOF 4
