REMARK  8 active torsions:
REMARK  status: ('A' for Active; 'I' for Inactive)
REMARK    1  A    between atoms: C_4  and  C_5 
REMARK    2  A    between atoms: C_5  and  N_6 
REMARK    3  A    between atoms: C_5  and  C_36 
REMARK    4  A    between atoms: N_10  and  C_11 
REMARK    5  A    between atoms: C_13  and  C_14 
REMARK       I    between atoms: C_14  and  N_15 
REMARK    6  A    between atoms: N_15  and  C_16 
REMARK    7  A    between atoms: C_19  and  O_20 
REMARK    8  A    between atoms: O_20  and  C_21 
ROOT
HETATM    1  C   UNL     1       2.262   4.177   3.423  1.00  0.00     0.181 C 
HETATM    2  N   UNL     1       1.976   5.405   2.922  1.00  0.00    -0.249 NA
HETATM    3  C   UNL     1       0.842   6.181   3.430  1.00  0.00     0.164 C 
HETATM    4  C   UNL     1      -0.081   5.387   4.314  1.00  0.00     0.134 C 
HETATM    5  C   UNL     1       0.676   4.328   5.062  1.00  0.00     0.247 C 
HETATM    6  O   UNL     1       0.356   4.052   6.215  1.00  0.00    -0.271 OA
HETATM    7  N   UNL     1       1.618   3.602   4.380  1.00  0.00    -0.185 NA
HETATM    8  H   UNL     1       2.815   5.993   2.964  1.00  0.00     0.131 HD
ENDROOT
BRANCH   1   9
HETATM    9  N   UNL     1       3.328   3.564   2.793  1.00  0.00    -0.353 N 
HETATM   10  C   UNL     1       3.872   4.005   1.498  1.00  0.00     0.153 C 
HETATM   11  C   UNL     1       3.254   3.167   0.365  1.00  0.00     0.256 C 
HETATM   12  N   UNL     1       3.540   1.685   0.616  1.00  0.00    -0.056 N 
HETATM   13  H   UNL     1       4.556   1.606   0.710  1.00  0.00     0.281 HD
HETATM   14  C   UNL     1       2.993   1.251   1.982  1.00  0.00     0.256 C 
HETATM   15  C   UNL     1       3.614   2.141   3.085  1.00  0.00     0.153 C 
BRANCH  12  16
HETATM   16  C   UNL     1       3.204   0.801  -0.586  1.00  0.00     0.254 C 
BRANCH  16  17
HETATM   17  C   UNL     1       1.781   0.961  -1.113  1.00  0.00    -0.023 A 
HETATM   18  C   UNL     1       1.583   1.504  -2.399  1.00  0.00     0.009 A 
HETATM   19  C   UNL     1       0.299   1.694  -2.912  1.00  0.00     0.001 A 
HETATM   20  C   UNL     1      -0.813   1.343  -2.154  1.00  0.00     0.000 A 
HETATM   21  C   UNL     1      -0.641   0.795  -0.886  1.00  0.00     0.001 A 
HETATM   22  C   UNL     1       0.643   0.604  -0.370  1.00  0.00     0.009 A 
ENDBRANCH  16  17
BRANCH  16  23
HETATM   23  C   UNL     1       3.764  -0.616  -0.458  1.00  0.00    -0.023 A 
HETATM   24  C   UNL     1       2.970  -1.773  -0.519  1.00  0.00     0.009 A 
HETATM   25  C   UNL     1       3.542  -3.045  -0.421  1.00  0.00     0.001 A 
HETATM   26  C   UNL     1       4.916  -3.189  -0.262  1.00  0.00     0.000 A 
HETATM   27  C   UNL     1       5.726  -2.061  -0.210  1.00  0.00     0.001 A 
HETATM   28  C   UNL     1       5.159  -0.788  -0.312  1.00  0.00     0.009 A 
ENDBRANCH  16  23
ENDBRANCH  12  16
ENDBRANCH   1   9
BRANCH   3  29
HETATM   29  C   UNL     1       1.371   7.465   4.098  1.00  0.00     0.240 C 
HETATM   30  N   UNL     1       0.527   8.556   3.956  1.00  0.00    -0.326 N 
HETATM   31  H   UNL     1      -0.359   8.413   3.487  1.00  0.00     0.169 HD
HETATM   32  O   UNL     1       2.506   7.474   4.575  1.00  0.00    -0.271 OA
BRANCH  30  33
HETATM   33  C   UNL     1       0.859   9.908   4.203  1.00  0.00     0.034 A 
HETATM   34  C   UNL     1      -0.006  10.884   3.688  1.00  0.00     0.032 A 
HETATM   35  C   UNL     1       0.299  12.245   3.808  1.00  0.00     0.039 A 
HETATM   36  C   UNL     1       1.450  12.641   4.488  1.00  0.00     0.076 A 
HETATM   37  C   UNL     1       2.305  11.676   5.016  1.00  0.00     0.039 A 
HETATM   38  C   UNL     1       2.010  10.316   4.879  1.00  0.00     0.032 A 
BRANCH  36  39
HETATM   39  O   UNL     1       1.868  13.946   4.597  1.00  0.00    -0.311 OA
BRANCH  39  40
HETATM   40  C   UNL     1       0.938  14.931   4.835  1.00  0.00     0.076 A 
HETATM   41  C   UNL     1      -0.128  14.791   5.727  1.00  0.00     0.037 A 
HETATM   42  C   UNL     1      -0.995  15.862   5.946  1.00  0.00     0.003 A 
HETATM   43  C   UNL     1      -0.783  17.079   5.297  1.00  0.00     0.000 A 
HETATM   44  C   UNL     1       0.300  17.229   4.431  1.00  0.00     0.003 A 
HETATM   45  C   UNL     1       1.163  16.156   4.204  1.00  0.00     0.037 A 
ENDBRANCH  39  40
ENDBRANCH  36  39
ENDBRANCH  30  33
ENDBRANCH   3  29
TORSDOF 8
