REMARK  3 active torsions:
REMARK  status: ('A' for Active; 'I' for Inactive)
REMARK    1  A    between atoms: C_3  and  N_4 
REMARK    2  A    between atoms: C_10  and  O_11 
REMARK    3  A    between atoms: C_14  and  C_15 
ROOT
HETATM    1  N   UNL     1       0.984   2.510  -0.117  1.00  0.00    -0.212 N 
HETATM    2  N   UNL     1       2.252   2.741  -0.568  1.00  0.00    -0.177 NA
HETATM    3  C   UNL     1       2.432   4.051  -0.441  1.00  0.00     0.152 A 
HETATM    4  C   UNL     1       1.322   4.706   0.123  1.00  0.00     0.027 A 
HETATM    5  C   UNL     1       0.400   3.694   0.355  1.00  0.00     0.163 A 
HETATM    6  N   UNL     1      -0.797   3.760   0.996  1.00  0.00    -0.208 NA
HETATM    7  C   UNL     1      -1.603   4.680   0.579  1.00  0.00     0.149 C 
HETATM    8  C   UNL     1      -1.404   5.670  -0.536  1.00  0.00     0.161 C 
HETATM    9  S   UNL     1      -0.296   7.028  -0.051  1.00  0.00    -0.146 SA
HETATM   10  C   UNL     1       1.237   6.152   0.493  1.00  0.00     0.124 C 
ENDROOT
BRANCH  10  11
HETATM   11  C   UNL     1       1.518   6.366   1.966  1.00  0.00     0.028 A 
HETATM   12  C   UNL     1       2.975   6.472   2.319  1.00  0.00     0.253 A 
HETATM   13  O   UNL     1       3.859   6.403   1.471  1.00  0.00    -0.268 OA
HETATM   14  N   UNL     1       3.273   6.650   3.650  1.00  0.00    -0.333 N 
HETATM   15  C   UNL     1       2.336   6.738   4.643  1.00  0.00     0.091 A 
HETATM   16  H   UNL     1       4.259   6.714   3.873  1.00  0.00     0.168 HD
HETATM   17  C   UNL     1       1.036   6.652   4.344  1.00  0.00     0.018 A 
HETATM   18  C   UNL     1       0.625   6.461   2.972  1.00  0.00     0.015 A 
ENDBRANCH  10  11
BRANCH   1  19
HETATM   19  C   UNL     1       0.474   1.182  -0.159  1.00  0.00     0.099 A 
HETATM   20  C   UNL     1       1.387   0.113  -0.231  1.00  0.00     0.035 A 
HETATM   21  C   UNL     1       0.938  -1.211  -0.242  1.00  0.00     0.002 A 
HETATM   22  C   UNL     1      -0.426  -1.484  -0.200  1.00  0.00     0.003 A 
HETATM   23  C   UNL     1      -1.338  -0.431  -0.165  1.00  0.00     0.045 A 
HETATM   24  C   UNL     1      -0.891   0.892  -0.151  1.00  0.00     0.145 A 
HETATM   25  F   UNL     1      -1.830   1.842  -0.238  1.00  0.00    -0.204 F 
ENDBRANCH   1  19
BRANCH   7  26
HETATM   26  O   UNL     1      -2.781   4.783   1.212  1.00  0.00    -0.347 OA
HETATM   27  H   UNL     1      -2.810   4.077   1.881  1.00  0.00     0.219 HD
ENDBRANCH   7  26
TORSDOF 3
