REMARK  4 active torsions:
REMARK  status: ('A' for Active; 'I' for Inactive)
REMARK    1  A    between atoms: C_5  and  C_6 
REMARK    2  A    between atoms: C_10  and  N_11 
REMARK       I    between atoms: N_11  and  C_12 
REMARK    3  A    between atoms: C_12  and  C_13 
REMARK    4  A    between atoms: C_13  and  O_14 
ROOT
HETATM    1  C   UNL     1       2.454   1.313  -0.171  1.00  0.00     0.070 A 
HETATM    2  N   UNL     1       2.894   2.614  -0.176  1.00  0.00    -0.275 N 
HETATM    3  H   UNL     1       2.326   3.455  -0.139  1.00  0.00     0.189 HD
HETATM    4  N   UNL     1       4.229   2.747  -0.239  1.00  0.00    -0.156 NA
HETATM    5  C   UNL     1       4.675   1.493  -0.323  1.00  0.00     0.152 A 
HETATM    6  C   UNL     1       3.613   0.566  -0.271  1.00  0.00     0.084 A 
ENDROOT
BRANCH   5   7
HETATM    7  N   UNL     1       6.022   1.276  -0.441  1.00  0.00    -0.308 N 
HETATM    8  C   UNL     1       6.628   0.064  -0.694  1.00  0.00     0.258 C 
HETATM    9  O   UNL     1       6.048  -1.007  -0.841  1.00  0.00    -0.270 OA
HETATM   10  H   UNL     1       6.588   2.117  -0.461  1.00  0.00     0.170 HD
BRANCH   8  11
HETATM   11  C   UNL     1       8.175   0.189  -0.753  1.00  0.00     0.140 C 
HETATM   12  C   UNL     1       8.749   0.350   0.662  1.00  0.00     0.058 C 
HETATM   13  C   UNL     1       8.669  -0.912   1.509  1.00  0.00     0.077 C 
HETATM   14  S   UNL     1       9.639  -2.252   0.771  1.00  0.00    -0.169 SA
HETATM   15  C   UNL     1       8.821  -2.317  -0.844  1.00  0.00     0.077 C 
HETATM   16  C   UNL     1       8.822  -0.961  -1.539  1.00  0.00     0.058 C 
BRANCH  11  17
HETATM   17  O   UNL     1       8.470   1.420  -1.451  1.00  0.00    -0.380 OA
HETATM   18  H   UNL     1       8.228   1.292  -2.387  1.00  0.00     0.211 HD
ENDBRANCH  11  17
ENDBRANCH   8  11
ENDBRANCH   5   7
BRANCH   1  19
HETATM   19  C   UNL     1       1.041   0.930  -0.090  1.00  0.00     0.069 A 
HETATM   20  C   UNL     1       0.018   1.826  -0.432  1.00  0.00     0.132 A 
HETATM   21  C   UNL     1      -1.330   1.467  -0.377  1.00  0.00     0.043 A 
HETATM   22  F   UNL     1       0.318   3.074  -0.829  1.00  0.00    -0.205 F 
HETATM   23  C   UNL     1      -1.691   0.188   0.036  1.00  0.00     0.006 A 
HETATM   24  C   UNL     1      -0.698  -0.721   0.392  1.00  0.00     0.043 A 
HETATM   25  C   UNL     1       0.648  -0.349   0.326  1.00  0.00     0.132 A 
HETATM   26  F   UNL     1       1.560  -1.261   0.694  1.00  0.00    -0.205 F 
ENDBRANCH   1  19
TORSDOF 4
