REMARK  6 active torsions:
REMARK  status: ('A' for Active; 'I' for Inactive)
REMARK    1  A    between atoms: C_2  and  C_3 
REMARK    2  A    between atoms: C_3  and  N_4 
REMARK       I    between atoms: N_4  and  C_5 
REMARK    3  A    between atoms: C_5  and  C_6 
REMARK    4  A    between atoms: C_8  and  C_9 
REMARK    5  A    between atoms: C_9  and  N_10 
REMARK       I    between atoms: N_10  and  C_11 
REMARK    6  A    between atoms: C_11  and  C_12 
ROOT
HETATM    1  C   UNL     1      -2.935  -2.999   1.541  1.00  0.00     0.161 C 
ENDROOT
BRANCH   1   2
HETATM    2  C   UNL     1      -1.844  -2.090   1.038  1.00  0.00    -0.040 A 
HETATM    3  C   UNL     1      -0.850  -2.595   0.186  1.00  0.00     0.026 A 
HETATM    4  C   UNL     1       0.181  -1.770  -0.278  1.00  0.00     0.032 A 
HETATM    5  C   UNL     1       0.204  -0.420   0.083  1.00  0.00     0.017 A 
HETATM    6  C   UNL     1      -0.775   0.090   0.937  1.00  0.00     0.002 A 
HETATM    7  C   UNL     1      -1.788  -0.743   1.421  1.00  0.00     0.009 A 
BRANCH   4   8
HETATM    8  C   UNL     1       1.252  -2.297  -1.167  1.00  0.00     0.252 C 
HETATM    9  N   UNL     1       1.610  -3.613  -0.955  1.00  0.00    -0.353 N 
HETATM   10  H   UNL     1       1.274  -4.073  -0.118  1.00  0.00     0.163 HD
HETATM   11  O   UNL     1       1.779  -1.566  -1.997  1.00  0.00    -0.268 OA
BRANCH   9  12
HETATM   12  C   UNL     1       2.698  -4.246  -1.687  1.00  0.00     0.080 C 
HETATM   13  C   UNL     1       2.543  -5.764  -1.638  1.00  0.00     0.032 C 
BRANCH  12  14
HETATM   14  C   UNL     1       4.078  -3.779  -1.190  1.00  0.00     0.020 C 
HETATM   15  C   UNL     1       4.369  -4.094   0.272  1.00  0.00     0.007 C 
ENDBRANCH  12  14
ENDBRANCH   9  12
ENDBRANCH   4   8
ENDBRANCH   1   2
BRANCH   1  16
HETATM   16  N   UNL     1      -2.576  -3.653   2.770  1.00  0.00    -0.351 N 
HETATM   17  C   UNL     1      -1.810  -4.796   2.828  1.00  0.00     0.273 C 
HETATM   18  O   UNL     1      -1.296  -5.321   1.843  1.00  0.00    -0.266 OA
HETATM   19  H   UNL     1      -2.934  -3.320   3.660  1.00  0.00     0.163 HD
BRANCH  17  20
HETATM   20  C   UNL     1      -1.681  -5.335   4.192  1.00  0.00     0.157 A 
HETATM   21  N   UNL     1      -2.352  -4.786   5.230  1.00  0.00    -0.168 NA
HETATM   22  N   UNL     1      -2.012  -5.562   6.275  1.00  0.00    -0.277 N 
HETATM   23  H   UNL     1      -2.411  -5.349   7.182  1.00  0.00     0.189 HD
HETATM   24  C   UNL     1      -1.142  -6.572   5.973  1.00  0.00     0.063 A 
HETATM   25  C   UNL     1      -0.897  -6.450   4.611  1.00  0.00     0.029 A 
HETATM   26  C   UNL     1      -0.563  -7.566   6.767  1.00  0.00     0.032 A 
HETATM   27  C   UNL     1      -0.016  -7.361   3.996  1.00  0.00     0.023 A 
HETATM   28  C   UNL     1       0.592  -8.367   4.768  1.00  0.00    -0.061 A 
HETATM   29  C   UNL     1       0.311  -8.459   6.136  1.00  0.00     0.009 A 
HETATM   30  C   UNL     1       1.545  -9.324   4.112  1.00  0.00     0.048 C 
ENDBRANCH  17  20
ENDBRANCH   1  16
TORSDOF 6
