REMARK  8 active torsions:
REMARK  status: ('A' for Active; 'I' for Inactive)
REMARK    1  A    between atoms: C_2  and  C_3 
REMARK    2  A    between atoms: C_3  and  C_4 
REMARK    3  A    between atoms: C_8  and  C_9 
REMARK       I    between atoms: C_9  and  N_10 
REMARK    4  A    between atoms: N_10  and  C_11 
REMARK    5  A    between atoms: N_10  and  C_17 
REMARK    6  A    between atoms: C_17  and  C_18 
REMARK    7  A    between atoms: C_18  and  O_19 
REMARK    8  A    between atoms: C_18  and  C_20 
ROOT
HETATM    1  C   UNL     1       6.528  -1.996   3.756  1.00  0.00     0.272 C 
HETATM    2  N   UNL     1       6.991  -2.183   5.063  1.00  0.00    -0.339 N 
HETATM    3  O   UNL     1       6.766  -2.806   2.864  1.00  0.00    -0.266 OA
ENDROOT
BRANCH   2   4
HETATM    4  C   UNL     1       7.732  -3.422   5.424  1.00  0.00     0.087 C 
HETATM    5  C   UNL     1       6.805  -4.644   5.557  1.00  0.00     0.025 C 
HETATM    6  C   UNL     1       6.774  -5.577   4.354  1.00  0.00     0.002 C 
HETATM    7  C   UNL     1       8.178  -5.949   3.904  1.00  0.00     0.000 C 
HETATM    8  C   UNL     1       8.982  -4.717   3.522  1.00  0.00     0.002 C 
HETATM    9  C   UNL     1       9.034  -3.670   4.634  1.00  0.00     0.025 C 
ENDBRANCH   2   4
BRANCH   2  10
HETATM   10  C   UNL     1       7.043  -1.098   6.069  1.00  0.00     0.163 C 
BRANCH  10  11
HETATM   11  C   UNL     1       8.254  -0.154   5.899  1.00  0.00     0.169 C 
BRANCH  11  12
HETATM   12  O   UNL     1       9.476  -0.861   6.137  1.00  0.00    -0.389 OA
HETATM   13  H   UNL     1      10.174  -0.188   6.229  1.00  0.00     0.210 HD
ENDBRANCH  11  12
BRANCH  11  14
HETATM   14  C   UNL     1       8.179   1.017   6.859  1.00  0.00    -0.028 A 
HETATM   15  C   UNL     1       7.799   2.286   6.401  1.00  0.00     0.010 A 
HETATM   16  C   UNL     1       7.727   3.364   7.286  1.00  0.00     0.001 A 
HETATM   17  C   UNL     1       8.029   3.186   8.635  1.00  0.00     0.000 A 
HETATM   18  C   UNL     1       8.399   1.928   9.105  1.00  0.00     0.001 A 
HETATM   19  C   UNL     1       8.471   0.849   8.223  1.00  0.00     0.010 A 
ENDBRANCH  11  14
ENDBRANCH  10  11
ENDBRANCH   2  10
BRANCH   1  20
HETATM   20  C   UNL     1       5.788  -0.807   3.408  1.00  0.00     0.119 A 
HETATM   21  N   UNL     1       5.948  -0.227   2.176  1.00  0.00    -0.273 N 
HETATM   22  N   UNL     1       5.199   0.869   1.981  1.00  0.00    -0.179 NA
HETATM   23  H   UNL     1       6.562  -0.543   1.432  1.00  0.00     0.189 HD
HETATM   24  C   UNL     1       4.429   0.928   3.073  1.00  0.00     0.057 A 
HETATM   25  C   UNL     1       4.757  -0.098   3.993  1.00  0.00     0.065 A 
BRANCH  24  26
HETATM   26  C   UNL     1       3.364   1.967   3.189  1.00  0.00     0.061 C 
BRANCH  26  27
HETATM   27  C   UNL     1       2.038   1.497   2.588  1.00  0.00     0.002 C 
HETATM   28  C   UNL     1       0.973   2.579   2.666  1.00  0.00     0.005 C 
ENDBRANCH  26  27
ENDBRANCH  24  26
ENDBRANCH   1  20
TORSDOF 8
