REMARK  6 active torsions:
REMARK  status: ('A' for Active; 'I' for Inactive)
REMARK    1  A    between atoms: C_5  and  C_6 
REMARK    2  A    between atoms: C_11  and  C_12 
REMARK       I    between atoms: C_12  and  N_13 
REMARK    3  A    between atoms: N_13  and  C_14 
REMARK    4  A    between atoms: C_16  and  C_17 
REMARK    5  A    between atoms: C_17  and  O_18 
REMARK    6  A    between atoms: C_25  and  C_26 
ROOT
HETATM    1  C   UNL     1      12.246   3.010  -2.443  1.00  0.00     0.118 C 
HETATM    2  N   UNL     1      12.499   4.308  -3.061  1.00  0.00    -0.366 N 
HETATM    3  C   UNL     1      11.509   5.032  -3.623  1.00  0.00     0.123 A 
HETATM    4  N   UNL     1      10.264   4.512  -3.838  1.00  0.00    -0.240 N 
HETATM    5  N   UNL     1       9.423   5.355  -4.470  1.00  0.00    -0.165 NA
HETATM    6  C   UNL     1      10.137   6.502  -4.558  1.00  0.00     0.148 A 
HETATM    7  C   UNL     1      11.457   6.327  -4.064  1.00  0.00     0.089 A 
HETATM    8  C   UNL     1       9.859   3.175  -3.450  1.00  0.00     0.221 C 
HETATM    9  C   UNL     1      11.087   2.291  -3.157  1.00  0.00     0.066 C 
HETATM   10  H   UNL     1      13.361   4.762  -2.760  1.00  0.00     0.161 HD
ENDROOT
BRANCH   6  11
HETATM   11  C   UNL     1       9.566   7.751  -5.093  1.00  0.00     0.276 C 
HETATM   12  N   UNL     1       8.272   7.582  -5.544  1.00  0.00    -0.322 N 
HETATM   13  H   UNL     1       7.946   6.619  -5.501  1.00  0.00     0.169 HD
HETATM   14  O   UNL     1      10.219   8.789  -5.114  1.00  0.00    -0.266 OA
BRANCH  12  15
HETATM   15  C   UNL     1       7.390   8.560  -6.034  1.00  0.00     0.035 A 
HETATM   16  C   UNL     1       7.659   9.931  -5.994  1.00  0.00     0.039 A 
HETATM   17  C   UNL     1       6.729  10.874  -6.472  1.00  0.00    -0.028 A 
HETATM   18  C   UNL     1       5.526  10.410  -7.018  1.00  0.00     0.010 A 
HETATM   19  C   UNL     1       5.248   9.044  -7.062  1.00  0.00     0.003 A 
HETATM   20  C   UNL     1       6.172   8.125  -6.564  1.00  0.00     0.029 A 
BRANCH  17  21
HETATM   21  C   UNL     1       7.062  12.348  -6.386  1.00  0.00     0.147 C 
HETATM   22  C   UNL     1       8.013  12.779  -7.496  1.00  0.00     0.044 C 
BRANCH  21  23
HETATM   23  O   UNL     1       5.877  13.140  -6.461  1.00  0.00    -0.391 OA
HETATM   24  H   UNL     1       6.142  14.059  -6.291  1.00  0.00     0.210 HD
ENDBRANCH  21  23
ENDBRANCH  17  21
ENDBRANCH  12  15
ENDBRANCH   6  11
BRANCH   8  25
HETATM   25  C   UNL     1       8.866   3.237  -2.309  1.00  0.00     0.409 C 
HETATM   26  F   UNL     1       9.281   3.971  -1.262  1.00  0.00    -0.169 F 
HETATM   27  F   UNL     1       7.674   3.740  -2.708  1.00  0.00    -0.169 F 
HETATM   28  F   UNL     1       8.608   1.986  -1.847  1.00  0.00    -0.169 F 
ENDBRANCH   8  25
BRANCH   1  29
HETATM   29  C   UNL     1      12.131   3.088  -0.931  1.00  0.00    -0.035 A 
HETATM   30  C   UNL     1      11.901   4.288  -0.240  1.00  0.00     0.010 A 
HETATM   31  C   UNL     1      11.827   4.317   1.155  1.00  0.00     0.007 A 
HETATM   32  C   UNL     1      11.998   3.147   1.899  1.00  0.00    -0.062 A 
HETATM   33  C   UNL     1      11.915   3.168   3.396  1.00  0.00     0.048 C 
HETATM   34  C   UNL     1      12.228   1.946   1.224  1.00  0.00     0.007 A 
HETATM   35  C   UNL     1      12.294   1.917  -0.173  1.00  0.00     0.010 A 
ENDBRANCH   1  29
TORSDOF 6
