REMARK  7 active torsions:
REMARK  status: ('A' for Active; 'I' for Inactive)
REMARK    1  A    between atoms: C_2  and  C_3 
REMARK    2  A    between atoms: C_3  and  C_4 
REMARK    3  A    between atoms: C_7  and  C_8 
REMARK    4  A    between atoms: C_14  and  C_15 
REMARK    5  A    between atoms: C_16  and  O_17 
REMARK    6  A    between atoms: O_17  and  C_18 
REMARK       I    between atoms: C_18  and  N_19 
REMARK    7  A    between atoms: C_33  and  N_34 
ROOT
HETATM    1  C   UNL     1       1.409  -6.065   2.066  1.00  0.00     0.099 A 
HETATM    2  N   UNL     1       0.501  -6.292   3.033  1.00  0.00    -0.172 NA
HETATM    3  N   UNL     1       0.483  -7.630   3.173  1.00  0.00    -0.256 N 
HETATM    4  H   UNL     1      -0.110  -8.039   3.886  1.00  0.00     0.191 HD
HETATM    5  C   UNL     1       1.325  -8.260   2.317  1.00  0.00     0.175 A 
HETATM    6  C   UNL     1       1.901  -7.291   1.533  1.00  0.00     0.040 A 
HETATM    7  C   UNL     1       2.906  -7.680   0.496  1.00  0.00     0.108 A 
HETATM    8  C   UNL     1       3.084  -9.193   0.490  1.00  0.00     0.072 A 
HETATM    9  C   UNL     1       3.947  -9.742  -0.635  1.00  0.00     0.021 C 
HETATM   10  N   UNL     1       4.663 -10.197  -1.568  1.00  0.00    -0.096 N 
HETATM   11  C   UNL     1       2.463 -10.040   1.351  1.00  0.00     0.160 A 
HETATM   12  O   UNL     1       1.543  -9.571   2.305  1.00  0.00    -0.274 OA
ENDROOT
BRANCH   7  13
HETATM   13  C   UNL     1       2.490  -7.038  -0.823  1.00  0.00    -0.010 C 
HETATM   14  C   UNL     1       1.512  -7.520  -1.713  1.00  0.00     0.088 C 
HETATM   15  C   UNL     1       1.108  -6.760  -2.825  1.00  0.00     0.038 C 
HETATM   16  C   UNL     1       1.753  -5.569  -3.139  1.00  0.00     0.003 C 
HETATM   17  C   UNL     1       2.796  -5.126  -2.341  1.00  0.00     0.001 C 
HETATM   18  C   UNL     1       3.157  -5.851  -1.203  1.00  0.00     0.011 C 
BRANCH  14  19
HETATM   19  O   UNL     1       0.935  -8.792  -1.508  1.00  0.00    -0.261 OA
BRANCH  19  20
HETATM   20  C   UNL     1       0.933  -9.665  -2.610  1.00  0.00     0.368 C 
HETATM   21  N   UNL     1       0.360 -10.895  -2.338  1.00  0.00    -0.324 N 
HETATM   22  C   UNL     1       0.042 -11.786  -3.456  1.00  0.00     0.154 C 
HETATM   23  C   UNL     1      -0.294 -11.231  -1.079  1.00  0.00     0.154 C 
HETATM   24  C   UNL     1       0.151 -13.259  -3.053  1.00  0.00     0.187 C 
HETATM   25  O   UNL     1      -0.604 -13.530  -1.861  1.00  0.00    -0.388 OA
HETATM   26  C   UNL     1      -0.129 -12.723  -0.773  1.00  0.00     0.187 C 
HETATM   27  O   UNL     1       1.392  -9.392  -3.716  1.00  0.00    -0.238 OA
ENDBRANCH  19  20
ENDBRANCH  14  19
ENDBRANCH   7  13
BRANCH  11  28
HETATM   28  N   UNL     1       2.621 -11.402   1.384  1.00  0.00    -0.379 N 
HETATM   29  H   UNL     1       2.984 -11.851   0.547  1.00  0.00     0.158 HD
HETATM   30  H   UNL     1       1.862 -11.894   1.844  1.00  0.00     0.158 HD
ENDBRANCH  11  28
BRANCH   1  31
HETATM   31  C   UNL     1       1.779  -4.706   1.696  1.00  0.00    -0.005 A 
HETATM   32  C   UNL     1       3.114  -4.294   1.755  1.00  0.00     0.014 A 
HETATM   33  C   UNL     1       3.484  -3.040   1.261  1.00  0.00     0.008 A 
HETATM   34  C   UNL     1       2.527  -2.173   0.713  1.00  0.00    -0.058 A 
HETATM   35  C   UNL     1       1.179  -2.549   0.768  1.00  0.00     0.008 A 
HETATM   36  C   UNL     1       0.808  -3.811   1.242  1.00  0.00     0.014 A 
BRANCH  34  37
HETATM   37  C   UNL     1       2.988  -0.856   0.124  1.00  0.00     0.042 C 
BRANCH  37  38
HETATM   38  C   UNL     1       2.158  -0.268  -1.039  1.00  0.00    -0.019 C 
HETATM   39  C   UNL     1       2.056  -1.218  -2.237  1.00  0.00     0.010 C 
HETATM   40  C   UNL     1       2.784   1.053  -1.499  1.00  0.00     0.010 C 
ENDBRANCH  37  38
ENDBRANCH  34  37
ENDBRANCH   1  31
TORSDOF 7
