REMARK  9 active torsions:
REMARK  status: ('A' for Active; 'I' for Inactive)
REMARK    1  A    between atoms: C_2  and  O_3 
REMARK    2  A    between atoms: O_3  and  C_4 
REMARK    3  A    between atoms: C_4  and  C_5 
REMARK    4  A    between atoms: C_8  and  N_9 
REMARK       I    between atoms: N_9  and  C_10 
REMARK    5  A    between atoms: C_10  and  C_11 
REMARK    6  A    between atoms: C_11  and  C_12 
REMARK    7  A    between atoms: N_13  and  C_14 
REMARK    8  A    between atoms: C_14  and  C_15 
REMARK    9  A    between atoms: N_23  and  C_24 
ROOT
HETATM    1  C   UNL     1       5.173  -3.430   0.328  1.00  0.00     0.191 C 
HETATM    2  N   UNL     1       6.008  -2.866   1.372  1.00  0.00    -0.315 N 
HETATM    3  C   UNL     1       6.284  -1.522   1.139  1.00  0.00     0.333 C 
HETATM    4  O   UNL     1       7.130  -0.911   1.776  1.00  0.00    -0.246 OA
HETATM    5  N   UNL     1       5.497  -1.084   0.094  1.00  0.00    -0.232 N 
HETATM    6  C   UNL     1       4.752  -2.143  -0.385  1.00  0.00     0.256 C 
HETATM    7  O   UNL     1       3.909  -2.153  -1.276  1.00  0.00    -0.270 OA
ENDROOT
BRANCH   1   8
HETATM    8  C   UNL     1       5.881  -4.298  -0.708  1.00  0.00     0.138 C 
BRANCH   8   9
HETATM    9  C   UNL     1       6.205  -5.670  -0.197  1.00  0.00     0.224 C 
HETATM   10  N   UNL     1       5.288  -6.633   0.060  1.00  0.00    -0.327 N 
HETATM   11  H   UNL     1       5.756  -7.415   0.508  1.00  0.00     0.169 HD
HETATM   12  O   UNL     1       7.385  -5.950   0.055  1.00  0.00    -0.273 OA
BRANCH  10  13
HETATM   13  C   UNL     1       3.931  -6.851  -0.226  1.00  0.00     0.034 A 
HETATM   14  C   UNL     1       3.104  -6.035  -0.993  1.00  0.00     0.030 A 
HETATM   15  C   UNL     1       1.797  -6.449  -1.312  1.00  0.00     0.020 A 
HETATM   16  C   UNL     1       1.303  -7.682  -0.868  1.00  0.00     0.039 A 
HETATM   17  C   UNL     1       2.108  -8.476  -0.052  1.00  0.00     0.020 A 
HETATM   18  C   UNL     1       3.406  -8.060   0.263  1.00  0.00     0.030 A 
BRANCH  16  19
HETATM   19  C   UNL     1      -0.044  -8.126  -1.326  1.00  0.00     0.293 C 
HETATM   20  O   UNL     1      -0.832  -7.402  -1.914  1.00  0.00    -0.259 OA
BRANCH  19  21
HETATM   21  O   UNL     1      -0.211  -9.447  -1.062  1.00  0.00    -0.318 OA
BRANCH  21  22
HETATM   22  C   UNL     1      -1.389 -10.059  -1.607  1.00  0.00     0.174 C 
HETATM   23  C   UNL     1      -2.554  -9.924  -0.647  1.00  0.00     0.034 C 
ENDBRANCH  21  22
ENDBRANCH  19  21
ENDBRANCH  16  19
ENDBRANCH  10  13
ENDBRANCH   8   9
ENDBRANCH   1   8
BRANCH   2  24
HETATM   24  C   UNL     1       6.805  -3.637   2.318  1.00  0.00     0.168 C 
BRANCH  24  25
HETATM   25  C   UNL     1       6.068  -4.728   3.041  1.00  0.00    -0.023 A 
HETATM   26  C   UNL     1       4.819  -4.521   3.614  1.00  0.00     0.125 A 
HETATM   27  N   UNL     1       4.133  -5.462   4.302  1.00  0.00    -0.273 NA
HETATM   28  C   UNL     1       4.734  -6.659   4.463  1.00  0.00     0.116 A 
HETATM   29  C   UNL     1       5.988  -6.961   3.962  1.00  0.00     0.020 A 
HETATM   30  C   UNL     1       6.663  -5.978   3.246  1.00  0.00     0.012 A 
ENDBRANCH  24  25
ENDBRANCH   2  24
BRANCH   5  31
HETATM   31  C   UNL     1       5.508   0.245  -0.435  1.00  0.00     0.047 A 
HETATM   32  C   UNL     1       6.109   1.310   0.263  1.00  0.00     0.037 A 
HETATM   33  C   UNL     1       6.177   2.612  -0.266  1.00  0.00    -0.060 A 
HETATM   34  C   UNL     1       6.811   3.724   0.518  1.00  0.00     0.048 C 
HETATM   35  C   UNL     1       5.608   2.869  -1.512  1.00  0.00     0.007 A 
HETATM   36  C   UNL     1       4.994   1.839  -2.218  1.00  0.00     0.003 A 
HETATM   37  C   UNL     1       4.944   0.545  -1.684  1.00  0.00     0.030 A 
ENDBRANCH   5  31
TORSDOF 9
