REMARK  14 active torsions:
REMARK  status: ('A' for Active; 'I' for Inactive)
REMARK    1  A    between atoms: C_2  and  N_3 
REMARK    2  A    between atoms: N_3  and  C_5 
REMARK    3  A    between atoms: N_3  and  C_39 
REMARK    4  A    between atoms: C_5  and  C_6 
REMARK    5  A    between atoms: C_6  and  C_7 
REMARK    6  A    between atoms: C_7  and  N_8 
REMARK    7  A    between atoms: C_11  and  O_12 
REMARK    8  A    between atoms: C_13  and  C_14 
REMARK    9  A    between atoms: C_14  and  C_15 
REMARK   10  A    between atoms: C_18  and  O_19 
REMARK   11  A    between atoms: O_19  and  C_20 
REMARK   12  A    between atoms: C_20  and  C_21 
REMARK   13  A    between atoms: C_31  and  C_32 
REMARK   14  A    between atoms: C_35  and  O_36 
ROOT
HETATM    1  N   UNL     1      -1.261  -0.341  -3.654  1.00  0.00    -0.333 N 
HETATM    2  C   UNL     1      -1.812  -0.456  -4.910  1.00  0.00     0.278 A 
HETATM    3  O   UNL     1      -1.304  -0.211  -5.992  1.00  0.00    -0.265 OA
HETATM    4  C   UNL     1      -3.237  -0.814  -4.743  1.00  0.00     0.146 A 
HETATM    5  C   UNL     1      -3.455  -0.965  -3.433  1.00  0.00     0.059 A 
HETATM    6  C   UNL     1      -2.213  -0.748  -2.622  1.00  0.00     0.161 A 
ENDROOT
BRANCH   5   7
HETATM    7  C   UNL     1      -4.736  -1.130  -2.718  1.00  0.00     0.193 C 
HETATM    8  O   UNL     1      -4.833  -0.678  -1.578  1.00  0.00    -0.287 OA
BRANCH   7   9
HETATM    9  C   UNL     1      -5.908  -1.775  -3.359  1.00  0.00     0.015 A 
HETATM   10  C   UNL     1      -5.785  -2.829  -4.271  1.00  0.00     0.018 A 
HETATM   11  C   UNL     1      -6.925  -3.381  -4.870  1.00  0.00     0.038 A 
HETATM   12  C   UNL     1      -8.194  -2.902  -4.541  1.00  0.00     0.069 A 
HETATM   13  C   UNL     1      -8.317  -1.892  -3.585  1.00  0.00     0.038 A 
HETATM   14  C   UNL     1      -7.183  -1.329  -2.996  1.00  0.00     0.018 A 
BRANCH  12  15
HETATM   15  O   UNL     1      -9.378  -3.351  -5.053  1.00  0.00    -0.347 OA
BRANCH  15  16
HETATM   16  C   UNL     1      -9.313  -4.115  -6.257  1.00  0.00     0.214 C 
BRANCH  16  17
HETATM   17  C   UNL     1     -10.718  -4.441  -6.705  1.00  0.00    -0.034 A 
HETATM   18  C   UNL     1     -11.161  -4.106  -7.991  1.00  0.00     0.010 A 
HETATM   19  C   UNL     1     -12.451  -4.445  -8.409  1.00  0.00     0.007 A 
HETATM   20  C   UNL     1     -13.321  -5.123  -7.548  1.00  0.00    -0.062 A 
HETATM   21  C   UNL     1     -14.702  -5.509  -7.990  1.00  0.00     0.048 C 
HETATM   22  C   UNL     1     -12.880  -5.462  -6.264  1.00  0.00     0.007 A 
HETATM   23  C   UNL     1     -11.591  -5.124  -5.847  1.00  0.00     0.010 A 
ENDBRANCH  16  17
ENDBRANCH  15  16
ENDBRANCH  12  15
ENDBRANCH   7   9
ENDBRANCH   5   7
BRANCH   4  24
HETATM   24  O   UNL     1      -4.121  -0.829  -5.779  1.00  0.00    -0.355 OA
HETATM   25  H   UNL     1      -3.605  -0.662  -6.592  1.00  0.00     0.218 HD
ENDBRANCH   4  24
BRANCH   6  26
HETATM   26  C   UNL     1      -1.754  -1.965  -1.840  1.00  0.00    -0.030 A 
HETATM   27  C   UNL     1      -1.427  -3.183  -2.464  1.00  0.00     0.012 A 
HETATM   28  C   UNL     1      -1.004  -4.281  -1.709  1.00  0.00     0.037 A 
HETATM   29  C   UNL     1      -0.903  -4.165  -0.327  1.00  0.00     0.065 A 
HETATM   30  C   UNL     1      -1.223  -2.975   0.310  1.00  0.00     0.037 A 
HETATM   31  C   UNL     1      -1.652  -1.880  -0.441  1.00  0.00     0.012 A 
BRANCH  29  32
HETATM   32  O   UNL     1      -0.493  -5.206   0.449  1.00  0.00    -0.361 OA
HETATM   33  H   UNL     1      -0.389  -5.997  -0.104  1.00  0.00     0.217 HD
ENDBRANCH  29  32
ENDBRANCH   6  26
BRANCH   1  34
HETATM   34  C   UNL     1       0.139  -0.075  -3.338  1.00  0.00     0.129 C 
BRANCH  34  35
HETATM   35  C   UNL     1       0.854   0.887  -4.294  1.00  0.00     0.048 C 
BRANCH  35  36
HETATM   36  C   UNL     1       0.125   2.224  -4.413  1.00  0.00     0.236 C 
BRANCH  36  37
HETATM   37  N   UNL     1       0.771   3.115  -5.472  1.00  0.00    -0.072 N 
HETATM   38  H   UNL     1       1.791   3.006  -5.396  1.00  0.00     0.279 HD
BRANCH  37  39
HETATM   39  C   UNL     1       0.440   4.582  -5.243  1.00  0.00     0.230 C 
HETATM   40  C   UNL     1       1.233   5.143  -4.076  1.00  0.00     0.034 C 
ENDBRANCH  37  39
BRANCH  37  41
HETATM   41  C   UNL     1       0.371   2.660  -6.876  1.00  0.00     0.230 C 
HETATM   42  C   UNL     1       1.316   3.226  -7.922  1.00  0.00     0.034 C 
ENDBRANCH  37  41
ENDBRANCH  36  37
ENDBRANCH  35  36
ENDBRANCH  34  35
ENDBRANCH   1  34
TORSDOF 14
