REMARK  8 active torsions:
REMARK  status: ('A' for Active; 'I' for Inactive)
REMARK    1  A    between atoms: O_2  and  C_3 
REMARK    2  A    between atoms: C_3  and  C_4 
REMARK    3  A    between atoms: C_4  and  N_5 
REMARK    4  A    between atoms: N_5  and  C_6 
REMARK       I    between atoms: N_5  and  C_15 
REMARK    5  A    between atoms: C_6  and  C_7 
REMARK    6  A    between atoms: C_11  and  O_12 
REMARK    7  A    between atoms: C_15  and  C_17 
REMARK    8  A    between atoms: C_22  and  C_26 
ROOT
HETATM    1  N   UNL     1       5.057  -0.704   2.661  1.00  0.00    -0.340 N 
HETATM    2  C   UNL     1       6.430  -0.671   2.994  1.00  0.00     0.279 C 
HETATM    3  O   UNL     1       7.255  -0.307   2.152  1.00  0.00    -0.265 OA
ENDROOT
BRANCH   2   4
HETATM    4  C   UNL     1       6.864  -1.068   4.342  1.00  0.00     0.166 A 
HETATM    5  N   UNL     1       6.194  -1.851   5.164  1.00  0.00    -0.235 NA
HETATM    6  C   UNL     1       6.871  -1.973   6.364  1.00  0.00     0.075 A 
HETATM    7  C   UNL     1       6.439  -2.699   7.490  1.00  0.00     0.034 A 
HETATM    8  C   UNL     1       8.084  -1.289   6.437  1.00  0.00     0.036 A 
HETATM    9  C   UNL     1       7.219  -2.707   8.656  1.00  0.00     0.014 A 
HETATM   10  C   UNL     1       8.430  -2.009   8.721  1.00  0.00    -0.022 A 
HETATM   11  C   UNL     1       8.877  -1.295   7.598  1.00  0.00     0.033 A 
HETATM   12  S   UNL     1       8.374  -0.502   4.937  1.00  0.00    -0.063 SA
BRANCH  10  13
HETATM   13  C   UNL     1       9.224  -1.993   9.938  1.00  0.00     0.010 A 
HETATM   14  C   UNL     1      10.095  -1.007  10.460  1.00  0.00     0.152 A 
HETATM   15  N   UNL     1      10.660  -1.372  11.613  1.00  0.00    -0.187 NA
HETATM   16  N   UNL     1      10.159  -2.596  11.834  1.00  0.00    -0.289 N 
HETATM   17  H   UNL     1      10.453  -3.093  12.669  1.00  0.00     0.188 HD
HETATM   18  C   UNL     1       9.294  -3.013  10.862  1.00  0.00     0.123 A 
ENDBRANCH  10  13
ENDBRANCH   2   4
BRANCH   1  19
HETATM   19  C   UNL     1       4.592  -0.292   1.325  1.00  0.00     0.152 C 
BRANCH  19  20
HETATM   20  C   UNL     1       5.500  -0.520   0.110  1.00  0.00     0.187 C 
BRANCH  20  21
HETATM   21  O   UNL     1       4.732  -0.302  -1.081  1.00  0.00    -0.394 OA
HETATM   22  C   UNL     1       5.562  -0.291  -2.237  1.00  0.00     0.201 C 
ENDBRANCH  20  21
ENDBRANCH  19  20
ENDBRANCH   1  19
BRANCH   1  23
HETATM   23  C   UNL     1       4.008  -0.726   3.688  1.00  0.00     0.164 C 
BRANCH  23  24
HETATM   24  C   UNL     1       3.236  -2.022   3.812  1.00  0.00    -0.038 A 
HETATM   25  C   UNL     1       3.663  -3.227   3.241  1.00  0.00     0.009 A 
HETATM   26  C   UNL     1       2.915  -4.393   3.405  1.00  0.00     0.003 A 
HETATM   27  C   UNL     1       1.739  -4.369   4.155  1.00  0.00     0.037 A 
HETATM   28  C   UNL     1       1.303  -3.186   4.750  1.00  0.00     0.068 A 
HETATM   29  C   UNL     1       2.051  -2.020   4.576  1.00  0.00     0.045 A 
BRANCH  28  30
HETATM   30  O   UNL     1       0.143  -3.299   5.468  1.00  0.00    -0.356 OA
HETATM   31  C   UNL     1      -0.317  -2.131   6.137  1.00  0.00     0.210 C 
ENDBRANCH  28  30
ENDBRANCH  23  24
ENDBRANCH   1  23
TORSDOF 8
