REMARK  6 active torsions:
REMARK  status: ('A' for Active; 'I' for Inactive)
REMARK    1  A    between atoms: C_6  and  O_7 
REMARK    2  A    between atoms: C_8  and  C_9 
REMARK    3  A    between atoms: C_9  and  N_10 
REMARK    4  A    between atoms: N_10  and  C_12 
REMARK    5  A    between atoms: C_12  and  C_13 
REMARK    6  A    between atoms: C_12  and  C_16 
REMARK       I    between atoms: C_13  and  N_14 
ROOT
HETATM    1  N   UNL     1       4.340  -3.895  -0.403  1.00  0.00    -0.054 N 
HETATM    2  H   UNL     1       3.922  -4.016   0.530  1.00  0.00     0.281 HD
HETATM    3  C   UNL     1       5.108  -5.134  -0.766  1.00  0.00     0.271 C 
ENDROOT
BRANCH   1   4
HETATM    4  C   UNL     1       5.271  -2.710  -0.187  1.00  0.00     0.277 C 
BRANCH   4   5
HETATM    5  C   UNL     1       6.182  -2.916   0.993  1.00  0.00     0.001 A 
HETATM    6  C   UNL     1       5.661  -3.163   2.264  1.00  0.00     0.074 A 
HETATM    7  C   UNL     1       6.494  -3.402   3.353  1.00  0.00     0.044 A 
HETATM    8  C   UNL     1       7.887  -3.412   3.184  1.00  0.00    -0.053 A 
HETATM    9  C   UNL     1       8.434  -3.139   1.914  1.00  0.00    -0.055 A 
HETATM   10  C   UNL     1       8.770  -3.698   4.371  1.00  0.00     0.049 C 
HETATM   11  C   UNL     1       9.922  -3.154   1.677  1.00  0.00     0.049 C 
HETATM   12  C   UNL     1       7.574  -2.896   0.830  1.00  0.00     0.019 A 
BRANCH   6  13
HETATM   13  O   UNL     1       4.299  -3.219   2.404  1.00  0.00    -0.360 OA
HETATM   14  H   UNL     1       4.101  -3.183   3.363  1.00  0.00     0.217 HD
ENDBRANCH   6  13
ENDBRANCH   4   5
ENDBRANCH   1   4
BRANCH   1  15
HETATM   15  C   UNL     1       3.196  -3.550  -1.370  1.00  0.00     0.312 C 
BRANCH  15  16
HETATM   16  C   UNL     1       3.762  -3.348  -2.809  1.00  0.00     0.251 C 
HETATM   17  N   UNL     1       3.795  -4.423  -3.655  1.00  0.00    -0.368 N 
HETATM   18  H   UNL     1       3.162  -5.211  -3.569  1.00  0.00     0.159 HD
HETATM   19  H   UNL     1       4.135  -4.239  -4.595  1.00  0.00     0.159 HD
HETATM   20  O   UNL     1       4.319  -2.301  -3.134  1.00  0.00    -0.271 OA
ENDBRANCH  15  16
BRANCH  15  21
HETATM   21  C   UNL     1       1.967  -4.462  -1.300  1.00  0.00    -0.016 A 
HETATM   22  C   UNL     1       1.785  -5.434  -0.302  1.00  0.00     0.052 A 
HETATM   23  C   UNL     1       0.636  -6.226  -0.282  1.00  0.00     0.117 A 
HETATM   24  F   UNL     1       0.507  -7.155   0.672  1.00  0.00    -0.206 F 
HETATM   25  C   UNL     1      -0.364  -6.069  -1.228  1.00  0.00     0.042 A 
HETATM   26  C   UNL     1      -0.226  -5.087  -2.202  1.00  0.00     0.004 A 
HETATM   27  C   UNL     1       0.919  -4.283  -2.229  1.00  0.00     0.010 A 
ENDBRANCH  15  21
ENDBRANCH   1  15
TORSDOF 6
