REMARK  2 active torsions:
REMARK  status: ('A' for Active; 'I' for Inactive)
REMARK    1  A    between atoms: C_11  and  N_12 
REMARK    2  A    between atoms: N_12  and  C_13 
ROOT
HETATM    1  C   UNL     1       3.260  -0.991   1.228  1.00  0.00     0.010 C 
HETATM    2  C   UNL     1       2.709  -0.085   0.129  1.00  0.00    -0.014 C 
HETATM    3  C   UNL     1       3.281   1.340   0.264  1.00  0.00     0.051 C 
HETATM    4  C   UNL     1       2.941   2.156  -0.947  1.00  0.00    -0.008 A 
HETATM    5  C   UNL     1       2.531   1.658  -2.172  1.00  0.00    -0.028 A 
HETATM    6  C   UNL     1       2.241   2.728  -3.117  1.00  0.00     0.053 A 
HETATM    7  C   UNL     1       2.529   3.962  -2.541  1.00  0.00     0.114 A 
HETATM    8  N   UNL     1       2.411   5.169  -3.113  1.00  0.00    -0.234 NA
HETATM    9  C   UNL     1       1.961   5.096  -4.361  1.00  0.00     0.236 A 
HETATM   10  N   UNL     1       1.624   3.991  -5.037  1.00  0.00    -0.223 NA
HETATM   11  C   UNL     1       1.737   2.775  -4.447  1.00  0.00     0.143 A 
HETATM   12  S   UNL     1       3.070   3.846  -0.931  1.00  0.00    -0.073 SA
HETATM   13  C   UNL     1       2.385   0.177  -2.388  1.00  0.00     0.041 C 
HETATM   14  C   UNL     1       3.024  -0.658  -1.266  1.00  0.00     0.009 C 
ENDROOT
BRANCH  11  15
HETATM   15  N   UNL     1       1.375   1.617  -5.153  1.00  0.00    -0.340 N 
HETATM   16  H   UNL     1       1.538   0.765  -4.645  1.00  0.00     0.167 HD
BRANCH  15  17
HETATM   17  C   UNL     1       0.687   1.413  -6.365  1.00  0.00     0.036 A 
HETATM   18  C   UNL     1       0.661   0.111  -6.899  1.00  0.00     0.069 A 
HETATM   19  C   UNL     1       0.012  -0.109  -8.098  1.00  0.00     0.107 A 
HETATM   20  C   UNL     1      -0.599   0.908  -8.786  1.00  0.00     0.105 A 
HETATM   21  O   UNL     1      -0.104  -1.308  -8.730  1.00  0.00    -0.323 OA
HETATM   22  O   UNL     1      -1.181   0.482  -9.938  1.00  0.00    -0.323 OA
HETATM   23  C   UNL     1      -0.588   2.199  -8.314  1.00  0.00     0.042 A 
HETATM   24  C   UNL     1      -0.863  -0.924  -9.897  1.00  0.00     0.352 A 
HETATM   25  C   UNL     1       0.067   2.446  -7.099  1.00  0.00     0.032 A 
ENDBRANCH  15  17
ENDBRANCH  11  15
TORSDOF 2
