REMARK  3 active torsions:
REMARK  status: ('A' for Active; 'I' for Inactive)
REMARK    1  A    between atoms: C_5  and  C_6 
REMARK    2  A    between atoms: C_10  and  C_11 
REMARK    3  A    between atoms: C_24  and  N_25 
ROOT
HETATM    1  C   UNL     1       6.826  -0.190  -0.544  1.00  0.00     0.070 A 
HETATM    2  N   UNL     1       7.363   1.022  -0.799  1.00  0.00    -0.228 NA
HETATM    3  C   UNL     1       8.602   1.142  -1.266  1.00  0.00     0.165 A 
HETATM    4  C   UNL     1       9.411   0.030  -1.525  1.00  0.00     0.063 A 
HETATM    5  C   UNL     1       8.874  -1.264  -1.214  1.00  0.00    -0.006 A 
HETATM    6  C   UNL     1       7.566  -1.346  -0.719  1.00  0.00     0.046 A 
HETATM    7  N   UNL     1       8.996   2.387  -1.478  1.00  0.00    -0.222 NA
HETATM    8  C   UNL     1      10.216   2.576  -1.970  1.00  0.00     0.237 A 
HETATM    9  N   UNL     1      11.078   1.618  -2.295  1.00  0.00    -0.229 NA
HETATM   10  C   UNL     1      10.666   0.363  -2.083  1.00  0.00     0.117 A 
ENDROOT
BRANCH   5  11
HETATM   11  C   UNL     1       9.614  -2.527  -1.389  1.00  0.00    -0.022 A 
HETATM   12  C   UNL     1      10.716  -2.839  -0.572  1.00  0.00     0.052 A 
HETATM   13  C   UNL     1      11.382  -4.027  -0.792  1.00  0.00     0.105 A 
HETATM   14  C   UNL     1      10.982  -4.914  -1.763  1.00  0.00     0.105 A 
HETATM   15  O   UNL     1      12.481  -4.460  -0.117  1.00  0.00    -0.323 OA
HETATM   16  O   UNL     1      11.777  -6.015  -1.820  1.00  0.00    -0.323 OA
HETATM   17  C   UNL     1       9.893  -4.665  -2.566  1.00  0.00     0.040 A 
HETATM   18  C   UNL     1      12.747  -5.703  -0.798  1.00  0.00     0.352 A 
HETATM   19  C   UNL     1       9.207  -3.460  -2.376  1.00  0.00     0.015 A 
ENDBRANCH   5  11
BRANCH  10  20
HETATM   20  N   UNL     1      11.619  -0.585  -2.448  1.00  0.00    -0.286 NA
HETATM   21  H   UNL     1      12.404  -0.092  -2.866  1.00  0.00     0.125 HD
HETATM   22  H   UNL     1      11.247  -1.298  -3.063  1.00  0.00     0.125 HD
ENDBRANCH  10  20
BRANCH   1  23
HETATM   23  C   UNL     1       5.416  -0.182  -0.097  1.00  0.00    -0.007 A 
HETATM   24  C   UNL     1       4.533  -1.240  -0.378  1.00  0.00     0.014 A 
HETATM   25  C   UNL     1       3.189  -1.197   0.017  1.00  0.00     0.007 A 
HETATM   26  C   UNL     1       2.685  -0.086   0.698  1.00  0.00    -0.062 A 
HETATM   27  C   UNL     1       1.249  -0.028   1.124  1.00  0.00     0.048 C 
HETATM   28  C   UNL     1       3.550   0.968   0.998  1.00  0.00     0.007 A 
HETATM   29  C   UNL     1       4.891   0.921   0.601  1.00  0.00     0.014 A 
ENDBRANCH   1  23
TORSDOF 3
