REMARK  5 active torsions:
REMARK  status: ('A' for Active; 'I' for Inactive)
REMARK    1  A    between atoms: C_2  and  C_3 
REMARK    2  A    between atoms: C_2  and  C_20 
REMARK       I    between atoms: C_3  and  N_4 
REMARK    3  A    between atoms: N_4  and  C_5 
REMARK    4  A    between atoms: C_8  and  O_9 
REMARK    5  A    between atoms: O_9  and  C_10 
ROOT
HETATM    1  C   UNL     1       4.149  -1.108  -1.719  1.00  0.00     0.052 A 
HETATM    2  C   UNL     1       4.588   0.151  -2.123  1.00  0.00     0.149 A 
HETATM    3  N   UNL     1       4.945   0.463  -3.397  1.00  0.00    -0.235 NA
HETATM    4  C   UNL     1       4.855  -0.522  -4.315  1.00  0.00     0.169 A 
HETATM    5  C   UNL     1       4.423  -1.804  -4.018  1.00  0.00     0.060 A 
HETATM    6  C   UNL     1       4.076  -2.100  -2.700  1.00  0.00     0.035 A 
ENDROOT
BRANCH   1   7
HETATM    7  N   UNL     1       3.781  -1.463  -0.403  1.00  0.00    -0.325 N 
HETATM    8  C   UNL     1       3.657  -0.608   0.681  1.00  0.00     0.231 C 
HETATM    9  O   UNL     1       3.795   0.609   0.617  1.00  0.00    -0.272 OA
HETATM   10  H   UNL     1       3.539  -2.435  -0.264  1.00  0.00     0.169 HD
BRANCH   8  11
HETATM   11  C   UNL     1       3.237  -1.306   1.994  1.00  0.00     0.046 C 
HETATM   12  C   UNL     1       1.806  -1.852   1.811  1.00  0.00     0.026 C 
HETATM   13  C   UNL     1       4.181  -2.474   2.332  1.00  0.00     0.026 C 
BRANCH  11  14
HETATM   14  C   UNL     1       3.197  -0.274   3.146  1.00  0.00     0.133 C 
HETATM   15 CL   UNL     1       4.807   0.274   3.694  1.00  0.00    -0.129 Cl
ENDBRANCH  11  14
ENDBRANCH   8  11
ENDBRANCH   1   7
BRANCH   4  16
HETATM   16  O   UNL     1       5.182  -0.281  -5.646  1.00  0.00    -0.289 OA
BRANCH  16  17
HETATM   17  C   UNL     1       5.834   0.896  -5.914  1.00  0.00     0.116 A 
HETATM   18  C   UNL     1       5.188   1.867  -6.674  1.00  0.00     0.150 A 
HETATM   19  F   UNL     1       3.928   1.673  -7.093  1.00  0.00    -0.203 F 
HETATM   20  C   UNL     1       5.841   3.047  -7.019  1.00  0.00     0.045 A 
HETATM   21  C   UNL     1       7.161   3.250  -6.611  1.00  0.00     0.003 A 
HETATM   22  C   UNL     1       7.821   2.270  -5.866  1.00  0.00     0.003 A 
HETATM   23  C   UNL     1       7.162   1.087  -5.523  1.00  0.00     0.040 A 
ENDBRANCH  16  17
ENDBRANCH   4  16
TORSDOF 5
