REMARK  5 active torsions:
REMARK  status: ('A' for Active; 'I' for Inactive)
REMARK    1  A    between atoms: C_2  and  C_3 
REMARK    2  A    between atoms: C_4  and  N_5 
REMARK       I    between atoms: N_5  and  C_6 
REMARK    3  A    between atoms: C_6  and  C_7 
REMARK    4  A    between atoms: C_10  and  O_11 
REMARK    5  A    between atoms: C_20  and  C_21 
ROOT
HETATM    1  C   UNL     1       2.723  -0.563   1.047  1.00  0.00     0.018 A 
HETATM    2  C   UNL     1       2.986  -0.116   2.329  1.00  0.00     0.133 A 
HETATM    3  N   UNL     1       2.656  -1.135   3.169  1.00  0.00    -0.261 N 
HETATM    4  H   UNL     1       2.692  -1.132   4.185  1.00  0.00     0.191 HD
HETATM    5  N   UNL     1       2.301  -2.251   2.534  1.00  0.00    -0.172 NA
HETATM    6  C   UNL     1       2.338  -1.949   1.221  1.00  0.00     0.097 A 
ENDROOT
BRANCH   2   7
HETATM    7  N   UNL     1       3.504   1.125   2.668  1.00  0.00    -0.307 N 
HETATM    8  C   UNL     1       3.670   1.520   4.035  1.00  0.00     0.260 C 
HETATM    9  O   UNL     1       3.233   0.809   4.927  1.00  0.00    -0.267 OA
HETATM   10  H   UNL     1       3.821   1.734   1.922  1.00  0.00     0.170 HD
BRANCH   8  11
HETATM   11  C   UNL     1       4.363   2.796   4.302  1.00  0.00     0.073 A 
HETATM   12  C   UNL     1       5.241   3.340   3.363  1.00  0.00     0.165 A 
HETATM   13  F   UNL     1       5.399   2.720   2.182  1.00  0.00    -0.202 F 
HETATM   14  C   UNL     1       5.935   4.520   3.639  1.00  0.00     0.107 A 
HETATM   15  C   UNL     1       5.697   5.179   4.849  1.00  0.00     0.040 A 
HETATM   16  C   UNL     1       4.817   4.643   5.792  1.00  0.00     0.004 A 
HETATM   17  C   UNL     1       4.159   3.443   5.527  1.00  0.00     0.020 A 
BRANCH  14  18
HETATM   18  O   UNL     1       6.832   5.140   2.815  1.00  0.00    -0.353 OA
HETATM   19  C   UNL     1       7.544   4.301   1.911  1.00  0.00     0.210 C 
ENDBRANCH  14  18
ENDBRANCH   8  11
ENDBRANCH   2   7
BRANCH   1  20
HETATM   20  C   UNL     1       2.830   0.263  -0.193  1.00  0.00     0.040 C 
HETATM   21  C   UNL     1       4.194   0.162  -0.857  1.00  0.00     0.010 C 
ENDBRANCH   1  20
BRANCH   6  22
HETATM   22  C   UNL     1       2.016  -3.018   0.249  1.00  0.00    -0.002 A 
HETATM   23  C   UNL     1       1.696  -4.301   0.723  1.00  0.00     0.033 A 
HETATM   24  C   UNL     1       1.416  -5.317  -0.176  1.00  0.00     0.117 A 
HETATM   25  N   UNL     1       1.427  -5.151  -1.512  1.00  0.00    -0.273 NA
HETATM   26  C   UNL     1       1.734  -3.919  -1.960  1.00  0.00     0.117 A 
HETATM   27  C   UNL     1       2.035  -2.842  -1.135  1.00  0.00     0.033 A 
ENDBRANCH   6  22
TORSDOF 5
