REMARK  6 active torsions:
REMARK  status: ('A' for Active; 'I' for Inactive)
REMARK    1  A    between atoms: C_2  and  O_3 
REMARK    2  A    between atoms: O_3  and  C_4 
REMARK    3  A    between atoms: C_4  and  C_5 
REMARK    4  A    between atoms: C_6  and  O_7 
REMARK    5  A    between atoms: C_12  and  O_13 
REMARK    6  A    between atoms: C_17  and  C_18 
ROOT
HETATM    1  C   UNL     1       1.907  -0.887  -2.832  1.00  0.00     0.133 C 
HETATM    2  C   UNL     1       1.350  -0.494  -1.424  1.00  0.00     0.073 C 
HETATM    3  C   UNL     1       0.730   0.912  -1.400  1.00  0.00     0.047 C 
HETATM    4  C   UNL     1       0.348  -1.520  -0.820  1.00  0.00     0.097 C 
HETATM    5  C   UNL     1       0.802  -2.903  -1.110  1.00  0.00     0.042 A 
HETATM    6  C   UNL     1       1.713  -3.301  -2.065  1.00  0.00     0.030 A 
HETATM    7  C   UNL     1       1.758  -4.695  -1.904  1.00  0.00     0.190 A 
HETATM    8  N   UNL     1       0.952  -5.149  -0.952  1.00  0.00    -0.149 NA
HETATM    9  N   UNL     1       0.388  -4.031  -0.463  1.00  0.00    -0.279 N 
HETATM   10  H   UNL     1      -0.268  -4.120   0.306  1.00  0.00     0.189 HD
HETATM   11  C   UNL     1       2.382  -2.359  -3.005  1.00  0.00     0.074 C 
ENDROOT
BRANCH  11  12
HETATM   12  C   UNL     1       3.889  -2.521  -2.843  1.00  0.00    -0.048 A 
HETATM   13  C   UNL     1       4.683  -2.599  -4.005  1.00  0.00     0.011 A 
HETATM   14  C   UNL     1       6.071  -2.718  -3.918  1.00  0.00     0.043 A 
HETATM   15  C   UNL     1       6.678  -2.750  -2.670  1.00  0.00     0.116 A 
HETATM   16  F   UNL     1       8.010  -2.859  -2.588  1.00  0.00    -0.206 F 
HETATM   17  C   UNL     1       5.923  -2.664  -1.509  1.00  0.00     0.043 A 
HETATM   18  C   UNL     1       4.534  -2.547  -1.594  1.00  0.00     0.011 A 
ENDBRANCH  11  12
BRANCH   1  19
HETATM   19  C   UNL     1       0.968  -0.598  -3.985  1.00  0.00     0.267 C 
HETATM   20  O   UNL     1       1.368  -0.211  -5.076  1.00  0.00    -0.265 OA
BRANCH  19  21
HETATM   21  O   UNL     1      -0.325  -0.885  -3.696  1.00  0.00    -0.316 OA
BRANCH  21  22
HETATM   22  C   UNL     1      -1.282  -0.677  -4.755  1.00  0.00     0.123 C 
HETATM   23  C   UNL     1      -1.631   0.804  -4.860  1.00  0.00     0.040 C 
HETATM   24  C   UNL     1      -2.519  -1.493  -4.402  1.00  0.00     0.040 C 
ENDBRANCH  21  22
ENDBRANCH  19  21
ENDBRANCH   1  19
BRANCH   2  25
HETATM   25  O   UNL     1       2.464  -0.419  -0.503  1.00  0.00    -0.389 OA
HETATM   26  H   UNL     1       3.096   0.247  -0.829  1.00  0.00     0.210 HD
ENDBRANCH   2  25
BRANCH   7  27
HETATM   27  O   UNL     1       2.492  -5.604  -2.548  1.00  0.00    -0.343 OA
HETATM   28  H   UNL     1       3.170  -5.156  -3.075  1.00  0.00     0.219 HD
ENDBRANCH   7  27
TORSDOF 6
