REMARK  5 active torsions:
REMARK  status: ('A' for Active; 'I' for Inactive)
REMARK    1  A    between atoms: C_3  and  O_4 
REMARK    2  A    between atoms: O_4  and  C_5 
REMARK    3  A    between atoms: C_5  and  C_6 
REMARK       I    between atoms: C_6  and  N_7 
REMARK    4  A    between atoms: N_7  and  N_8 
REMARK    5  A    between atoms: C_9  and  C_10 
ROOT
HETATM    1  C   UNL     1       2.639   4.686  -0.589  1.00  0.00     0.261 C 
HETATM    2  N   UNL     1       1.360   4.514  -0.072  1.00  0.00    -0.246 N 
HETATM    3  O   UNL     1       3.059   5.678  -1.180  1.00  0.00    -0.269 OA
HETATM    4  H   UNL     1       1.225   3.724   0.557  1.00  0.00     0.192 HD
ENDROOT
BRANCH   2   5
HETATM    5  N   UNL     1       0.335   5.429  -0.050  1.00  0.00    -0.184 NA
HETATM    6  C   UNL     1       0.355   6.432  -0.868  1.00  0.00     0.152 C 
BRANCH   6   7
HETATM    7  C   UNL     1      -0.714   7.412  -0.824  1.00  0.00     0.011 A 
HETATM    8  C   UNL     1      -0.769   8.653  -1.539  1.00  0.00     0.004 A 
HETATM    9  C   UNL     1      -1.975   9.274  -1.207  1.00  0.00     0.043 A 
HETATM   10  C   UNL     1       0.101   9.313  -2.433  1.00  0.00     0.014 A 
HETATM   11  C   UNL     1      -2.355  10.517  -1.728  1.00  0.00     0.030 A 
HETATM   12  N   UNL     1      -2.628   8.444  -0.326  1.00  0.00    -0.364 N 
HETATM   13  C   UNL     1      -1.474  11.148  -2.611  1.00  0.00     0.002 A 
HETATM   14  C   UNL     1      -0.262  10.558  -2.959  1.00  0.00     0.001 A 
HETATM   15  H   UNL     1      -3.531   8.641   0.084  1.00  0.00     0.165 HD
HETATM   16  C   UNL     1      -1.878   7.326  -0.083  1.00  0.00     0.102 A 
ENDBRANCH   6   7
ENDBRANCH   2   5
BRANCH   1  17
HETATM   17  C   UNL     1       3.510   3.442  -0.432  1.00  0.00     0.280 C 
BRANCH  17  18
HETATM   18  O   UNL     1       3.186   2.727   0.759  1.00  0.00    -0.342 OA
BRANCH  18  19
HETATM   19  C   UNL     1       4.156   1.839   1.155  1.00  0.00     0.075 A 
HETATM   20  C   UNL     1       4.399   1.724   2.532  1.00  0.00    -0.029 A 
HETATM   21  C   UNL     1       3.625   2.528   3.539  1.00  0.00     0.051 C 
HETATM   22  C   UNL     1       5.360   0.804   2.981  1.00  0.00     0.009 A 
HETATM   23  C   UNL     1       6.073   0.020   2.074  1.00  0.00     0.001 A 
HETATM   24  C   UNL     1       5.820   0.133   0.710  1.00  0.00     0.003 A 
HETATM   25  C   UNL     1       4.858   1.033   0.251  1.00  0.00     0.037 A 
ENDBRANCH  18  19
ENDBRANCH  17  18
ENDBRANCH   1  17
TORSDOF 5
