REMARK  7 active torsions:
REMARK  status: ('A' for Active; 'I' for Inactive)
REMARK    1  A    between atoms: C_2  and  C_3 
REMARK    2  A    between atoms: C_4  and  N_5 
REMARK       I    between atoms: N_5  and  C_6 
REMARK    3  A    between atoms: C_6  and  C_7 
REMARK    4  A    between atoms: C_8  and  N_9 
REMARK       I    between atoms: N_9  and  C_10 
REMARK    5  A    between atoms: C_10  and  C_11 
REMARK    6  A    between atoms: C_11  and  N_12 
REMARK    7  A    between atoms: C_25  and  C_26 
ROOT
HETATM    1  C   UNL     1       1.986   5.705   0.950  1.00  0.00     0.073 A 
HETATM    2  C   UNL     1       2.117   7.066   0.730  1.00  0.00     0.093 A 
HETATM    3  S   UNL     1       2.690   7.929   2.073  1.00  0.00    -0.075 SA
HETATM    4  C   UNL     1       2.873   6.502   2.975  1.00  0.00    -0.008 A 
HETATM    5  C   UNL     1       2.454   5.378   2.288  1.00  0.00    -0.026 A 
HETATM    6  C   UNL     1       2.444   4.036   2.962  1.00  0.00     0.041 C 
HETATM    7  C   UNL     1       2.456   4.165   4.496  1.00  0.00     0.010 C 
HETATM    8  C   UNL     1       3.566   5.132   4.991  1.00  0.00    -0.002 C 
HETATM    9  C   UNL     1       3.337   6.551   4.402  1.00  0.00     0.052 C 
ENDROOT
BRANCH   1  10
HETATM   10  C   UNL     1       1.322   4.799  -0.002  1.00  0.00     0.259 C 
HETATM   11  N   UNL     1       1.937   3.568  -0.116  1.00  0.00    -0.322 N 
HETATM   12  H   UNL     1       2.841   3.495   0.328  1.00  0.00     0.169 HD
HETATM   13  O   UNL     1       0.332   5.175  -0.627  1.00  0.00    -0.267 OA
BRANCH  11  14
HETATM   14  C   UNL     1       1.502   2.441  -0.854  1.00  0.00     0.041 A 
HETATM   15  C   UNL     1       2.348   1.313  -0.960  1.00  0.00    -0.032 A 
HETATM   16  C   UNL     1       1.916   0.197  -1.705  1.00  0.00     0.009 A 
HETATM   17  C   UNL     1       0.664   0.179  -2.314  1.00  0.00     0.001 A 
HETATM   18  C   UNL     1      -0.177   1.275  -2.187  1.00  0.00     0.002 A 
HETATM   19  C   UNL     1       0.239   2.395  -1.462  1.00  0.00     0.030 A 
BRANCH  15  20
HETATM   20  C   UNL     1       3.723   1.232  -0.331  1.00  0.00     0.036 C 
HETATM   21  C   UNL     1       4.784   1.913  -1.183  1.00  0.00     0.010 C 
ENDBRANCH  15  20
ENDBRANCH  11  14
ENDBRANCH   1  10
BRANCH   2  22
HETATM   22  N   UNL     1       1.824   7.892  -0.332  1.00  0.00    -0.319 N 
HETATM   23  C   UNL     1       1.855   7.448  -1.634  1.00  0.00     0.248 C 
HETATM   24  O   UNL     1       2.500   6.490  -2.062  1.00  0.00    -0.271 OA
HETATM   25  H   UNL     1       1.793   8.883  -0.121  1.00  0.00     0.169 HD
BRANCH  23  26
HETATM   26  C   UNL     1       1.015   8.286  -2.593  1.00  0.00     0.337 C 
BRANCH  26  27
HETATM   27  N   UNL     1       0.837   7.593  -3.940  1.00  0.00    -0.059 N 
HETATM   28  H   UNL     1       1.766   7.201  -4.166  1.00  0.00     0.280 HD
HETATM   29  C   UNL     1      -0.102   6.387  -3.859  1.00  0.00     0.261 C 
HETATM   30  C   UNL     1      -0.220   5.744  -5.246  1.00  0.00     0.195 C 
HETATM   31  O   UNL     1      -0.670   6.697  -6.218  1.00  0.00    -0.388 OA
HETATM   32  C   UNL     1       0.250   7.785  -6.354  1.00  0.00     0.195 C 
HETATM   33  C   UNL     1       0.399   8.544  -5.033  1.00  0.00     0.261 C 
ENDBRANCH  26  27
ENDBRANCH  23  26
ENDBRANCH   2  22
BRANCH   8  34
HETATM   34  C   UNL     1       3.746   5.140   6.557  1.00  0.00    -0.047 C 
HETATM   35  C   UNL     1       4.240   3.760   7.042  1.00  0.00     0.015 C 
HETATM   36  C   UNL     1       4.810   6.179   6.974  1.00  0.00     0.015 C 
HETATM   37  C   UNL     1       2.437   5.467   7.302  1.00  0.00     0.015 C 
ENDBRANCH   8  34
TORSDOF 7
