REMARK  3 active torsions:
REMARK  status: ('A' for Active; 'I' for Inactive)
REMARK    1  A    between atoms: C_8  and  C_9 
REMARK    2  A    between atoms: C_14  and  C_15 
REMARK    3  A    between atoms: C_17  and  O_18 
ROOT
HETATM    1  C   UNL     1       2.652  -2.493   0.102  1.00  0.00     0.143 A 
HETATM    2  N   UNL     1       3.388  -3.478  -0.369  1.00  0.00    -0.223 NA
HETATM    3  C   UNL     1       2.618  -4.621  -0.295  1.00  0.00     0.149 A 
HETATM    4  C   UNL     1       1.383  -4.312   0.249  1.00  0.00     0.046 A 
HETATM    5  C   UNL     1       0.178  -5.163   0.440  1.00  0.00     0.070 C 
HETATM    6  C   UNL     1       0.434  -6.486   1.197  1.00  0.00     0.042 C 
HETATM    7  C   UNL     1       1.877  -7.029   1.143  1.00  0.00     0.132 C 
HETATM    8  N   UNL     1       2.466  -7.044  -0.184  1.00  0.00    -0.355 N 
HETATM    9  C   UNL     1       3.058  -5.937  -0.764  1.00  0.00     0.272 C 
HETATM   10  O   UNL     1       3.910  -6.104  -1.634  1.00  0.00    -0.266 OA
HETATM   11  N   UNL     1       1.427  -2.964   0.500  1.00  0.00    -0.341 N 
HETATM   12  H   UNL     1       0.676  -2.399   0.866  1.00  0.00     0.167 HD
HETATM   13  H   UNL     1       2.908  -7.899  -0.498  1.00  0.00     0.162 HD
ENDROOT
BRANCH   1  14
HETATM   14  C   UNL     1       3.109  -1.079   0.163  1.00  0.00     0.059 A 
HETATM   15  C   UNL     1       2.418   0.023   0.631  1.00  0.00     0.040 A 
HETATM   16  C   UNL     1       1.069   0.223   1.205  1.00  0.00     0.071 C 
HETATM   17  N   UNL     1       3.276   1.079   0.461  1.00  0.00    -0.281 N 
HETATM   18  H   UNL     1       3.119   2.055   0.686  1.00  0.00     0.189 HD
HETATM   19  N   UNL     1       4.459   0.746  -0.069  1.00  0.00    -0.179 NA
HETATM   20  C   UNL     1       4.367  -0.577  -0.264  1.00  0.00     0.067 A 
HETATM   21  C   UNL     1       5.502  -1.322  -0.866  1.00  0.00     0.073 C 
ENDBRANCH   1  14
BRANCH   6  22
HETATM   22  C   UNL     1      -0.037  -6.416   2.647  1.00  0.00    -0.049 A 
HETATM   23  C   UNL     1       0.495  -5.476   3.550  1.00  0.00     0.044 A 
HETATM   24  C   UNL     1       0.060  -5.436   4.877  1.00  0.00     0.068 A 
HETATM   25  C   UNL     1      -0.911  -6.342   5.307  1.00  0.00     0.037 A 
HETATM   26  C   UNL     1      -1.443  -7.283   4.426  1.00  0.00     0.003 A 
HETATM   27  C   UNL     1      -1.008  -7.320   3.103  1.00  0.00     0.007 A 
BRANCH  24  28
HETATM   28  O   UNL     1       0.496  -4.571   5.842  1.00  0.00    -0.356 OA
HETATM   29  C   UNL     1       1.532  -3.666   5.480  1.00  0.00     0.210 C 
ENDBRANCH  24  28
ENDBRANCH   6  22
TORSDOF 3
