REMARK  6 active torsions:
REMARK  status: ('A' for Active; 'I' for Inactive)
REMARK    1  A    between atoms: C_2  and  N_3 
REMARK    2  A    between atoms: C_2  and  C_16 
REMARK    3  A    between atoms: N_3  and  C_5 
REMARK    4  A    between atoms: C_5  and  C_6 
REMARK       I    between atoms: C_16  and  N_17 
REMARK    5  A    between atoms: N_17  and  C_18 
REMARK    6  A    between atoms: C_19  and  C_20 
ROOT
HETATM    1  C   UNL     1       3.077  -1.430   0.196  1.00  0.00     0.253 C 
HETATM    2  N   UNL     1       3.095  -2.123  -0.995  1.00  0.00    -0.325 N 
HETATM    3  O   UNL     1       3.159  -1.905   1.327  1.00  0.00    -0.271 OA
HETATM    4  H   UNL     1       2.828  -1.630  -1.842  1.00  0.00     0.169 HD
ENDROOT
BRANCH   1   5
HETATM    5  C   UNL     1       2.939   0.101   0.035  1.00  0.00     0.275 C 
HETATM    6  C   UNL     1       1.485   0.420  -0.317  1.00  0.00     0.050 C 
BRANCH   5   7
HETATM    7  N   UNL     1       3.354   0.845   1.333  1.00  0.00    -0.059 N 
HETATM    8  H   UNL     1       2.783   0.401   2.068  1.00  0.00     0.280 HD
HETATM    9  C   UNL     1       3.045   2.311   1.335  1.00  0.00     0.271 C 
BRANCH   7  10
HETATM   10  C   UNL     1       4.783   0.555   1.789  1.00  0.00     0.274 C 
BRANCH  10  11
HETATM   11  C   UNL     1       5.856   0.746   0.751  1.00  0.00    -0.030 A 
HETATM   12  C   UNL     1       6.339   2.029   0.444  1.00  0.00     0.048 A 
HETATM   13  C   UNL     1       7.324   2.143  -0.515  1.00  0.00     0.105 A 
HETATM   14  C   UNL     1       7.836   1.049  -1.166  1.00  0.00     0.105 A 
HETATM   15  O   UNL     1       7.897   3.306  -0.923  1.00  0.00    -0.323 OA
HETATM   16  O   UNL     1       8.797   1.384  -2.066  1.00  0.00    -0.323 OA
HETATM   17  C   UNL     1       7.396  -0.226  -0.892  1.00  0.00     0.040 A 
HETATM   18  C   UNL     1       8.864   2.814  -1.880  1.00  0.00     0.352 A 
HETATM   19  C   UNL     1       6.400  -0.377   0.078  1.00  0.00     0.012 A 
ENDBRANCH  10  11
ENDBRANCH   7  10
ENDBRANCH   5   7
ENDBRANCH   1   5
BRANCH   2  20
HETATM   20  C   UNL     1       3.358  -3.505  -1.188  1.00  0.00     0.045 A 
HETATM   21  C   UNL     1       3.119  -4.063  -2.470  1.00  0.00     0.001 A 
HETATM   22  C   UNL     1       3.411  -5.421  -2.691  1.00  0.00     0.014 A 
HETATM   23  C   UNL     1       3.928  -6.217  -1.671  1.00  0.00     0.001 A 
HETATM   24  C   UNL     1       4.155  -5.667  -0.415  1.00  0.00     0.002 A 
HETATM   25  C   UNL     1       3.872  -4.320  -0.173  1.00  0.00     0.030 A 
BRANCH  21  26
HETATM   26  C   UNL     1       2.533  -3.282  -3.570  1.00  0.00    -0.024 A 
HETATM   27  C   UNL     1       3.341  -2.517  -4.425  1.00  0.00     0.012 A 
HETATM   28  C   UNL     1       2.770  -1.754  -5.445  1.00  0.00     0.001 A 
HETATM   29  C   UNL     1       1.388  -1.750  -5.627  1.00  0.00     0.000 A 
HETATM   30  C   UNL     1       0.574  -2.512  -4.791  1.00  0.00     0.001 A 
HETATM   31  C   UNL     1       1.143  -3.273  -3.768  1.00  0.00     0.012 A 
ENDBRANCH  21  26
ENDBRANCH   2  20
TORSDOF 6
