REMARK  3 active torsions:
REMARK  status: ('A' for Active; 'I' for Inactive)
REMARK    1  A    between atoms: C_6  and  C_7 
REMARK       I    between atoms: C_7  and  N_8 
REMARK    2  A    between atoms: N_8  and  C_9 
REMARK    3  A    between atoms: N_12  and  C_13 
ROOT
HETATM    1  C   UNL     1       7.488   2.603  -0.181  1.00  0.00     0.177 C 
HETATM    2  C   UNL     1       7.578   3.327   1.185  1.00  0.00     0.248 C 
HETATM    3  O   UNL     1       7.751   2.637   2.197  1.00  0.00    -0.271 OA
HETATM    4  N   UNL     1       7.509   4.730   1.141  1.00  0.00    -0.299 N 
HETATM    5  C   UNL     1       6.742   5.395   0.085  1.00  0.00     0.134 C 
HETATM    6  C   UNL     1       6.797   4.705  -1.266  1.00  0.00     0.023 C 
HETATM    7  C   UNL     1       6.453   3.240  -1.098  1.00  0.00     0.036 C 
ENDROOT
BRANCH   1   8
HETATM    8  N   UNL     1       7.199   1.195   0.085  1.00  0.00    -0.344 N 
HETATM    9  C   UNL     1       7.209   0.225  -0.887  1.00  0.00     0.253 C 
HETATM   10  O   UNL     1       7.354   0.455  -2.081  1.00  0.00    -0.268 OA
HETATM   11  H   UNL     1       7.308   0.910   1.057  1.00  0.00     0.163 HD
BRANCH   9  12
HETATM   12  C   UNL     1       7.066  -1.174  -0.390  1.00  0.00     0.043 A 
HETATM   13  C   UNL     1       5.972  -1.543   0.425  1.00  0.00    -0.045 A 
HETATM   14  C   UNL     1       5.886  -2.868   0.888  1.00  0.00     0.014 A 
HETATM   15  C   UNL     1       4.890  -0.578   0.829  1.00  0.00     0.049 C 
HETATM   16  C   UNL     1       6.840  -3.825   0.531  1.00  0.00    -0.061 A 
HETATM   17  C   UNL     1       6.708  -5.248   0.989  1.00  0.00     0.048 C 
HETATM   18  C   UNL     1       7.893  -3.455  -0.313  1.00  0.00     0.014 A 
HETATM   19  C   UNL     1       8.029  -2.134  -0.770  1.00  0.00    -0.045 A 
HETATM   20  C   UNL     1       9.184  -1.797  -1.675  1.00  0.00     0.049 C 
ENDBRANCH   9  12
ENDBRANCH   1   8
BRANCH   4  21
HETATM   21  C   UNL     1       7.892   5.464   2.279  1.00  0.00     0.154 A 
HETATM   22  N   UNL     1       8.703   4.999   3.235  1.00  0.00    -0.155 NA
HETATM   23  N   UNL     1       8.799   5.989   4.131  1.00  0.00    -0.283 N 
HETATM   24  C   UNL     1       9.578   5.791   5.329  1.00  0.00     0.179 C 
HETATM   25  C   UNL     1       8.133   7.116   3.768  1.00  0.00     0.115 A 
HETATM   26  C   UNL     1       7.538   6.815   2.566  1.00  0.00     0.071 A 
ENDBRANCH   4  21
TORSDOF 3
