REMARK  5 active torsions:
REMARK  status: ('A' for Active; 'I' for Inactive)
REMARK    1  A    between atoms: C_2  and  C_3 
REMARK    2  A    between atoms: N_4  and  C_6 
REMARK    3  A    between atoms: C_6  and  C_7 
REMARK    4  A    between atoms: N_14  and  C_16 
REMARK    5  A    between atoms: C_16  and  C_17 
ROOT
HETATM    1  C   UNL     1       4.142   3.296   0.172  1.00  0.00    -0.032 A 
HETATM    2  C   UNL     1       2.864   3.239  -0.427  1.00  0.00     0.020 A 
HETATM    3  C   UNL     1       2.129   4.411  -0.708  1.00  0.00     0.002 A 
HETATM    4  C   UNL     1       2.692   5.642  -0.365  1.00  0.00     0.076 A 
HETATM    5  O   UNL     1       2.008   6.808  -0.557  1.00  0.00    -0.349 OA
HETATM    6  C   UNL     1       1.925   7.155  -1.945  1.00  0.00     0.203 C 
HETATM    7  C   UNL     1       0.658   6.578  -2.576  1.00  0.00     0.262 C 
HETATM    8  N   UNL     1       0.687   5.058  -2.706  1.00  0.00    -0.061 N 
HETATM    9  H   UNL     1      -0.243   4.821  -3.075  1.00  0.00     0.280 HD
HETATM   10  C   UNL     1       0.771   4.360  -1.361  1.00  0.00     0.276 C 
HETATM   11  C   UNL     1       3.945   5.720   0.232  1.00  0.00     0.038 A 
HETATM   12  C   UNL     1       4.677   4.557   0.473  1.00  0.00     0.011 A 
ENDROOT
BRANCH   1  13
HETATM   13  C   UNL     1       4.941   2.035   0.435  1.00  0.00     0.274 C 
BRANCH  13  14
HETATM   14  N   UNL     1       5.107   1.592   1.873  1.00  0.00    -0.053 N 
HETATM   15  C   UNL     1       3.801   1.390   2.678  1.00  0.00     0.279 C 
HETATM   16  C   UNL     1       4.028   1.061   4.179  1.00  0.00     0.248 C 
HETATM   17  N   UNL     1       5.229   1.410   4.737  1.00  0.00    -0.358 N 
HETATM   18  O   UNL     1       3.151   0.575   4.885  1.00  0.00    -0.271 OA
HETATM   19  C   UNL     1       6.417   1.742   3.982  1.00  0.00     0.150 C 
HETATM   20  H   UNL     1       5.323   1.143   5.717  1.00  0.00     0.162 HD
HETATM   21  C   UNL     1       6.089   2.449   2.665  1.00  0.00     0.256 C 
HETATM   22  H   UNL     1       5.547   0.664   1.831  1.00  0.00     0.281 HD
BRANCH  15  23
HETATM   23  C   UNL     1       2.908   0.313   2.034  1.00  0.00     0.038 C 
HETATM   24  C   UNL     1       3.556  -1.062   1.906  1.00  0.00     0.007 C 
ENDBRANCH  15  23
ENDBRANCH  13  14
ENDBRANCH   1  13
BRANCH   8  25
HETATM   25  C   UNL     1       1.671   4.505  -3.712  1.00  0.00     0.274 C 
BRANCH  25  26
HETATM   26  C   UNL     1       1.501   5.028  -5.112  1.00  0.00    -0.029 A 
HETATM   27  C   UNL     1       0.393   4.655  -5.889  1.00  0.00     0.054 A 
HETATM   28  C   UNL     1       0.256   5.140  -7.190  1.00  0.00     0.155 A 
HETATM   29  F   UNL     1      -0.810   4.769  -7.909  1.00  0.00    -0.203 F 
HETATM   30  C   UNL     1       1.209   5.992  -7.731  1.00  0.00     0.154 A 
HETATM   31  F   UNL     1       1.076   6.453  -8.980  1.00  0.00    -0.203 F 
HETATM   32  C   UNL     1       2.314   6.370  -6.977  1.00  0.00     0.046 A 
HETATM   33  C   UNL     1       2.462   5.891  -5.672  1.00  0.00     0.012 A 
ENDBRANCH  25  26
ENDBRANCH   8  25
TORSDOF 5
