REMARK  4 active torsions:
REMARK  status: ('A' for Active; 'I' for Inactive)
REMARK    1  A    between atoms: C_4  and  O_5 
REMARK    2  A    between atoms: C_6  and  C_7 
REMARK    3  A    between atoms: C_11  and  C_12 
REMARK       I    between atoms: C_12  and  N_13 
REMARK    4  A    between atoms: C_19  and  O_20 
ROOT
HETATM    1  C   UNL     1       6.492  -0.118  -0.763  1.00  0.00     0.065 A 
HETATM    2  N   UNL     1       7.248   0.940  -1.191  1.00  0.00    -0.277 N 
HETATM    3  H   UNL     1       6.895   1.864  -1.428  1.00  0.00     0.189 HD
HETATM    4  N   UNL     1       8.573   0.712  -1.216  1.00  0.00    -0.169 NA
HETATM    5  C   UNL     1       8.689  -0.592  -0.885  1.00  0.00     0.148 A 
HETATM    6  C   UNL     1       7.408  -1.137  -0.585  1.00  0.00     0.071 A 
ENDROOT
BRANCH   5   7
HETATM    7  C   UNL     1       9.982  -1.311  -0.750  1.00  0.00     0.299 C 
HETATM    8  N   UNL     1      11.095  -0.710  -1.280  1.00  0.00    -0.189 NA
HETATM    9  C   UNL     1      11.490   0.413  -0.797  1.00  0.00     0.154 C 
HETATM   10  S   UNL     1      13.045   1.066  -1.415  1.00  0.00    -0.056 SA
HETATM   11  N   UNL     1      10.936   1.278   0.128  1.00  0.00    -0.236 NA
HETATM   12  C   UNL     1      12.801   2.576  -0.511  1.00  0.00     0.032 A 
HETATM   13  C   UNL     1      11.599   2.517   0.201  1.00  0.00     0.032 A 
HETATM   14  C   UNL     1      13.602   3.704  -0.488  1.00  0.00     0.057 A 
HETATM   15  C   UNL     1      11.196   3.592   0.977  1.00  0.00     0.028 A 
HETATM   16  C   UNL     1      11.995   4.743   1.004  1.00  0.00     0.038 A 
HETATM   17  C   UNL     1      13.194   4.803   0.275  1.00  0.00     0.069 A 
HETATM   18  H   UNL     1       9.920   1.342   0.095  1.00  0.00     0.136 HD
HETATM   19  O   UNL     1      10.024  -2.421  -0.228  1.00  0.00    -0.263 OA
BRANCH  17  20
HETATM   20  O   UNL     1      14.049   5.871   0.233  1.00  0.00    -0.356 OA
HETATM   21  C   UNL     1      13.663   7.037   0.950  1.00  0.00     0.210 C 
ENDBRANCH  17  20
ENDBRANCH   5   7
BRANCH   1  22
HETATM   22  C   UNL     1       5.039  -0.037  -0.565  1.00  0.00     0.025 A 
HETATM   23  C   UNL     1       4.333   1.180  -0.623  1.00  0.00     0.078 A 
HETATM   24  C   UNL     1       2.953   1.234  -0.395  1.00  0.00     0.044 A 
HETATM   25  C   UNL     1       2.243   0.067  -0.094  1.00  0.00    -0.059 A 
HETATM   26  C   UNL     1       0.761   0.107   0.135  1.00  0.00     0.048 C 
HETATM   27  C   UNL     1       2.928  -1.151  -0.058  1.00  0.00     0.008 A 
HETATM   28  C   UNL     1       4.307  -1.200  -0.286  1.00  0.00     0.017 A 
BRANCH  23  29
HETATM   29  O   UNL     1       5.001   2.349  -0.905  1.00  0.00    -0.360 OA
HETATM   30  H   UNL     1       4.361   3.081  -0.864  1.00  0.00     0.217 HD
ENDBRANCH  23  29
ENDBRANCH   1  22
TORSDOF 4
