REMARK  7 active torsions:
REMARK  status: ('A' for Active; 'I' for Inactive)
REMARK    1  A    between atoms: C_2  and  C_3 
REMARK    2  A    between atoms: C_3  and  C_4 
REMARK       I    between atoms: C_4  and  N_5 
REMARK    3  A    between atoms: N_8  and  C_9 
REMARK    4  A    between atoms: C_12  and  N_13 
REMARK    5  A    between atoms: N_13  and  C_14 
REMARK    6  A    between atoms: C_14  and  N_15 
REMARK       I    between atoms: N_15  and  C_16 
REMARK    7  A    between atoms: C_16  and  C_17 
ROOT
HETATM    1  N   UNL     1      10.445  -6.324  -1.692  1.00  0.00    -0.333 N 
HETATM    2  H   UNL     1      10.062  -7.269  -1.645  1.00  0.00     0.168 HD
ENDROOT
BRANCH   1   3
HETATM    3  C   UNL     1       9.490  -5.284  -1.760  1.00  0.00     0.034 C 
HETATM    4  C   UNL     1       9.800  -3.986  -2.148  1.00  0.00     0.032 C 
HETATM    5  C   UNL     1       8.868  -2.955  -1.996  1.00  0.00     0.031 C 
HETATM    6  C   UNL     1       7.594  -3.187  -1.466  1.00  0.00     0.030 C 
HETATM    7  C   UNL     1       7.243  -4.525  -1.236  1.00  0.00     0.031 C 
HETATM    8  C   UNL     1       8.174  -5.566  -1.393  1.00  0.00     0.032 C 
BRANCH   6   9
HETATM    9  N   UNL     1       6.752  -2.153  -1.063  1.00  0.00    -0.378 N 
HETATM   10  C   UNL     1       5.386  -2.100  -1.617  1.00  0.00     0.143 C 
HETATM   11  C   UNL     1       4.473  -1.239  -0.713  1.00  0.00     0.145 C 
HETATM   12  N   UNL     1       5.058   0.052  -0.314  1.00  0.00    -0.349 N 
HETATM   13  C   UNL     1       4.184   1.037   0.150  1.00  0.00     0.219 C 
HETATM   14  C   UNL     1       6.465  -0.002   0.100  1.00  0.00     0.145 C 
HETATM   15  O   UNL     1       2.964   0.936   0.034  1.00  0.00    -0.273 OA
HETATM   16  C   UNL     1       7.341  -0.820  -0.855  1.00  0.00     0.143 C 
BRANCH  13  17
HETATM   17  C   UNL     1       4.829   2.260   0.795  1.00  0.00     0.103 C 
BRANCH  17  18
HETATM   18  C   UNL     1       3.813   3.285   1.293  1.00  0.00     0.005 C 
HETATM   19  C   UNL     1       4.508   4.471   1.945  1.00  0.00     0.005 C 
ENDBRANCH  17  18
ENDBRANCH  13  17
ENDBRANCH   6   9
ENDBRANCH   1   3
BRANCH   1  20
HETATM   20  C   UNL     1      11.782  -6.241  -1.365  1.00  0.00     0.179 C 
HETATM   21  S   UNL     1      12.699  -4.905  -0.932  1.00  0.00    -0.040 SA
BRANCH  20  22
HETATM   22  N   UNL     1      12.472  -7.436  -1.332  1.00  0.00    -0.299 N 
HETATM   23  C   UNL     1      12.047  -8.746  -1.517  1.00  0.00     0.266 C 
HETATM   24  O   UNL     1      10.884  -9.002  -1.829  1.00  0.00    -0.267 OA
HETATM   25  H   UNL     1      13.437  -7.302  -1.061  1.00  0.00     0.171 HD
BRANCH  23  26
HETATM   26  C   UNL     1      13.088  -9.750  -1.328  1.00  0.00     0.096 A 
HETATM   27  S   UNL     1      12.921 -11.256  -2.125  1.00  0.00    -0.082 SA
HETATM   28  C   UNL     1      14.425 -11.845  -1.537  1.00  0.00     0.017 A 
HETATM   29  C   UNL     1      15.046 -10.915  -0.702  1.00  0.00     0.004 A 
HETATM   30  C   UNL     1      15.012 -13.095  -1.816  1.00  0.00     0.020 A 
HETATM   31  C   UNL     1      14.254  -9.718  -0.584  1.00  0.00     0.068 A 
HETATM   32  C   UNL     1      16.297 -11.270  -0.129  1.00  0.00     0.014 A 
HETATM   33 CL   UNL     1      14.772  -8.412   0.415  1.00  0.00    -0.082 Cl
HETATM   34  C   UNL     1      16.883 -12.508  -0.404  1.00  0.00     0.001 A 
HETATM   35  C   UNL     1      16.246 -13.410  -1.242  1.00  0.00     0.001 A 
ENDBRANCH  23  26
ENDBRANCH  20  22
ENDBRANCH   1  20
TORSDOF 7
