REMARK  9 active torsions:
REMARK  status: ('A' for Active; 'I' for Inactive)
REMARK    1  A    between atoms: C_5  and  C_6 
REMARK    2  A    between atoms: C_8  and  C_9 
REMARK    3  A    between atoms: C_9  and  C_10 
REMARK       I    between atoms: C_10  and  N_11 
REMARK    4  A    between atoms: N_11  and  C_12 
REMARK    5  A    between atoms: C_12  and  C_13 
REMARK    6  A    between atoms: C_13  and  N_14 
REMARK    7  A    between atoms: C_28  and  C_29 
REMARK    8  A    between atoms: C_29  and  O_30 
REMARK    9  A    between atoms: O_30  and  C_31 
ROOT
HETATM    1  C   UNL     1       6.149  -5.062  -0.690  1.00  0.00     0.166 C 
HETATM    2  N   UNL     1       7.130  -4.247   0.196  1.00  0.00    -0.319 N 
HETATM    3  C   UNL     1       8.404  -3.844   0.172  1.00  0.00     0.011 C 
HETATM    4  C   UNL     1       6.379  -3.003   0.522  1.00  0.00     0.170 C 
HETATM    5  S   UNL     1       7.121  -2.052   1.745  1.00  0.00    -0.086 SA
HETATM    6  C   UNL     1       8.618  -2.411   0.778  1.00  0.00     0.135 C 
HETATM    7  N   UNL     1       5.698  -2.494  -0.436  1.00  0.00    -0.229 NA
HETATM    8  C   UNL     1       5.723  -3.134  -1.738  1.00  0.00     0.048 C 
HETATM    9  C   UNL     1       4.927  -2.088  -2.524  1.00  0.00     0.071 C 
HETATM   10  C   UNL     1       6.328  -4.356  -2.136  1.00  0.00     0.069 C 
ENDROOT
BRANCH   3  11
HETATM   11  C   UNL     1       9.570  -4.339  -0.684  1.00  0.00     0.156 C 
BRANCH  11  12
HETATM   12  C   UNL     1      10.228  -5.662  -0.317  1.00  0.00     0.223 C 
HETATM   13  N   UNL     1      11.397  -5.947  -0.995  1.00  0.00    -0.359 N 
HETATM   14  H   UNL     1      11.696  -5.285  -1.710  1.00  0.00     0.162 HD
HETATM   15  O   UNL     1       9.747  -6.412   0.528  1.00  0.00    -0.273 OA
BRANCH  13  16
HETATM   16  C   UNL     1      12.121  -7.231  -1.061  1.00  0.00     0.150 C 
BRANCH  16  17
HETATM   17  C   UNL     1      12.121  -8.237   0.125  1.00  0.00     0.254 C 
BRANCH  17  18
HETATM   18  N   UNL     1      10.757  -8.817   0.482  1.00  0.00    -0.070 N 
HETATM   19  H   UNL     1      10.180  -7.991   0.744  1.00  0.00     0.279 HD
HETATM   20  C   UNL     1      10.099  -9.478  -0.689  1.00  0.00     0.235 C 
HETATM   21  C   UNL     1       8.742 -10.053  -0.329  1.00  0.00     0.028 C 
HETATM   22  C   UNL     1       8.813 -10.992   0.858  1.00  0.00     0.003 C 
HETATM   23  C   UNL     1       9.443 -10.270   2.038  1.00  0.00     0.028 C 
HETATM   24  C   UNL     1      10.830  -9.737   1.686  1.00  0.00     0.235 C 
ENDBRANCH  17  18
ENDBRANCH  16  17
ENDBRANCH  13  16
ENDBRANCH  11  12
ENDBRANCH   3  11
BRANCH   1  25
HETATM   25  C   UNL     1       4.440  -5.335  -0.627  1.00  0.00    -0.030 C 
HETATM   26  C   UNL     1       3.450  -4.319  -0.719  1.00  0.00     0.010 C 
HETATM   27  C   UNL     1       2.532  -4.250  -1.822  1.00  0.00     0.007 C 
HETATM   28  C   UNL     1       2.560  -5.191  -2.852  1.00  0.00    -0.062 C 
HETATM   29  C   UNL     1       1.781  -5.042  -4.138  1.00  0.00     0.048 C 
HETATM   30  C   UNL     1       3.304  -6.337  -2.598  1.00  0.00     0.007 C 
HETATM   31  C   UNL     1       4.093  -6.456  -1.425  1.00  0.00     0.010 C 
ENDBRANCH   1  25
BRANCH  10  32
HETATM   32  C   UNL     1       7.040  -5.771  -2.563  1.00  0.00     0.294 C 
HETATM   33  O   UNL     1       8.069  -6.135  -1.937  1.00  0.00    -0.259 OA
BRANCH  32  34
HETATM   34  O   UNL     1       6.540  -6.579  -3.514  1.00  0.00    -0.313 OA
BRANCH  34  35
HETATM   35  C   UNL     1       7.151  -7.914  -3.923  1.00  0.00     0.124 C 
HETATM   36  C   UNL     1       8.683  -8.062  -4.073  1.00  0.00     0.040 C 
HETATM   37  C   UNL     1       6.663  -9.152  -3.139  1.00  0.00     0.040 C 
ENDBRANCH  34  35
ENDBRANCH  32  34
ENDBRANCH  10  32
TORSDOF 9
