REMARK  2 active torsions:
REMARK  status: ('A' for Active; 'I' for Inactive)
REMARK    1  A    between atoms: O_2  and  C_3 
REMARK    2  A    between atoms: C_9  and  N_10 
REMARK       I    between atoms: N_10  and  C_11 
REMARK       I    between atoms: C_11  and  N_12 
ROOT
HETATM    1  N   UNL     1       0.911  -2.079  -1.893  1.00  0.00    -0.306 N 
HETATM    2  C   UNL     1       0.489  -0.908  -1.316  1.00  0.00     0.323 C 
HETATM    3  N   UNL     1       1.386   0.150  -1.413  1.00  0.00    -0.328 N 
HETATM    4  C   UNL     1       0.914   1.455  -0.929  1.00  0.00     0.185 C 
HETATM    5  C   UNL     1       1.622   2.523  -1.689  1.00  0.00     0.035 A 
HETATM    6  C   UNL     1       2.711   2.367  -2.524  1.00  0.00    -0.020 A 
HETATM    7  C   UNL     1       3.307   1.024  -2.766  1.00  0.00     0.061 C 
HETATM    8  C   UNL     1       2.843   0.046  -1.667  1.00  0.00     0.132 C 
HETATM    9  N   UNL     1       1.285   3.847  -1.674  1.00  0.00    -0.357 N 
HETATM   10  H   UNL     1       0.520   4.256  -1.155  1.00  0.00     0.166 HD
HETATM   11  C   UNL     1       2.134   4.555  -2.500  1.00  0.00     0.043 A 
HETATM   12  C   UNL     1       3.040   3.644  -3.050  1.00  0.00    -0.001 A 
HETATM   13  C   UNL     1       2.160   5.921  -2.803  1.00  0.00     0.030 A 
HETATM   14  C   UNL     1       3.137   6.368  -3.697  1.00  0.00     0.002 A 
HETATM   15  C   UNL     1       4.052   5.483  -4.263  1.00  0.00     0.001 A 
HETATM   16  C   UNL     1       4.015   4.119  -3.948  1.00  0.00     0.014 A 
HETATM   17  O   UNL     1      -0.598  -0.763  -0.760  1.00  0.00    -0.247 OA
HETATM   18  H   UNL     1       1.706  -2.027  -2.512  1.00  0.00     0.171 HD
ENDROOT
BRANCH   1  19
HETATM   19  C   UNL     1       0.233  -3.319  -1.967  1.00  0.00     0.071 A 
HETATM   20  C   UNL     1       0.863  -4.354  -2.684  1.00  0.00     0.116 A 
HETATM   21  C   UNL     1       0.214  -5.579  -2.886  1.00  0.00     0.069 A 
HETATM   22 CL   UNL     1       0.925  -6.838  -3.830  1.00  0.00    -0.081 Cl
HETATM   23  C   UNL     1      -1.041  -5.802  -2.322  1.00  0.00     0.027 A 
HETATM   24  C   UNL     1      -1.648  -4.800  -1.566  1.00  0.00     0.004 A 
HETATM   25  C   UNL     1      -1.015  -3.565  -1.389  1.00  0.00     0.032 A 
BRANCH  20  26
HETATM   26  O   UNL     1       2.108  -4.117  -3.228  1.00  0.00    -0.352 OA
HETATM   27  C   UNL     1       3.126  -4.568  -2.329  1.00  0.00     0.210 C 
ENDBRANCH  20  26
ENDBRANCH   1  19
TORSDOF 2
