REMARK  4 active torsions:
REMARK  status: ('A' for Active; 'I' for Inactive)
REMARK    1  A    between atoms: C_3  and  C_4 
REMARK    2  A    between atoms: C_4  and  N_5 
REMARK    3  A    between atoms: N_8  and  C_10 
REMARK    4  A    between atoms: C_10  and  C_11 
ROOT
HETATM    1  N   UNL     1       0.999   3.549   0.052  1.00  0.00    -0.405 N 
HETATM    2  C   UNL     1       0.348   2.567  -0.819  1.00  0.00     0.150 C 
HETATM    3  C   UNL     1       0.076   1.124  -0.322  1.00  0.00     0.206 C 
HETATM    4  N   UNL     1      -1.013   1.032   0.749  1.00  0.00    -0.061 N 
HETATM    5  H   UNL     1      -1.199   0.023   0.812  1.00  0.00     0.280 HD
HETATM    6  C   UNL     1      -0.579   1.438   2.130  1.00  0.00     0.242 C 
HETATM    7  C   UNL     1       0.820   2.032   2.143  1.00  0.00     0.029 C 
HETATM    8  C   UNL     1       0.830   3.429   1.495  1.00  0.00     0.123 C 
HETATM    9  C   UNL     1       1.339   0.447   0.220  1.00  0.00     0.035 C 
HETATM   10  C   UNL     1       1.823   1.045   1.542  1.00  0.00     0.010 C 
ENDROOT
BRANCH   4  11
HETATM   11  C   UNL     1      -2.364   1.609   0.376  1.00  0.00     0.274 C 
BRANCH  11  12
HETATM   12  C   UNL     1      -3.076   0.826  -0.691  1.00  0.00    -0.032 A 
HETATM   13  C   UNL     1      -3.698  -0.394  -0.354  1.00  0.00     0.022 A 
HETATM   14  C   UNL     1      -4.391  -1.123  -1.339  1.00  0.00    -0.008 A 
HETATM   15  C   UNL     1      -4.436  -0.621  -2.637  1.00  0.00     0.042 A 
HETATM   16  C   UNL     1      -5.129  -2.337  -1.329  1.00  0.00     0.030 A 
HETATM   17  N   UNL     1      -5.181  -1.505  -3.387  1.00  0.00    -0.365 N 
HETATM   18  C   UNL     1      -3.817   0.578  -3.005  1.00  0.00     0.031 A 
HETATM   19  H   UNL     1      -5.396  -1.393  -4.370  1.00  0.00     0.165 HD
HETATM   20  C   UNL     1      -5.605  -2.546  -2.603  1.00  0.00     0.089 A 
HETATM   21  C   UNL     1      -3.140   1.293  -2.010  1.00  0.00     0.011 A 
ENDBRANCH  11  12
ENDBRANCH   4  11
BRANCH   1  22
HETATM   22  C   UNL     1       2.394   3.867  -0.332  1.00  0.00     0.176 C 
BRANCH  22  23
HETATM   23  C   UNL     1       2.563   4.429  -1.732  1.00  0.00     0.051 A 
HETATM   24  C   UNL     1       1.964   5.634  -2.094  1.00  0.00     0.029 A 
HETATM   25  C   UNL     1       2.177   6.129  -3.378  1.00  0.00     0.003 A 
HETATM   26  C   UNL     1       2.984   5.418  -4.257  1.00  0.00     0.019 A 
HETATM   27  C   UNL     1       3.535   4.225  -3.822  1.00  0.00     0.117 A 
HETATM   28  N   UNL     1       3.331   3.708  -2.589  1.00  0.00    -0.264 NA
ENDBRANCH  22  23
ENDBRANCH   1  22
TORSDOF 4
