REMARK  9 active torsions:
REMARK  status: ('A' for Active; 'I' for Inactive)
REMARK       I    between atoms: N_2  and  C_3 
REMARK    1  A    between atoms: C_3  and  C_4 
REMARK    2  A    between atoms: C_4  and  S_5 
REMARK    3  A    between atoms: S_5  and  C_6 
REMARK    4  A    between atoms: N_7  and  C_8 
REMARK    5  A    between atoms: C_8  and  C_9 
REMARK    6  A    between atoms: C_11  and  C_12 
REMARK    7  A    between atoms: C_12  and  O_13 
REMARK    8  A    between atoms: O_13  and  C_14 
REMARK    9  A    between atoms: C_15  and  C_16 
ROOT
HETATM    1  C   UNL     1      -0.204  -2.680  -3.826  1.00  0.00     0.192 A 
HETATM    2  N   UNL     1      -0.300  -4.042  -3.913  1.00  0.00    -0.306 N 
HETATM    3  C   UNL     1      -0.819  -4.287  -5.169  1.00  0.00     0.155 A 
HETATM    4  N   UNL     1      -0.957  -3.136  -5.802  1.00  0.00    -0.132 NA
HETATM    5  N   UNL     1      -0.578  -2.129  -4.954  1.00  0.00    -0.123 NA
ENDROOT
BRANCH   3   6
HETATM    6  C   UNL     1      -1.179  -5.626  -5.716  1.00  0.00     0.256 C 
BRANCH   6   7
HETATM    7  O   UNL     1      -2.453  -5.958  -5.157  1.00  0.00    -0.343 OA
BRANCH   7   8
HETATM    8  C   UNL     1      -2.874  -7.197  -5.571  1.00  0.00     0.080 A 
HETATM    9  C   UNL     1      -3.911  -7.331  -6.516  1.00  0.00     0.007 A 
HETATM   10  C   UNL     1      -4.324  -8.645  -6.827  1.00  0.00     0.015 A 
HETATM   11  C   UNL     1      -3.737  -9.764  -6.228  1.00  0.00     0.001 A 
HETATM   12  C   UNL     1      -2.728  -9.599  -5.286  1.00  0.00     0.003 A 
HETATM   13  C   UNL     1      -2.305  -8.317  -4.948  1.00  0.00     0.037 A 
BRANCH   9  14
HETATM   14  C   UNL     1      -4.580  -6.186  -7.179  1.00  0.00    -0.023 A 
HETATM   15  C   UNL     1      -4.839  -6.202  -8.564  1.00  0.00     0.012 A 
HETATM   16  C   UNL     1      -5.511  -5.151  -9.196  1.00  0.00     0.001 A 
HETATM   17  C   UNL     1      -5.932  -4.051  -8.456  1.00  0.00     0.000 A 
HETATM   18  C   UNL     1      -5.679  -4.004  -7.088  1.00  0.00     0.001 A 
HETATM   19  C   UNL     1      -5.016  -5.062  -6.457  1.00  0.00     0.012 A 
ENDBRANCH   9  14
ENDBRANCH   7   8
ENDBRANCH   6   7
ENDBRANCH   3   6
BRANCH   2  20
HETATM   20  C   UNL     1       0.180  -5.024  -2.956  1.00  0.00     0.159 C 
BRANCH  20  21
HETATM   21  C   UNL     1      -0.832  -5.571  -1.990  1.00  0.00    -0.017 C 
HETATM   22  C   UNL     1      -2.141  -5.296  -1.916  1.00  0.00     0.008 C 
ENDBRANCH  20  21
ENDBRANCH   2  20
BRANCH   1  23
HETATM   23  S   UNL     1       0.339  -1.792  -2.450  1.00  0.00    -0.081 SA
BRANCH  23  24
HETATM   24  C   UNL     1       2.037  -1.408  -2.946  1.00  0.00     0.185 C 
BRANCH  24  25
HETATM   25  C   UNL     1       2.231  -0.250  -3.913  1.00  0.00     0.226 C 
HETATM   26  N   UNL     1       1.158   0.171  -4.656  1.00  0.00    -0.365 N 
HETATM   27  C   UNL     1       1.308   1.130  -5.720  1.00  0.00     0.149 C 
HETATM   28  H   UNL     1       0.334  -0.426  -4.691  1.00  0.00     0.161 HD
HETATM   29  O   UNL     1       3.352   0.248  -4.046  1.00  0.00    -0.273 OA
ENDBRANCH  24  25
ENDBRANCH  23  24
ENDBRANCH   1  23
TORSDOF 9
