REMARK  5 active torsions:
REMARK  status: ('A' for Active; 'I' for Inactive)
REMARK    1  A    between atoms: C_6  and  C_7 
REMARK    2  A    between atoms: C_7  and  C_8 
REMARK    3  A    between atoms: C_8  and  C_9 
REMARK    4  A    between atoms: C_9  and  N_10 
REMARK    5  A    between atoms: C_9  and  C_14 
ROOT
HETATM    1  C   UNL     1      -5.803  -1.676   0.479  1.00  0.00     0.253 C 
ENDROOT
BRANCH   1   2
HETATM    2  C   UNL     1      -4.308  -1.575   0.114  1.00  0.00     0.048 C 
BRANCH   2   3
HETATM    3  C   UNL     1      -3.709  -0.164   0.021  1.00  0.00     0.081 C 
BRANCH   3   4
HETATM    4  C   UNL     1      -4.175   0.708   1.132  1.00  0.00     0.105 A 
HETATM    5  N   UNL     1      -5.433   1.050   1.338  1.00  0.00    -0.233 NA
HETATM    6  C   UNL     1      -5.423   1.763   2.518  1.00  0.00     0.085 A 
HETATM    7  C   UNL     1      -4.131   1.864   3.022  1.00  0.00     0.062 A 
HETATM    8  C   UNL     1      -6.486   2.333   3.232  1.00  0.00     0.034 A 
HETATM    9  C   UNL     1      -3.824   2.510   4.220  1.00  0.00     0.032 A 
HETATM   10  N   UNL     1      -3.347   1.219   2.100  1.00  0.00    -0.343 N 
HETATM   11  C   UNL     1      -4.898   3.065   4.925  1.00  0.00     0.002 A 
HETATM   12  C   UNL     1      -6.206   2.982   4.442  1.00  0.00     0.002 A 
HETATM   13  H   UNL     1      -2.342   1.115   2.154  1.00  0.00     0.167 HD
ENDBRANCH   3   4
ENDBRANCH   2   3
ENDBRANCH   1   2
BRANCH   1  14
HETATM   14  N   UNL     1      -6.608  -0.717  -0.317  1.00  0.00    -0.068 N 
HETATM   15  H   UNL     1      -6.433  -0.828  -1.321  1.00  0.00     0.275 HD
HETATM   16  H   UNL     1      -7.608  -0.901  -0.177  1.00  0.00     0.275 HD
HETATM   17  H   UNL     1      -6.411   0.249   0.003  1.00  0.00     0.275 HD
ENDBRANCH   1  14
BRANCH   1  18
HETATM   18  C   UNL     1      -6.322  -3.054   0.232  1.00  0.00     0.136 A 
HETATM   19  N   UNL     1      -6.890  -3.456  -0.887  1.00  0.00    -0.231 NA
HETATM   20  C   UNL     1      -7.247  -4.767  -0.665  1.00  0.00     0.085 A 
HETATM   21  C   UNL     1      -6.916  -5.154   0.629  1.00  0.00     0.062 A 
HETATM   22  C   UNL     1      -7.867  -5.689  -1.519  1.00  0.00     0.034 A 
HETATM   23  N   UNL     1      -6.322  -4.049   1.180  1.00  0.00    -0.341 N 
HETATM   24  C   UNL     1      -7.183  -6.424   1.142  1.00  0.00     0.032 A 
HETATM   25  H   UNL     1      -5.967  -3.994   2.126  1.00  0.00     0.167 HD
HETATM   26  C   UNL     1      -7.807  -7.330   0.278  1.00  0.00     0.002 A 
HETATM   27  C   UNL     1      -8.141  -6.973  -1.031  1.00  0.00     0.002 A 
ENDBRANCH   1  18
TORSDOF 5
