REMARK  6 active torsions:
REMARK  status: ('A' for Active; 'I' for Inactive)
REMARK    1  A    between atoms: C_4  and  C_5 
REMARK    2  A    between atoms: C_5  and  N_6 
REMARK    3  A    between atoms: C_5  and  C_22 
REMARK    4  A    between atoms: N_6  and  C_9 
REMARK    5  A    between atoms: C_9  and  C_10 
REMARK    6  A    between atoms: C_13  and  C_14 
REMARK       I    between atoms: C_22  and  N_23 
ROOT
HETATM    1  N   UNL     1       3.407   1.071   0.727  1.00  0.00    -0.054 N 
HETATM    2  H   UNL     1       3.403   0.580   1.628  1.00  0.00     0.278 HD
HETATM    3  H   UNL     1       4.389   1.142   0.430  1.00  0.00     0.278 HD
ENDROOT
BRANCH   1   4
HETATM    4  C   UNL     1       2.712   0.240  -0.327  1.00  0.00     0.310 C 
BRANCH   4   5
HETATM    5  C   UNL     1       3.090  -1.218  -0.168  1.00  0.00    -0.019 A 
HETATM    6  C   UNL     1       2.150  -2.140   0.321  1.00  0.00     0.010 A 
HETATM    7  C   UNL     1       2.496  -3.484   0.480  1.00  0.00     0.001 A 
HETATM    8  C   UNL     1       3.781  -3.919   0.163  1.00  0.00     0.000 A 
HETATM    9  C   UNL     1       4.725  -3.014  -0.313  1.00  0.00     0.001 A 
HETATM   10  C   UNL     1       4.386  -1.670  -0.476  1.00  0.00     0.010 A 
ENDBRANCH   4   5
BRANCH   4  11
HETATM   11  C   UNL     1       3.064   0.766  -1.740  1.00  0.00     0.251 C 
HETATM   12  N   UNL     1       2.272   0.381  -2.779  1.00  0.00    -0.368 N 
HETATM   13  H   UNL     1       1.689  -0.449  -2.753  1.00  0.00     0.159 HD
HETATM   14  H   UNL     1       2.555   0.683  -3.708  1.00  0.00     0.159 HD
HETATM   15  O   UNL     1       4.005   1.542  -1.902  1.00  0.00    -0.271 OA
ENDBRANCH   4  11
ENDBRANCH   1   4
BRANCH   1  16
HETATM   16  C   UNL     1       2.884   2.455   0.892  1.00  0.00     0.272 C 
BRANCH  16  17
HETATM   17  C   UNL     1       3.607   3.211   1.973  1.00  0.00    -0.033 A 
HETATM   18  C   UNL     1       4.994   3.404   1.920  1.00  0.00     0.010 A 
HETATM   19  C   UNL     1       5.651   4.138   2.915  1.00  0.00     0.013 A 
HETATM   20  C   UNL     1       4.947   4.724   3.980  1.00  0.00    -0.025 A 
HETATM   21  C   UNL     1       3.557   4.530   4.018  1.00  0.00     0.013 A 
HETATM   22  C   UNL     1       2.895   3.785   3.034  1.00  0.00     0.010 A 
BRANCH  20  23
HETATM   23  C   UNL     1       5.637   5.533   5.003  1.00  0.00    -0.008 A 
HETATM   24  C   UNL     1       6.632   6.456   4.669  1.00  0.00     0.128 A 
HETATM   25  N   UNL     1       7.306   7.231   5.553  1.00  0.00    -0.272 NA
HETATM   26  C   UNL     1       6.974   7.097   6.852  1.00  0.00     0.116 A 
HETATM   27  C   UNL     1       6.002   6.222   7.304  1.00  0.00     0.020 A 
HETATM   28  C   UNL     1       5.332   5.433   6.368  1.00  0.00     0.015 A 
ENDBRANCH  20  23
ENDBRANCH  16  17
ENDBRANCH   1  16
TORSDOF 6
