REMARK  5 active torsions:
REMARK  status: ('A' for Active; 'I' for Inactive)
REMARK    1  A    between atoms: C_4  and  N_5 
REMARK       I    between atoms: N_5  and  C_6 
REMARK       I    between atoms: C_6  and  N_7 
REMARK    2  A    between atoms: N_7  and  C_8 
REMARK    3  A    between atoms: C_10  and  C_11 
REMARK       I    between atoms: C_11  and  N_12 
REMARK    4  A    between atoms: N_12  and  C_13 
REMARK    5  A    between atoms: C_13  and  C_14 
ROOT
HETATM    1  C   UNL     1       1.478  -2.524   0.140  1.00  0.00     0.078 A 
HETATM    2  S   UNL     1       0.953  -4.123  -0.075  1.00  0.00    -0.067 SA
HETATM    3  C   UNL     1      -0.610  -3.772   0.548  1.00  0.00     0.074 A 
HETATM    4  C   UNL     1      -0.659  -2.478   1.040  1.00  0.00     0.027 A 
HETATM    5  C   UNL     1       0.556  -1.754   0.804  1.00  0.00     0.039 A 
ENDROOT
BRANCH   1   6
HETATM    6  N   UNL     1       2.732  -2.302  -0.366  1.00  0.00    -0.303 N 
HETATM    7  C   UNL     1       3.352  -1.137  -0.726  1.00  0.00     0.325 C 
HETATM    8  N   UNL     1       2.560  -0.027  -0.856  1.00  0.00    -0.309 N 
HETATM    9  O   UNL     1       4.552  -1.197  -0.988  1.00  0.00    -0.247 OA
HETATM   10  H   UNL     1       1.573  -0.176  -0.736  1.00  0.00     0.170 HD
HETATM   11  H   UNL     1       3.289  -3.124  -0.570  1.00  0.00     0.171 HD
BRANCH   8  12
HETATM   12  C   UNL     1       2.918   1.242  -1.358  1.00  0.00     0.036 A 
HETATM   13  C   UNL     1       4.200   1.582  -1.794  1.00  0.00     0.029 A 
HETATM   14  C   UNL     1       4.454   2.850  -2.330  1.00  0.00     0.002 A 
HETATM   15  C   UNL     1       3.433   3.793  -2.420  1.00  0.00     0.000 A 
HETATM   16  C   UNL     1       2.156   3.471  -1.973  1.00  0.00     0.002 A 
HETATM   17  C   UNL     1       1.899   2.201  -1.447  1.00  0.00     0.029 A 
ENDBRANCH   8  12
ENDBRANCH   1   6
BRANCH   3  18
HETATM   18  C   UNL     1      -1.637  -4.803   0.465  1.00  0.00     0.258 C 
HETATM   19  N   UNL     1      -2.767  -4.581   1.228  1.00  0.00    -0.352 N 
HETATM   20  H   UNL     1      -2.772  -3.848   1.921  1.00  0.00     0.163 HD
HETATM   21  O   UNL     1      -1.540  -5.805  -0.240  1.00  0.00    -0.267 OA
BRANCH  19  22
HETATM   22  C   UNL     1      -3.915  -5.460   1.156  1.00  0.00     0.162 C 
BRANCH  22  23
HETATM   23  C   UNL     1      -3.977  -6.451   2.282  1.00  0.00    -0.023 A 
HETATM   24  C   UNL     1      -5.148  -6.615   3.017  1.00  0.00     0.125 A 
HETATM   25  N   UNL     1      -5.309  -7.522   4.008  1.00  0.00    -0.273 NA
HETATM   26  C   UNL     1      -4.254  -8.321   4.274  1.00  0.00     0.116 A 
HETATM   27  C   UNL     1      -3.049  -8.253   3.598  1.00  0.00     0.020 A 
HETATM   28  C   UNL     1      -2.913  -7.307   2.585  1.00  0.00     0.012 A 
ENDBRANCH  22  23
ENDBRANCH  19  22
ENDBRANCH   3  18
TORSDOF 5
