REMARK  6 active torsions:
REMARK  status: ('A' for Active; 'I' for Inactive)
REMARK    1  A    between atoms: C_4  and  C_5 
REMARK    2  A    between atoms: C_5  and  N_6 
REMARK       I    between atoms: N_6  and  C_7 
REMARK       I    between atoms: C_7  and  N_8 
REMARK    3  A    between atoms: N_8  and  C_9 
REMARK    4  A    between atoms: C_9  and  C_10 
REMARK    5  A    between atoms: C_12  and  O_13 
REMARK    6  A    between atoms: O_13  and  C_14 
ROOT
HETATM    1  N   UNL     1       3.864   5.833   0.062  1.00  0.00    -0.333 N 
HETATM    2  C   UNL     1       3.875   4.800   0.939  1.00  0.00     0.317 C 
HETATM    3  N   UNL     1       3.686   3.565   0.414  1.00  0.00    -0.339 N 
HETATM    4  O   UNL     1       4.057   4.928   2.145  1.00  0.00    -0.247 OA
HETATM    5  H   UNL     1       3.366   5.714  -0.808  1.00  0.00     0.165 HD
HETATM    6  H   UNL     1       3.694   2.833   1.112  1.00  0.00     0.164 HD
ENDROOT
BRANCH   3   7
HETATM    7  C   UNL     1       3.639   3.173  -0.977  1.00  0.00     0.163 C 
BRANCH   7   8
HETATM    8  C   UNL     1       2.251   3.103  -1.562  1.00  0.00    -0.035 A 
HETATM    9  C   UNL     1       1.094   3.421  -0.843  1.00  0.00     0.066 A 
HETATM   10  C   UNL     1      -0.138   3.290  -1.466  1.00  0.00     0.164 A 
HETATM   11  N   UNL     1      -0.302   2.885  -2.741  1.00  0.00    -0.237 NA
HETATM   12  C   UNL     1       0.821   2.595  -3.426  1.00  0.00     0.120 A 
HETATM   13  C   UNL     1       2.098   2.686  -2.890  1.00  0.00     0.028 A 
BRANCH  10  14
HETATM   14  O   UNL     1      -1.251   3.597  -0.706  1.00  0.00    -0.329 OA
BRANCH  14  15
HETATM   15  C   UNL     1      -2.522   3.185  -1.253  1.00  0.00     0.130 C 
HETATM   16  C   UNL     1      -2.846   1.667  -1.193  1.00  0.00     0.032 C 
HETATM   17  C   UNL     1      -4.290   2.051  -0.828  1.00  0.00     0.005 C 
HETATM   18  C   UNL     1      -3.733   3.387  -0.305  1.00  0.00     0.032 C 
ENDBRANCH  14  15
ENDBRANCH  10  14
ENDBRANCH   7   8
ENDBRANCH   3   7
BRANCH   1  19
HETATM   19  C   UNL     1       4.054   7.206   0.493  1.00  0.00     0.139 C 
HETATM   20  C   UNL     1       5.533   7.510   0.719  1.00  0.00     0.039 C 
BRANCH  19  21
HETATM   21  C   UNL     1       3.480   8.119  -0.547  1.00  0.00     0.075 A 
HETATM   22  O   UNL     1       3.432   7.657  -1.834  1.00  0.00    -0.318 OA
HETATM   23  C   UNL     1       2.869   8.638  -2.592  1.00  0.00     0.049 A 
HETATM   24  C   UNL     1       2.708   8.351  -4.032  1.00  0.00     0.076 C 
HETATM   25  C   UNL     1       2.561   9.727  -1.808  1.00  0.00     0.035 A 
HETATM   26  C   UNL     1       2.951   9.393  -0.489  1.00  0.00     0.037 A 
ENDBRANCH  19  21
ENDBRANCH   1  19
TORSDOF 6
