REMARK  4 active torsions:
REMARK  status: ('A' for Active; 'I' for Inactive)
REMARK    1  A    between atoms: C_4  and  O_5 
REMARK    2  A    between atoms: O_5  and  C_6 
REMARK    3  A    between atoms: C_7  and  N_8 
REMARK       I    between atoms: N_8  and  C_9 
REMARK    4  A    between atoms: C_9  and  C_10 
ROOT
HETATM    1  C   UNL     1       3.362  -0.981  -0.017  1.00  0.00     0.102 A 
HETATM    2  C   UNL     1       4.748  -0.773   0.143  1.00  0.00     0.069 A 
HETATM    3  C   UNL     1       5.565  -1.854   0.486  1.00  0.00     0.032 A 
HETATM    4  C   UNL     1       5.009  -3.114   0.721  1.00  0.00     0.002 A 
HETATM    5  C   UNL     1       3.634  -3.303   0.613  1.00  0.00     0.003 A 
HETATM    6  C   UNL     1       2.808  -2.239   0.247  1.00  0.00     0.039 A 
ENDROOT
BRANCH   2   7
HETATM    7  N   UNL     1       5.245   0.523  -0.108  1.00  0.00    -0.320 N 
HETATM    8  C   UNL     1       6.408   1.150   0.236  1.00  0.00     0.257 C 
HETATM    9  O   UNL     1       6.741   2.183  -0.346  1.00  0.00    -0.267 OA
HETATM   10  H   UNL     1       4.636   1.114  -0.666  1.00  0.00     0.169 HD
BRANCH   8  11
HETATM   11  C   UNL     1       7.232   0.653   1.374  1.00  0.00     0.048 A 
HETATM   12  C   UNL     1       6.659   0.407   2.565  1.00  0.00     0.108 A 
HETATM   13  N   UNL     1       7.420  -0.004   3.635  1.00  0.00    -0.333 N 
HETATM   14  C   UNL     1       8.785  -0.158   3.592  1.00  0.00     0.245 A 
HETATM   15  H   UNL     1       6.981  -0.207   4.526  1.00  0.00     0.168 HD
HETATM   16  O   UNL     1       9.443  -0.537   4.553  1.00  0.00    -0.268 OA
HETATM   17  C   UNL     1       9.431   0.173   2.295  1.00  0.00     0.075 A 
HETATM   18  C   UNL     1       8.676   0.562   1.255  1.00  0.00     0.024 A 
ENDBRANCH   8  11
ENDBRANCH   2   7
BRANCH   1  19
HETATM   19  O   UNL     1       2.626   0.141  -0.363  1.00  0.00    -0.309 OA
BRANCH  19  20
HETATM   20  C   UNL     1       1.315  -0.008  -0.734  1.00  0.00     0.076 A 
HETATM   21  C   UNL     1       0.343   0.590   0.068  1.00  0.00     0.037 A 
HETATM   22  C   UNL     1      -1.000   0.513  -0.299  1.00  0.00     0.003 A 
HETATM   23  C   UNL     1      -1.363  -0.147  -1.474  1.00  0.00     0.000 A 
HETATM   24  C   UNL     1      -0.384  -0.722  -2.288  1.00  0.00     0.003 A 
HETATM   25  C   UNL     1       0.960  -0.642  -1.925  1.00  0.00     0.037 A 
ENDBRANCH  19  20
ENDBRANCH   1  19
TORSDOF 4
