REMARK  8 active torsions:
REMARK  status: ('A' for Active; 'I' for Inactive)
REMARK    1  A    between atoms: C_2  and  O_3 
REMARK    2  A    between atoms: O_3  and  C_4 
REMARK    3  A    between atoms: C_5  and  O_6 
REMARK    4  A    between atoms: O_6  and  C_7 
REMARK       I    between atoms: C_7  and  N_8 
REMARK    5  A    between atoms: C_18  and  C_19 
REMARK    6  A    between atoms: C_23  and  N_24 
REMARK    7  A    between atoms: C_31  and  C_32 
REMARK    8  A    between atoms: C_35  and  O_36 
ROOT
HETATM    1  C   UNL     1       6.780  -4.505  -0.666  1.00  0.00     0.105 C 
HETATM    2  C   UNL     1       7.683  -4.938   0.494  1.00  0.00     0.067 C 
HETATM    3  C   UNL     1       7.305  -4.498   1.899  1.00  0.00     0.020 C 
HETATM    4  N   UNL     1       6.992  -4.133   3.064  1.00  0.00    -0.096 N 
HETATM    5  C   UNL     1       8.805  -5.687   0.325  1.00  0.00     0.139 C 
HETATM    6  O   UNL     1       9.228  -6.102  -0.945  1.00  0.00    -0.279 OA
HETATM    7  C   UNL     1       8.559  -5.611  -1.979  1.00  0.00     0.175 A 
HETATM    8  C   UNL     1       7.427  -4.829  -1.982  1.00  0.00     0.040 A 
HETATM    9  N   UNL     1       8.933  -5.787  -3.267  1.00  0.00    -0.256 N 
HETATM   10  H   UNL     1       9.726  -6.308  -3.625  1.00  0.00     0.191 HD
HETATM   11  N   UNL     1       8.141  -5.138  -4.130  1.00  0.00    -0.172 NA
HETATM   12  C   UNL     1       7.206  -4.536  -3.366  1.00  0.00     0.099 A 
ENDROOT
BRANCH   1  13
HETATM   13  C   UNL     1       6.349  -3.044  -0.625  1.00  0.00    -0.040 C 
HETATM   14  C   UNL     1       7.036  -1.992  -1.252  1.00  0.00     0.030 C 
HETATM   15  C   UNL     1       6.457  -0.721  -1.333  1.00  0.00     0.048 C 
HETATM   16  C   UNL     1       5.235  -0.468  -0.707  1.00  0.00     0.131 C 
HETATM   17 BR   UNL     1       7.345   0.618  -2.342  1.00  0.00    -0.048 Br
HETATM   18  C   UNL     1       4.627  -1.446   0.089  1.00  0.00     0.104 C 
HETATM   19  C   UNL     1       5.162  -2.734   0.082  1.00  0.00     0.048 C 
BRANCH  16  20
HETATM   20  O   UNL     1       4.637   0.793  -0.851  1.00  0.00    -0.257 OA
BRANCH  20  21
HETATM   21  C   UNL     1       3.433   0.760  -1.553  1.00  0.00     0.368 C 
HETATM   22  N   UNL     1       2.824   2.003  -1.622  1.00  0.00    -0.324 N 
HETATM   23  C   UNL     1       3.538   3.261  -1.423  1.00  0.00     0.154 C 
HETATM   24  C   UNL     1       1.563   2.148  -2.341  1.00  0.00     0.154 C 
HETATM   25  C   UNL     1       3.715   3.967  -2.776  1.00  0.00     0.187 C 
HETATM   26  O   UNL     1       2.449   4.147  -3.438  1.00  0.00    -0.388 OA
HETATM   27  C   UNL     1       1.799   2.881  -3.665  1.00  0.00     0.187 C 
HETATM   28  O   UNL     1       2.943  -0.245  -2.062  1.00  0.00    -0.238 OA
ENDBRANCH  20  21
ENDBRANCH  16  20
BRANCH  18  29
HETATM   29  O   UNL     1       3.507  -1.068   0.779  1.00  0.00    -0.349 OA
BRANCH  29  30
HETATM   30  C   UNL     1       3.147  -1.789   1.956  1.00  0.00     0.171 C 
HETATM   31  C   UNL     1       4.065  -1.453   3.119  1.00  0.00     0.034 C 
ENDBRANCH  29  30
ENDBRANCH  18  29
ENDBRANCH   1  13
BRANCH   5  32
HETATM   32  N   UNL     1       9.640  -6.120   1.329  1.00  0.00    -0.282 NA
HETATM   33  H   UNL     1       9.228  -6.196   2.256  1.00  0.00     0.126 HD
HETATM   34  H   UNL     1      10.175  -6.942   1.060  1.00  0.00     0.126 HD
ENDBRANCH   5  32
BRANCH  12  35
HETATM   35  C   UNL     1       6.227  -3.653  -4.004  1.00  0.00    -0.005 A 
HETATM   36  C   UNL     1       4.892  -3.599  -3.600  1.00  0.00     0.016 A 
HETATM   37  C   UNL     1       4.017  -2.679  -4.192  1.00  0.00     0.037 A 
HETATM   38  C   UNL     1       4.452  -1.815  -5.201  1.00  0.00     0.068 A 
HETATM   39  C   UNL     1       5.776  -1.882  -5.625  1.00  0.00     0.037 A 
HETATM   40  C   UNL     1       6.654  -2.794  -5.031  1.00  0.00     0.016 A 
BRANCH  38  41
HETATM   41  O   UNL     1       3.497  -0.966  -5.690  1.00  0.00    -0.356 OA
HETATM   42  C   UNL     1       3.915  -0.030  -6.676  1.00  0.00     0.210 C 
ENDBRANCH  38  41
ENDBRANCH  12  35
TORSDOF 8
