REMARK  2 active torsions:
REMARK  status: ('A' for Active; 'I' for Inactive)
REMARK    1  A    between atoms: C_7  and  N_8 
REMARK       I    between atoms: N_8  and  C_9 
REMARK       I    between atoms: C_9  and  N_10 
REMARK    2  A    between atoms: N_10  and  C_11 
ROOT
HETATM    1  C   UNL     1      -5.169  -6.999  -1.680  1.00  0.00     0.025 A 
HETATM    2  C   UNL     1      -5.615  -6.830  -2.992  1.00  0.00     0.044 A 
HETATM    3  C   UNL     1      -6.116  -7.949  -3.736  1.00  0.00     0.099 C 
HETATM    4  N   UNL     1      -6.519  -8.856  -4.336  1.00  0.00    -0.191 NA
HETATM    5  C   UNL     1      -5.566  -5.561  -3.575  1.00  0.00     0.025 A 
HETATM    6  C   UNL     1      -5.066  -4.468  -2.855  1.00  0.00     0.031 A 
HETATM    7  C   UNL     1      -4.607  -4.633  -1.546  1.00  0.00     0.036 A 
HETATM    8  C   UNL     1      -4.670  -5.906  -0.963  1.00  0.00     0.031 A 
ENDROOT
BRANCH   7   9
HETATM    9  N   UNL     1      -4.067  -3.593  -0.761  1.00  0.00    -0.309 N 
HETATM   10  C   UNL     1      -3.802  -2.299  -1.145  1.00  0.00     0.321 C 
HETATM   11  N   UNL     1      -3.226  -1.583  -0.111  1.00  0.00    -0.338 N 
HETATM   12  O   UNL     1      -3.987  -1.798  -2.247  1.00  0.00    -0.247 OA
HETATM   13  H   UNL     1      -3.427  -1.912   0.824  1.00  0.00     0.164 HD
HETATM   14  H   UNL     1      -3.736  -3.863   0.153  1.00  0.00     0.170 HD
BRANCH  11  15
HETATM   15  C   UNL     1      -2.766  -0.206  -0.260  1.00  0.00     0.089 C 
HETATM   16  C   UNL     1      -1.653  -0.084  -1.321  1.00  0.00     0.058 C 
HETATM   17  C   UNL     1      -1.224   1.361  -1.461  1.00  0.00     0.190 C 
HETATM   18  N   UNL     1      -2.432   2.188  -1.808  1.00  0.00    -0.067 N 
HETATM   19  C   UNL     1      -0.296   1.695  -2.611  1.00  0.00     0.035 C 
HETATM   20  H   UNL     1      -2.879   1.756  -2.634  1.00  0.00     0.280 HD
HETATM   21  C   UNL     1      -3.451   2.207  -0.717  1.00  0.00     0.237 C 
HETATM   22  C   UNL     1      -1.891   3.517  -2.269  1.00  0.00     0.235 C 
HETATM   23  C   UNL     1      -3.930   0.777  -0.492  1.00  0.00     0.053 C 
HETATM   24  C   UNL     1      -0.481   3.202  -2.769  1.00  0.00     0.030 C 
ENDBRANCH  11  15
ENDBRANCH   7   9
TORSDOF 2
