REMARK  6 active torsions:
REMARK  status: ('A' for Active; 'I' for Inactive)
REMARK    1  A    between atoms: CG_8  and  CB_9 
REMARK    2  A    between atoms: CB_9  and  CA_10 
REMARK    3  A    between atoms: CA_10  and  N_11 
REMARK    4  A    between atoms: CA_10  and  C_12 
REMARK       I    between atoms: N_11  and  C_18 
REMARK    5  A    between atoms: C_12  and  O_13 
REMARK       I    between atoms: C_18  and  N_19 
REMARK    6  A    between atoms: N_19  and  C_20 
ROOT
ATOM      1  CA  TRP A   1      -0.392  -3.472   0.317  1.00  0.00     0.114 C 
ENDROOT
BRANCH   1   2
ATOM      2  CB  TRP A   1       0.724  -3.248  -0.726  1.00  0.00     0.068 C 
BRANCH   2   3
ATOM      3  CG  TRP A   1       0.793  -1.822  -1.195  1.00  0.00    -0.028 A 
ATOM      4  CD2 TRP A   1       1.609  -0.769  -0.669  1.00  0.00    -0.002 A 
ATOM      5  CE3 TRP A   1       2.568  -0.687   0.360  1.00  0.00     0.014 A 
ATOM      6  CE2 TRP A   1       1.314   0.388  -1.391  1.00  0.00     0.042 A 
ATOM      7  CZ3 TRP A   1       3.173   0.542   0.647  1.00  0.00     0.001 A 
ATOM      8  CH2 TRP A   1       2.847   1.681  -0.085  1.00  0.00     0.002 A 
ATOM      9  CZ2 TRP A   1       1.914   1.625  -1.124  1.00  0.00     0.030 A 
ATOM     10  NE1 TRP A   1       0.383   0.046  -2.343  1.00  0.00    -0.365 N 
ATOM     11  HE1 TRP A   1      -0.003   0.686  -3.023  1.00  0.00     0.165 HD
ATOM     12  CD1 TRP A   1       0.060  -1.279  -2.234  1.00  0.00     0.096 A 
ENDBRANCH   2   3
ENDBRANCH   1   2
BRANCH   1  13
ATOM     13  N   TRP A   1      -0.008  -3.032   1.667  1.00  0.00    -0.336 N 
HETATM   14  C   UNK A   0       0.950  -3.634   2.416  1.00  0.00     0.321 C 
HETATM   15  N   UNK A   0       1.218  -3.108   3.641  1.00  0.00    -0.309 N 
HETATM   16  O   UNK A   0       1.528  -4.660   2.065  1.00  0.00    -0.247 OA
HETATM   17  H   UNK A   0       1.767  -3.750   4.200  1.00  0.00     0.170 HD
ATOM     18  H   TRP A   1      -0.705  -2.515   2.185  1.00  0.00     0.164 HD
BRANCH  15  19
HETATM   19  C   UNK A   0       1.029  -1.823   4.185  1.00  0.00     0.036 A 
HETATM   20  C   UNK A   0       0.670  -0.698   3.438  1.00  0.00     0.039 A 
HETATM   21  C   UNK A   0       0.595   0.532   4.075  1.00  0.00    -0.024 A 
HETATM   22  C   UNK A   0       0.868   0.666   5.426  1.00  0.00    -0.026 A 
HETATM   23  C   UNK A   0       0.303   1.868   3.498  1.00  0.00     0.207 C 
HETATM   24  C   UNK A   0       0.757   2.095   5.809  1.00  0.00     0.207 C 
HETATM   25  C   UNK A   0       1.230  -0.427   6.189  1.00  0.00     0.012 A 
HETATM   26  O   UNK A   0       0.179   2.738   4.649  1.00  0.00    -0.382 OA
HETATM   27  C   UNK A   0       1.314  -1.673   5.559  1.00  0.00     0.030 A 
ENDBRANCH  15  19
ENDBRANCH   1  13
BRANCH   1  28
ATOM     28  C   TRP A   1      -0.887  -4.931   0.286  1.00  0.00     0.189 C 
BRANCH  28  29
ATOM     29  O   TRP A   1      -1.929  -5.122   1.243  1.00  0.00    -0.399 OA
ATOM     30  H   TRP A   1      -1.498  -5.053   2.114  1.00  0.00     0.209 HD
ENDBRANCH  28  29
ENDBRANCH   1  28
TORSDOF 6
