REMARK  8 active torsions:
REMARK  status: ('A' for Active; 'I' for Inactive)
REMARK    1  A    between atoms: N_2  and  C_4 
REMARK    2  A    between atoms: N_2  and  C_32 
REMARK    3  A    between atoms: C_4  and  C_5 
REMARK    4  A    between atoms: N_8  and  C_9 
REMARK    5  A    between atoms: C_12  and  N_13 
REMARK       I    between atoms: N_13  and  C_14 
REMARK       I    between atoms: C_14  and  N_15 
REMARK    6  A    between atoms: N_15  and  C_16 
REMARK    7  A    between atoms: C_18  and  C_19 
REMARK    8  A    between atoms: C_32  and  C_33 
ROOT
HETATM    1  C   UNL     1       2.454   2.989   4.006  1.00  0.00     0.161 C 
HETATM    2  C   UNL     1       1.431   4.042   3.613  1.00  0.00     0.179 C 
HETATM    3  C   UNL     1       2.010   5.345   4.143  1.00  0.00     0.177 C 
HETATM    4  C   UNL     1       1.121   5.681   5.331  1.00  0.00     0.141 C 
HETATM    5  C   UNL     1      -0.192   4.991   4.967  1.00  0.00     0.196 C 
HETATM    6  O   UNL     1       0.171   3.792   4.255  1.00  0.00    -0.379 OA
HETATM    7  O   UNL     1       3.366   5.093   4.551  1.00  0.00    -0.379 OA
HETATM    8  C   UNL     1       3.735   3.805   4.025  1.00  0.00     0.198 C 
ENDROOT
BRANCH   1   9
HETATM    9  N   UNL     1       2.440   1.840   3.133  1.00  0.00    -0.274 N 
HETATM   10  N   UNL     1       3.547   1.412   2.500  1.00  0.00     0.005 NA
HETATM   11  N   UNL     1       3.220   0.353   1.776  1.00  0.00    -0.161 NA
HETATM   12  C   UNL     1       1.886   0.105   1.961  1.00  0.00     0.095 A 
HETATM   13  C   UNL     1       1.373   1.033   2.837  1.00  0.00     0.139 A 
BRANCH  12  14
HETATM   14  C   UNL     1       1.231  -1.001   1.221  1.00  0.00     0.296 C 
BRANCH  14  15
HETATM   15  N   UNL     1       1.784  -1.167  -0.180  1.00  0.00    -0.066 N 
HETATM   16  C   UNL     1       1.409  -0.026  -1.084  1.00  0.00     0.270 C 
HETATM   17  H   UNL     1       2.807  -1.116  -0.069  1.00  0.00     0.280 HD
BRANCH  15  18
HETATM   18  C   UNL     1       1.459  -2.518  -0.757  1.00  0.00     0.273 C 
BRANCH  18  19
HETATM   19  C   UNL     1       2.199  -2.819  -2.031  1.00  0.00    -0.033 A 
HETATM   20  C   UNL     1       3.576  -3.088  -2.008  1.00  0.00     0.009 A 
HETATM   21  C   UNL     1       4.267  -3.336  -3.195  1.00  0.00     0.001 A 
HETATM   22  C   UNL     1       3.591  -3.319  -4.413  1.00  0.00     0.000 A 
HETATM   23  C   UNL     1       2.224  -3.057  -4.448  1.00  0.00     0.001 A 
HETATM   24  C   UNL     1       1.528  -2.809  -3.264  1.00  0.00     0.009 A 
ENDBRANCH  18  19
ENDBRANCH  15  18
ENDBRANCH  14  15
ENDBRANCH  12  14
ENDBRANCH   1   9
BRANCH   4  25
HETATM   25  N   UNL     1       1.033   7.097   5.662  1.00  0.00    -0.334 N 
HETATM   26  C   UNL     1       0.480   8.024   4.800  1.00  0.00     0.321 C 
HETATM   27  N   UNL     1       0.467   9.277   5.369  1.00  0.00    -0.309 N 
HETATM   28  O   UNL     1       0.038   7.707   3.705  1.00  0.00    -0.247 OA
HETATM   29  H   UNL     1       0.853   9.344   6.298  1.00  0.00     0.170 HD
HETATM   30  H   UNL     1       1.762   7.447   6.268  1.00  0.00     0.164 HD
BRANCH  27  31
HETATM   31  C   UNL     1      -0.116  10.453   4.855  1.00  0.00     0.037 A 
HETATM   32  C   UNL     1      -0.786  10.524   3.631  1.00  0.00     0.045 A 
HETATM   33  C   UNL     1      -1.383  11.724   3.201  1.00  0.00     0.050 A 
HETATM   34  C   UNL     1      -1.275  12.867   4.006  1.00  0.00     0.016 A 
HETATM   35  C   UNL     1      -0.600  12.807   5.223  1.00  0.00     0.003 A 
HETATM   36  C   UNL     1      -0.028  11.606   5.645  1.00  0.00     0.029 A 
BRANCH  33  37
HETATM   37  C   UNL     1      -2.106  11.792   1.878  1.00  0.00     0.417 C 
HETATM   38  F   UNL     1      -2.537  10.580   1.431  1.00  0.00    -0.166 F 
HETATM   39  F   UNL     1      -3.214  12.584   1.923  1.00  0.00    -0.166 F 
HETATM   40  F   UNL     1      -1.324  12.300   0.887  1.00  0.00    -0.166 F 
ENDBRANCH  33  37
ENDBRANCH  27  31
ENDBRANCH   4  25
TORSDOF 8
