REMARK  3 active torsions:
REMARK  status: ('A' for Active; 'I' for Inactive)
REMARK    1  A    between atoms: C_7  and  C_8 
REMARK       I    between atoms: C_8  and  N_9 
REMARK    2  A    between atoms: N_9  and  N_10 
REMARK    3  A    between atoms: N_10  and  C_11 
ROOT
HETATM    1  C   UNL     1       8.598  -6.368   1.046  1.00  0.00     0.124 A 
HETATM    2  N   UNL     1       8.590  -7.671   1.383  1.00  0.00    -0.223 NA
HETATM    3  C   UNL     1       9.429  -8.070   2.358  1.00  0.00     0.129 A 
HETATM    4 CL   UNL     1       9.349  -9.743   2.726  1.00  0.00    -0.062 Cl
HETATM    5  C   UNL     1      10.304  -7.243   3.028  1.00  0.00     0.067 A 
HETATM    6  C   UNL     1      10.314  -5.904   2.659  1.00  0.00     0.051 A 
HETATM    7  C   UNL     1      11.204  -4.987   3.304  1.00  0.00     0.099 C 
HETATM    8  N   UNL     1      11.927  -4.249   3.831  1.00  0.00    -0.191 NA
HETATM    9  C   UNL     1       9.457  -5.457   1.653  1.00  0.00     0.068 A 
ENDROOT
BRANCH   1  10
HETATM   10  N   UNL     1       7.745  -5.983  -0.008  1.00  0.00    -0.186 NA
HETATM   11  H   UNL     1       7.149  -6.802  -0.195  1.00  0.00     0.154 HD
BRANCH  10  12
HETATM   12  N   UNL     1       6.972  -4.841   0.285  1.00  0.00    -0.281 N 
HETATM   13  C   UNL     1       5.601  -4.952   0.170  1.00  0.00     0.271 C 
HETATM   14  O   UNL     1       5.025  -6.033   0.050  1.00  0.00    -0.266 OA
HETATM   15  H   UNL     1       7.425  -3.928   0.179  1.00  0.00     0.184 HD
BRANCH  13  16
HETATM   16  C   UNL     1       4.866  -3.657   0.170  1.00  0.00     0.099 A 
HETATM   17  C   UNL     1       5.525  -2.323   0.215  1.00  0.00     0.201 A 
HETATM   18  C   UNL     1       4.664  -1.112   0.155  1.00  0.00     0.045 A 
HETATM   19  O   UNL     1       6.748  -2.221   0.284  1.00  0.00    -0.286 OA
HETATM   20  C   UNL     1       3.263  -1.267   0.068  1.00  0.00     0.052 A 
HETATM   21  C   UNL     1       5.254   0.154   0.170  1.00  0.00     0.060 A 
HETATM   22  C   UNL     1       2.447  -0.119   0.032  1.00  0.00    -0.031 A 
HETATM   23  N   UNL     1       2.721  -2.561   0.086  1.00  0.00    -0.364 N 
HETATM   24  C   UNL     1       0.949  -0.210  -0.047  1.00  0.00     0.050 C 
HETATM   25  C   UNL     1       3.053   1.148   0.037  1.00  0.00     0.051 A 
HETATM   26  C   UNL     1       4.438   1.271   0.106  1.00  0.00     0.117 A 
HETATM   27  F   UNL     1       4.989   2.491   0.112  1.00  0.00    -0.206 F 
HETATM   28  C   UNL     1       3.526  -3.671   0.101  1.00  0.00     0.109 A 
HETATM   29  H   UNL     1       1.737  -2.691  -0.121  1.00  0.00     0.165 HD
ENDBRANCH  13  16
ENDBRANCH  10  12
ENDBRANCH   1  10
TORSDOF 3
