REMARK  6 active torsions:
REMARK  status: ('A' for Active; 'I' for Inactive)
REMARK    1  A    between atoms: C_4  and  C_5 
REMARK    2  A    between atoms: C_7  and  N_8 
REMARK       I    between atoms: N_8  and  C_9 
REMARK    3  A    between atoms: C_9  and  C_10 
REMARK    4  A    between atoms: C_10  and  N_11 
REMARK    5  A    between atoms: N_11  and  C_14 
REMARK    6  A    between atoms: C_20  and  C_21 
REMARK       I    between atoms: C_21  and  N_22 
ROOT
HETATM    1  C   UNL     1       3.719  -0.849   0.778  1.00  0.00     0.018 A 
HETATM    2  S   UNL     1       5.383  -0.631   0.449  1.00  0.00    -0.071 SA
HETATM    3  C   UNL     1       5.111   0.793  -0.424  1.00  0.00     0.093 A 
HETATM    4  C   UNL     1       3.768   1.141  -0.485  1.00  0.00     0.067 A 
HETATM    5  C   UNL     1       2.973   0.178   0.228  1.00  0.00     0.039 A 
ENDROOT
BRANCH   3   6
HETATM    6  N   UNL     1       6.152   1.512  -1.000  1.00  0.00    -0.319 N 
HETATM    7  C   UNL     1       7.485   1.177  -1.017  1.00  0.00     0.248 C 
HETATM    8  O   UNL     1       8.041   0.189  -0.539  1.00  0.00    -0.271 OA
HETATM    9  H   UNL     1       5.833   2.362  -1.473  1.00  0.00     0.169 HD
BRANCH   7  10
HETATM   10  C   UNL     1       8.362   2.185  -1.759  1.00  0.00     0.335 C 
BRANCH  10  11
HETATM   11  N   UNL     1       9.714   1.560  -2.029  1.00  0.00    -0.063 N 
HETATM   12  H   UNL     1       9.983   1.093  -1.144  1.00  0.00     0.278 HD
HETATM   13  H   UNL     1       9.578   0.764  -2.670  1.00  0.00     0.278 HD
BRANCH  11  14
HETATM   14  C   UNL     1      10.786   2.462  -2.493  1.00  0.00     0.186 C 
HETATM   15  C   UNL     1      12.087   1.694  -2.663  1.00  0.00     0.033 C 
HETATM   16  C   UNL     1      12.909   2.619  -3.549  1.00  0.00     0.002 C 
HETATM   17  C   UNL     1      11.897   3.317  -4.459  1.00  0.00     0.002 C 
HETATM   18  C   UNL     1      10.513   2.999  -3.890  1.00  0.00     0.033 C 
ENDBRANCH  11  14
ENDBRANCH  10  11
ENDBRANCH   7  10
ENDBRANCH   3   6
BRANCH   4  19
HETATM   19  C   UNL     1       3.318   2.334  -1.201  1.00  0.00     0.252 C 
HETATM   20  N   UNL     1       1.978   2.568  -1.239  1.00  0.00    -0.366 N 
HETATM   21  H   UNL     1       1.283   1.960  -0.832  1.00  0.00     0.159 HD
HETATM   22  H   UNL     1       1.651   3.381  -1.745  1.00  0.00     0.159 HD
HETATM   23  O   UNL     1       4.110   3.096  -1.756  1.00  0.00    -0.268 OA
ENDBRANCH   4  19
BRANCH   1  24
HETATM   24  C   UNL     1       3.258  -1.992   1.576  1.00  0.00    -0.019 A 
HETATM   25  C   UNL     1       2.327  -1.798   2.608  1.00  0.00     0.013 A 
HETATM   26  C   UNL     1       1.868  -2.877   3.368  1.00  0.00     0.001 A 
HETATM   27  C   UNL     1       2.329  -4.164   3.103  1.00  0.00     0.000 A 
HETATM   28  C   UNL     1       3.249  -4.374   2.079  1.00  0.00     0.001 A 
HETATM   29  C   UNL     1       3.710  -3.295   1.319  1.00  0.00     0.013 A 
ENDBRANCH   1  24
TORSDOF 6
