REMARK  4 active torsions:
REMARK  status: ('A' for Active; 'I' for Inactive)
REMARK    1  A    between atoms: C_4  and  C_5 
REMARK    2  A    between atoms: C_9  and  N_10 
REMARK       I    between atoms: N_10  and  C_11 
REMARK    3  A    between atoms: C_11  and  C_12 
REMARK    4  A    between atoms: C_13  and  C_14 
ROOT
HETATM    1  N   UNL     1       8.117   4.865   0.136  1.00  0.00    -0.308 N 
HETATM    2  C   UNL     1       7.999   6.207  -0.184  1.00  0.00     0.261 C 
HETATM    3  O   UNL     1       6.925   6.740  -0.462  1.00  0.00    -0.267 OA
HETATM    4  H   UNL     1       9.011   4.478   0.407  1.00  0.00     0.170 HD
ENDROOT
BRANCH   1   5
HETATM    5  C   UNL     1       7.017   4.031   0.211  1.00  0.00     0.126 A 
HETATM    6  N   UNL     1       5.725   4.425  -0.015  1.00  0.00    -0.262 N 
HETATM    7  N   UNL     1       4.820   3.458   0.208  1.00  0.00    -0.173 NA
HETATM    8  H   UNL     1       5.411   5.353  -0.286  1.00  0.00     0.191 HD
HETATM    9  C   UNL     1       5.556   2.385   0.539  1.00  0.00     0.090 A 
HETATM   10  C   UNL     1       6.944   2.699   0.537  1.00  0.00     0.084 A 
BRANCH   9  11
HETATM   11  C   UNL     1       4.937   1.111   0.888  1.00  0.00    -0.005 A 
HETATM   12  C   UNL     1       5.406  -0.088   0.336  1.00  0.00     0.020 A 
HETATM   13  C   UNL     1       4.820  -1.311   0.690  1.00  0.00    -0.061 A 
HETATM   14  C   UNL     1       5.277  -2.594   0.061  1.00  0.00     0.048 C 
HETATM   15  C   UNL     1       3.762  -1.323   1.610  1.00  0.00     0.013 A 
HETATM   16  C   UNL     1       3.292  -0.135   2.182  1.00  0.00    -0.061 A 
HETATM   17  C   UNL     1       3.872   1.081   1.798  1.00  0.00     0.020 A 
HETATM   18  C   UNL     1       2.147  -0.161   3.150  1.00  0.00     0.048 C 
ENDBRANCH   9  11
ENDBRANCH   1   5
BRANCH   2  19
HETATM   19  C   UNL     1       9.230   6.987  -0.119  1.00  0.00     0.080 A 
HETATM   20  C   UNL     1      10.615   6.631  -0.169  1.00  0.00     0.104 A 
HETATM   21  N   UNL     1      11.400   7.707   0.007  1.00  0.00    -0.174 NA
HETATM   22  N   UNL     1      10.550   8.736   0.092  1.00  0.00    -0.288 N 
HETATM   23  H   UNL     1      10.933   9.670   0.206  1.00  0.00     0.188 HD
HETATM   24  C   UNL     1       9.247   8.365   0.018  1.00  0.00     0.128 A 
BRANCH  20  25
HETATM   25  C   UNL     1      11.232   5.325  -0.378  1.00  0.00    -0.004 A 
HETATM   26  C   UNL     1      10.918   4.560  -1.511  1.00  0.00     0.017 A 
HETATM   27  C   UNL     1      11.505   3.306  -1.693  1.00  0.00     0.043 A 
HETATM   28  C   UNL     1      12.407   2.826  -0.750  1.00  0.00     0.116 A 
HETATM   29  F   UNL     1      12.967   1.622  -0.928  1.00  0.00    -0.206 F 
HETATM   30  C   UNL     1      12.738   3.576   0.372  1.00  0.00     0.043 A 
HETATM   31  C   UNL     1      12.154   4.830   0.557  1.00  0.00     0.017 A 
ENDBRANCH  20  25
ENDBRANCH   2  19
TORSDOF 4
