REMARK  6 active torsions:
REMARK  status: ('A' for Active; 'I' for Inactive)
REMARK    1  A    between atoms: C_4  and  N_5 
REMARK       I    between atoms: N_5  and  C_6 
REMARK    2  A    between atoms: C_6  and  C_7 
REMARK       I    between atoms: C_7  and  N_8 
REMARK    3  A    between atoms: N_8  and  C_9 
REMARK    4  A    between atoms: C_9  and  C_10 
REMARK    5  A    between atoms: C_10  and  C_11 
REMARK    6  A    between atoms: C_11  and  C_12 
ROOT
HETATM    1  C   UNL     1       2.757   3.862   0.064  1.00  0.00     0.309 C 
HETATM    2  N   UNL     1       2.217   5.100  -0.209  1.00  0.00    -0.353 N 
HETATM    3  O   UNL     1       3.920   3.632   0.360  1.00  0.00    -0.262 OA
HETATM    4  H   UNL     1       1.240   5.108  -0.494  1.00  0.00     0.162 HD
ENDROOT
BRANCH   1   5
HETATM    5  C   UNL     1       1.736   2.708  -0.061  1.00  0.00     0.314 C 
HETATM    6  N   UNL     1       2.292   1.484   0.214  1.00  0.00    -0.317 N 
HETATM    7  H   UNL     1       3.282   1.478   0.474  1.00  0.00     0.169 HD
HETATM    8  O   UNL     1       0.588   2.978  -0.388  1.00  0.00    -0.262 OA
BRANCH   6   9
HETATM    9  C   UNL     1       1.685   0.208   0.185  1.00  0.00     0.065 A 
HETATM   10  C   UNL     1       0.342   0.012  -0.162  1.00  0.00     0.038 A 
HETATM   11  C   UNL     1      -0.208  -1.273  -0.177  1.00  0.00    -0.059 A 
HETATM   12  C   UNL     1      -1.644  -1.493  -0.555  1.00  0.00     0.048 C 
HETATM   13  C   UNL     1       0.602  -2.362   0.158  1.00  0.00     0.020 A 
HETATM   14  C   UNL     1       1.949  -2.173   0.508  1.00  0.00    -0.005 A 
HETATM   15  C   UNL     1       2.508  -0.878   0.524  1.00  0.00     0.093 A 
HETATM   16  C   UNL     1       2.772  -3.256   0.847  1.00  0.00     0.015 A 
HETATM   17  N   UNL     1       3.805  -0.669   0.855  1.00  0.00    -0.258 NA
HETATM   18  C   UNL     1       4.566  -1.738   1.177  1.00  0.00     0.117 A 
HETATM   19  C   UNL     1       4.101  -3.037   1.187  1.00  0.00     0.020 A 
ENDBRANCH   6   9
ENDBRANCH   1   5
BRANCH   2  20
HETATM   20  C   UNL     1       3.015   6.301  -0.288  1.00  0.00     0.123 C 
BRANCH  20  21
HETATM   21  C   UNL     1       3.753   6.430  -1.619  1.00  0.00     0.024 C 
BRANCH  21  22
HETATM   22  C   UNL     1       2.795   6.582  -2.803  1.00  0.00     0.042 C 
BRANCH  22  23
HETATM   23  C   UNL     1       3.519   6.686  -4.107  1.00  0.00    -0.030 A 
HETATM   24  C   UNL     1       4.052   5.602  -4.876  1.00  0.00    -0.002 A 
HETATM   25  C   UNL     1       4.641   6.147  -6.017  1.00  0.00     0.042 A 
HETATM   26  C   UNL     1       4.091   4.202  -4.703  1.00  0.00     0.014 A 
HETATM   27  C   UNL     1       5.265   5.364  -6.996  1.00  0.00     0.030 A 
HETATM   28  N   UNL     1       4.472   7.510  -5.946  1.00  0.00    -0.365 N 
HETATM   29  C   UNL     1       5.289   3.980  -6.801  1.00  0.00     0.002 A 
HETATM   30  C   UNL     1       4.711   3.405  -5.671  1.00  0.00     0.001 A 
HETATM   31  H   UNL     1       4.801   8.163  -6.643  1.00  0.00     0.165 HD
HETATM   32  C   UNL     1       3.799   7.846  -4.802  1.00  0.00     0.096 A 
ENDBRANCH  22  23
ENDBRANCH  21  22
ENDBRANCH  20  21
ENDBRANCH   2  20
TORSDOF 6
