REMARK  3 active torsions:
REMARK  status: ('A' for Active; 'I' for Inactive)
REMARK    1  A    between atoms: N_4  and  C_5 
REMARK    2  A    between atoms: C_15  and  C_16 
REMARK       I    between atoms: C_16  and  N_17 
REMARK    3  A    between atoms: N_17  and  C_18 
ROOT
HETATM    1  C   UNL     1       1.237  -0.375  -0.330  1.00  0.00     0.073 C 
HETATM    2  C   UNL     1       2.704  -0.184  -0.224  1.00  0.00     0.069 A 
HETATM    3  N   UNL     1       3.517  -1.238  -0.069  1.00  0.00    -0.170 NA
HETATM    4  N   UNL     1       4.785  -0.723  -0.053  1.00  0.00    -0.216 N 
HETATM    5  C   UNL     1       4.735   0.663  -0.055  1.00  0.00     0.145 A 
HETATM    6  C   UNL     1       3.418   1.027  -0.213  1.00  0.00     0.087 A 
HETATM    7  N   UNL     1       5.724   1.572   0.122  1.00  0.00    -0.349 N 
HETATM    8  C   UNL     1       5.378   2.913   0.160  1.00  0.00     0.111 A 
HETATM    9  C   UNL     1       4.128   3.397  -0.025  1.00  0.00     0.098 A 
HETATM   10  C   UNL     1       3.014   2.416  -0.272  1.00  0.00     0.205 A 
HETATM   11  O   UNL     1       1.861   2.778  -0.488  1.00  0.00    -0.286 OA
HETATM   12  H   UNL     1       6.647   1.336   0.485  1.00  0.00     0.167 HD
ENDROOT
BRANCH   9  13
HETATM   13  C   UNL     1       3.924   4.877   0.067  1.00  0.00     0.261 C 
HETATM   14  N   UNL     1       2.636   5.297  -0.194  1.00  0.00    -0.323 N 
HETATM   15  H   UNL     1       1.961   4.576  -0.456  1.00  0.00     0.169 HD
HETATM   16  O   UNL     1       4.869   5.608   0.351  1.00  0.00    -0.267 OA
BRANCH  14  17
HETATM   17  C   UNL     1       2.125   6.610  -0.133  1.00  0.00     0.037 A 
HETATM   18  C   UNL     1       2.858   7.718   0.292  1.00  0.00     0.071 A 
HETATM   19  C   UNL     1       2.253   8.972   0.334  1.00  0.00     0.118 A 
HETATM   20  F   UNL     1       2.960  10.030   0.753  1.00  0.00    -0.206 F 
HETATM   21  C   UNL     1       0.928   9.150  -0.046  1.00  0.00     0.042 A 
HETATM   22  C   UNL     1       0.189   8.052  -0.474  1.00  0.00     0.005 A 
HETATM   23  C   UNL     1       0.785   6.788  -0.513  1.00  0.00     0.029 A 
ENDBRANCH  14  17
ENDBRANCH   9  13
BRANCH   4  24
HETATM   24  C   UNL     1       5.908  -1.598  -0.048  1.00  0.00     0.060 A 
HETATM   25  C   UNL     1       7.183  -1.165  -0.431  1.00  0.00     0.031 A 
HETATM   26  C   UNL     1       8.262  -2.055  -0.412  1.00  0.00     0.002 A 
HETATM   27  C   UNL     1       8.074  -3.379  -0.020  1.00  0.00     0.000 A 
HETATM   28  C   UNL     1       6.804  -3.824   0.338  1.00  0.00     0.002 A 
HETATM   29  C   UNL     1       5.722  -2.942   0.316  1.00  0.00     0.031 A 
ENDBRANCH   4  24
TORSDOF 3
