REMARK  6 active torsions:
REMARK  status: ('A' for Active; 'I' for Inactive)
REMARK    1  A    between atoms: C_3  and  C_4 
REMARK    2  A    between atoms: C_4  and  C_5 
REMARK       I    between atoms: C_5  and  N_6 
REMARK    3  A    between atoms: N_6  and  N_7 
REMARK       I    between atoms: N_7  and  C_8 
REMARK    4  A    between atoms: C_8  and  C_9 
REMARK    5  A    between atoms: C_13  and  C_14 
REMARK    6  A    between atoms: C_17  and  O_18 
ROOT
HETATM    1  N   UNL     1       5.332   2.371  -0.986  1.00  0.00    -0.262 N 
HETATM    2  C   UNL     1       6.519   1.962  -0.414  1.00  0.00     0.288 C 
HETATM    3  O   UNL     1       6.818   0.775  -0.299  1.00  0.00    -0.264 OA
HETATM    4  H   UNL     1       5.199   3.328  -1.307  1.00  0.00     0.190 HD
ENDROOT
BRANCH   2   5
HETATM    5  C   UNL     1       7.367   3.030   0.042  1.00  0.00     0.121 A 
HETATM    6  N   UNL     1       8.621   2.810   0.535  1.00  0.00    -0.272 N 
HETATM    7  H   UNL     1       9.096   1.916   0.623  1.00  0.00     0.189 HD
HETATM    8  N   UNL     1       9.250   3.919   0.951  1.00  0.00    -0.174 NA
HETATM    9  C   UNL     1       8.375   4.915   0.734  1.00  0.00     0.089 A 
HETATM   10  C   UNL     1       7.187   4.395   0.145  1.00  0.00     0.071 A 
BRANCH   9  11
HETATM   11  C   UNL     1       8.668   6.305   1.108  1.00  0.00    -0.005 A 
HETATM   12  C   UNL     1       9.810   6.617   1.857  1.00  0.00     0.016 A 
HETATM   13  C   UNL     1      10.071   7.935   2.250  1.00  0.00     0.037 A 
HETATM   14  C   UNL     1       9.199   8.967   1.904  1.00  0.00     0.068 A 
HETATM   15  C   UNL     1       8.069   8.673   1.145  1.00  0.00     0.037 A 
HETATM   16  C   UNL     1       7.806   7.353   0.751  1.00  0.00     0.016 A 
BRANCH  14  17
HETATM   17  O   UNL     1       9.561  10.204   2.361  1.00  0.00    -0.356 OA
HETATM   18  C   UNL     1       8.647  11.268   2.127  1.00  0.00     0.210 C 
ENDBRANCH  14  17
ENDBRANCH   9  11
ENDBRANCH   2   5
BRANCH   1  19
HETATM   19  N   UNL     1       4.481   1.420  -1.560  1.00  0.00    -0.267 N 
HETATM   20  C   UNL     1       3.811   1.781  -2.713  1.00  0.00     0.240 C 
HETATM   21  O   UNL     1       3.916   2.908  -3.198  1.00  0.00    -0.272 OA
HETATM   22  H   UNL     1       4.584   0.456  -1.247  1.00  0.00     0.190 HD
BRANCH  20  23
HETATM   23  C   UNL     1       2.908   0.705  -3.287  1.00  0.00     0.143 C 
BRANCH  23  24
HETATM   24  C   UNL     1       1.434   0.836  -2.940  1.00  0.00    -0.043 A 
HETATM   25  C   UNL     1       0.564  -0.274  -3.051  1.00  0.00    -0.055 A 
HETATM   26  C   UNL     1       1.049  -1.637  -3.468  1.00  0.00     0.049 C 
HETATM   27  C   UNL     1      -0.796  -0.125  -2.727  1.00  0.00     0.007 A 
HETATM   28  C   UNL     1      -1.310   1.109  -2.337  1.00  0.00     0.001 A 
HETATM   29  C   UNL     1      -0.471   2.212  -2.265  1.00  0.00     0.001 A 
HETATM   30  C   UNL     1       0.884   2.079  -2.570  1.00  0.00     0.008 A 
ENDBRANCH  23  24
ENDBRANCH  20  23
ENDBRANCH   1  19
TORSDOF 6
