REMARK  3 active torsions:
REMARK  status: ('A' for Active; 'I' for Inactive)
REMARK    1  A    between atoms: C_7  and  C_8 
REMARK       I    between atoms: C_8  and  N_9 
REMARK    2  A    between atoms: N_9  and  C_10 
REMARK    3  A    between atoms: C_11  and  O_12 
ROOT
HETATM    1  C   UNL     1       0.641  -5.916  -1.760  1.00  0.00     0.252 C 
HETATM    2  N   UNL     1       0.560  -4.796  -0.967  1.00  0.00    -0.346 N 
HETATM    3  O   UNL     1       0.337  -5.907  -2.949  1.00  0.00    -0.268 OA
HETATM    4  H   UNL     1       0.743  -4.861   0.025  1.00  0.00     0.163 HD
ENDROOT
BRANCH   1   5
HETATM    5  C   UNL     1       1.089  -7.165  -1.094  1.00  0.00     0.033 A 
HETATM    6  C   UNL     1       0.513  -8.371  -1.501  1.00  0.00     0.019 A 
HETATM    7  C   UNL     1       0.869  -9.577  -0.893  1.00  0.00     0.031 A 
HETATM    8  C   UNL     1       1.831  -9.531   0.123  1.00  0.00     0.043 A 
HETATM    9  C   UNL     1       2.445  -8.350   0.536  1.00  0.00    -0.001 A 
HETATM   10  N   UNL     1       2.360 -10.548   0.881  1.00  0.00    -0.359 N 
HETATM   11  C   UNL     1       3.383  -8.691   1.564  1.00  0.00    -0.027 A 
HETATM   12  C   UNL     1       2.067  -7.141  -0.087  1.00  0.00     0.031 A 
HETATM   13  C   UNL     1       4.287  -7.761   2.296  1.00  0.00     0.051 C 
HETATM   14  C   UNL     1       3.296 -10.060   1.758  1.00  0.00     0.012 A 
HETATM   15  C   UNL     1       4.024 -10.952   2.697  1.00  0.00     0.068 C 
HETATM   16  H   UNL     1       2.095 -11.519   0.795  1.00  0.00     0.166 HD
ENDBRANCH   1   5
BRANCH   2  17
HETATM   17  C   UNL     1      -0.015  -3.564  -1.473  1.00  0.00     0.147 C 
HETATM   18  C   UNL     1       0.928  -2.733  -2.402  1.00  0.00     0.149 C 
HETATM   19  C   UNL     1       1.649  -1.716  -1.495  1.00  0.00     0.073 C 
HETATM   20  C   UNL     1       0.678  -1.556  -0.367  1.00  0.00    -0.047 A 
HETATM   21  C   UNL     1      -0.257  -2.596  -0.351  1.00  0.00    -0.027 A 
HETATM   22  C   UNL     1       0.662  -0.568   0.604  1.00  0.00     0.008 A 
HETATM   23  C   UNL     1      -1.229  -2.667   0.636  1.00  0.00     0.010 A 
HETATM   24  C   UNL     1      -1.258  -1.671   1.613  1.00  0.00     0.001 A 
HETATM   25  C   UNL     1      -0.319  -0.628   1.596  1.00  0.00     0.001 A 
BRANCH  18  26
HETATM   26  O   UNL     1       1.876  -3.504  -3.134  1.00  0.00    -0.393 OA
HETATM   27  H   UNL     1       1.408  -4.314  -3.429  1.00  0.00     0.210 HD
ENDBRANCH  18  26
ENDBRANCH   2  17
TORSDOF 3
