REMARK  10 active torsions:
REMARK  status: ('A' for Active; 'I' for Inactive)
REMARK    1  A    between atoms: O_2  and  C_3 
REMARK    2  A    between atoms: C_4  and  C_5 
REMARK       I    between atoms: C_5  and  N_6 
REMARK    3  A    between atoms: N_6  and  C_7 
REMARK    4  A    between atoms: C_7  and  N_8 
REMARK    5  A    between atoms: N_8  and  C_9 
REMARK    6  A    between atoms: C_10  and  C_11 
REMARK       I    between atoms: C_11  and  N_12 
REMARK    7  A    between atoms: N_12  and  C_13 
REMARK    8  A    between atoms: C_13  and  C_14 
REMARK    9  A    between atoms: C_14  and  C_15 
REMARK   10  A    between atoms: C_15  and  O_16 
ROOT
HETATM    1  N   UNL     1       1.256  -0.464  -0.022  1.00  0.00    -0.332 N 
HETATM    2  H   UNL     1       0.679   0.162   0.535  1.00  0.00     0.168 HD
ENDROOT
BRANCH   1   3
HETATM    3  C   UNL     1       0.647  -1.623  -0.354  1.00  0.00     0.179 C 
HETATM    4  S   UNL     1      -1.024  -1.699  -0.320  1.00  0.00    -0.040 SA
BRANCH   3   5
HETATM    5  N   UNL     1       1.346  -2.754  -0.642  1.00  0.00    -0.299 N 
HETATM    6  C   UNL     1       2.484  -3.201   0.025  1.00  0.00     0.260 C 
HETATM    7  O   UNL     1       3.265  -2.482   0.642  1.00  0.00    -0.267 OA
HETATM    8  H   UNL     1       0.730  -3.508  -0.929  1.00  0.00     0.171 HD
BRANCH   6   9
HETATM    9  C   UNL     1       2.766  -4.676  -0.055  1.00  0.00     0.065 A 
HETATM   10  C   UNL     1       1.784  -5.654  -0.324  1.00  0.00     0.084 A 
HETATM   11  C   UNL     1       2.150  -7.007  -0.340  1.00  0.00     0.038 A 
HETATM   12  C   UNL     1       3.468  -7.391  -0.082  1.00  0.00     0.003 A 
HETATM   13  C   UNL     1       4.436  -6.431   0.191  1.00  0.00     0.001 A 
HETATM   14  C   UNL     1       4.086  -5.081   0.207  1.00  0.00     0.020 A 
BRANCH  10  15
HETATM   15  O   UNL     1       0.506  -5.218  -0.566  1.00  0.00    -0.355 OA
HETATM   16  C   UNL     1      -0.540  -6.186  -0.555  1.00  0.00     0.210 C 
ENDBRANCH  10  15
ENDBRANCH   6   9
ENDBRANCH   3   5
ENDBRANCH   1   3
BRANCH   1  17
HETATM   17  C   UNL     1       2.446   0.126  -0.520  1.00  0.00     0.050 A 
HETATM   18  C   UNL     1       2.984   1.260   0.127  1.00  0.00     0.058 A 
HETATM   19  C   UNL     1       4.062   1.956  -0.438  1.00  0.00     0.019 A 
HETATM   20  C   UNL     1       4.632   1.514  -1.630  1.00  0.00     0.001 A 
HETATM   21  C   UNL     1       4.127   0.379  -2.259  1.00  0.00     0.002 A 
HETATM   22  C   UNL     1       3.039  -0.310  -1.712  1.00  0.00     0.030 A 
BRANCH  18  23
HETATM   23  C   UNL     1       2.472   1.756   1.436  1.00  0.00     0.253 C 
HETATM   24  N   UNL     1       2.048   0.777   2.312  1.00  0.00    -0.357 N 
HETATM   25  H   UNL     1       2.341  -0.177   2.107  1.00  0.00     0.162 HD
HETATM   26  O   UNL     1       2.460   2.954   1.691  1.00  0.00    -0.268 OA
BRANCH  24  27
HETATM   27  C   UNL     1       1.612   1.087   3.657  1.00  0.00     0.125 C 
BRANCH  27  28
HETATM   28  C   UNL     1       0.661   0.016   4.171  1.00  0.00     0.046 C 
BRANCH  28  29
HETATM   29  C   UNL     1       0.135   0.354   5.557  1.00  0.00     0.165 C 
BRANCH  29  30
HETATM   30  O   UNL     1      -0.727  -0.682   6.010  1.00  0.00    -0.401 OA
HETATM   31  H   UNL     1      -1.475  -0.735   5.390  1.00  0.00     0.209 HD
ENDBRANCH  29  30
ENDBRANCH  28  29
ENDBRANCH  27  28
ENDBRANCH  24  27
ENDBRANCH  18  23
ENDBRANCH   1  17
TORSDOF 10
