REMARK  7 active torsions:
REMARK  status: ('A' for Active; 'I' for Inactive)
REMARK    1  A    between atoms: C_6  and  N_7 
REMARK       I    between atoms: N_7  and  C_8 
REMARK       I    between atoms: C_8  and  N_9 
REMARK    2  A    between atoms: N_9  and  C_10 
REMARK    3  A    between atoms: C_10  and  C_11 
REMARK    4  A    between atoms: C_11  and  C_12 
REMARK    5  A    between atoms: C_12  and  C_13 
REMARK    6  A    between atoms: C_13  and  O_14 
REMARK    7  A    between atoms: O_14  and  C_15 
ROOT
HETATM    1  C   UNL     1       5.314   2.494  -0.074  1.00  0.00     0.219 C 
ENDROOT
BRANCH   1   2
HETATM    2  N   UNL     1       6.756   2.459  -0.071  1.00  0.00    -0.332 N 
HETATM    3  C   UNL     1       7.649   1.807   0.720  1.00  0.00     0.321 C 
HETATM    4  N   UNL     1       7.135   1.116   1.780  1.00  0.00    -0.309 N 
HETATM    5  O   UNL     1       8.832   1.887   0.405  1.00  0.00    -0.247 OA
HETATM    6  H   UNL     1       6.167   1.274   1.997  1.00  0.00     0.170 HD
HETATM    7  H   UNL     1       7.222   2.964  -0.814  1.00  0.00     0.165 HD
BRANCH   4   8
HETATM    8  C   UNL     1       7.830   0.308   2.706  1.00  0.00     0.036 A 
HETATM    9  C   UNL     1       9.201   0.050   2.652  1.00  0.00     0.037 A 
HETATM   10  C   UNL     1       9.833  -0.762   3.614  1.00  0.00    -0.054 A 
HETATM   11  C   UNL     1       9.073  -1.319   4.659  1.00  0.00    -0.056 A 
HETATM   12  C   UNL     1      11.322  -0.968   3.525  1.00  0.00     0.049 C 
HETATM   13  C   UNL     1       9.700  -2.184   5.717  1.00  0.00     0.049 C 
HETATM   14  C   UNL     1       7.694  -1.074   4.700  1.00  0.00     0.009 A 
HETATM   15  C   UNL     1       7.082  -0.268   3.737  1.00  0.00     0.030 A 
ENDBRANCH   4   8
ENDBRANCH   1   2
BRANCH   1  16
HETATM   16  C   UNL     1       4.857   3.931   0.117  1.00  0.00    -0.085 C 
BRANCH  16  17
HETATM   17  C   UNL     1       4.465   5.164   0.280  1.00  0.00    -0.078 C 
BRANCH  17  18
HETATM   18  C   UNL     1       4.008   6.601   0.471  1.00  0.00     0.269 C 
BRANCH  18  19
HETATM   19  O   UNL     1       4.520   7.110   1.698  1.00  0.00    -0.339 OA
BRANCH  19  20
HETATM   20  C   UNL     1       4.236   8.423   1.968  1.00  0.00     0.072 A 
HETATM   21  C   UNL     1       4.335   8.785   3.315  1.00  0.00     0.069 A 
HETATM   22  C   UNL     1       4.085  10.080   3.751  1.00  0.00     0.069 A 
HETATM   23  C   UNL     1       3.740  11.053   2.790  1.00  0.00    -0.007 A 
HETATM   24  N   UNL     1       4.173  10.371   5.062  1.00  0.00    -0.260 NA
HETATM   25  C   UNL     1       3.656  10.704   1.434  1.00  0.00     0.016 A 
HETATM   26  C   UNL     1       3.492  12.359   3.229  1.00  0.00     0.015 A 
HETATM   27  C   UNL     1       3.901   9.392   1.025  1.00  0.00     0.038 A 
HETATM   28  C   UNL     1       3.583  12.660   4.582  1.00  0.00     0.020 A 
HETATM   29  C   UNL     1       3.922  11.641   5.450  1.00  0.00     0.117 A 
ENDBRANCH  19  20
ENDBRANCH  18  19
ENDBRANCH  17  18
ENDBRANCH  16  17
ENDBRANCH   1  16
TORSDOF 7
