REMARK  5 active torsions:
REMARK  status: ('A' for Active; 'I' for Inactive)
REMARK    1  A    between atoms: C_7  and  C_8 
REMARK    2  A    between atoms: C_16  and  C_17 
REMARK    3  A    between atoms: C_20  and  O_21 
REMARK    4  A    between atoms: C_24  and  C_25 
REMARK       I    between atoms: C_25  and  N_26 
REMARK    5  A    between atoms: N_26  and  C_27 
ROOT
HETATM    1  C   UNL     1       1.172   0.038   0.904  1.00  0.00     0.070 C 
HETATM    2  C   UNL     1       2.596  -0.007   0.409  1.00  0.00     0.037 C 
HETATM    3  N   UNL     1       3.221   1.233   0.266  1.00  0.00    -0.192 N 
HETATM    4  C   UNL     1       4.563   1.356   0.193  1.00  0.00     0.726 A 
HETATM    5  N   UNL     1       5.329   0.248  -0.031  1.00  0.00    -0.083 N 
HETATM    6  N   UNL     1       6.642   0.521   0.090  1.00  0.00    -0.135 NA
HETATM    7  C   UNL     1       6.615   1.842   0.346  1.00  0.00     0.199 A 
HETATM    8  N   UNL     1       5.342   2.388   0.388  1.00  0.00    -0.041 NA
HETATM    9  C   UNL     1       4.780  -1.102  -0.200  1.00  0.00     0.202 C 
HETATM   10  C   UNL     1       3.306  -1.143   0.190  1.00  0.00     0.062 C 
HETATM   11  H   UNL     1       2.698   2.049   0.574  1.00  0.00     0.184 HD
ENDROOT
BRANCH  10  12
HETATM   12  C   UNL     1       2.804  -2.520   0.442  1.00  0.00     0.256 C 
HETATM   13  N   UNL     1       1.628  -2.817  -0.209  1.00  0.00    -0.323 N 
HETATM   14  H   UNL     1       1.245  -2.106  -0.820  1.00  0.00     0.169 HD
HETATM   15  O   UNL     1       3.474  -3.263   1.148  1.00  0.00    -0.267 OA
BRANCH  13  16
HETATM   16  C   UNL     1       0.875  -4.006  -0.100  1.00  0.00     0.035 A 
HETATM   17  C   UNL     1       1.268  -5.111   0.658  1.00  0.00     0.029 A 
HETATM   18  C   UNL     1       0.455  -6.247   0.735  1.00  0.00     0.002 A 
HETATM   19  C   UNL     1      -0.761  -6.285   0.059  1.00  0.00     0.000 A 
HETATM   20  C   UNL     1      -1.163  -5.190  -0.700  1.00  0.00     0.002 A 
HETATM   21  C   UNL     1      -0.347  -4.058  -0.783  1.00  0.00     0.029 A 
ENDBRANCH  13  16
ENDBRANCH  10  12
BRANCH   9  22
HETATM   22  C   UNL     1       5.000  -1.597  -1.628  1.00  0.00    -0.028 A 
HETATM   23  C   UNL     1       5.635  -2.833  -1.843  1.00  0.00     0.012 A 
HETATM   24  C   UNL     1       5.829  -3.321  -3.138  1.00  0.00     0.037 A 
HETATM   25  C   UNL     1       5.383  -2.577  -4.224  1.00  0.00     0.065 A 
HETATM   26  C   UNL     1       4.745  -1.359  -4.037  1.00  0.00     0.037 A 
HETATM   27  C   UNL     1       4.550  -0.869  -2.745  1.00  0.00     0.012 A 
BRANCH  25  28
HETATM   28  O   UNL     1       5.554  -3.015  -5.504  1.00  0.00    -0.361 OA
HETATM   29  H   UNL     1       6.050  -3.850  -5.482  1.00  0.00     0.217 HD
ENDBRANCH  25  28
ENDBRANCH   9  22
BRANCH   7  30
HETATM   30  C   UNL     1       7.808   2.634   0.638  1.00  0.00     0.014 A 
HETATM   31  C   UNL     1       9.080   2.040   0.657  1.00  0.00     0.017 A 
HETATM   32  C   UNL     1      10.214   2.792   0.979  1.00  0.00     0.025 A 
HETATM   33  C   UNL     1      10.083   4.145   1.282  1.00  0.00     0.034 A 
HETATM   34 CL   UNL     1      11.476   5.069   1.690  1.00  0.00    -0.084 Cl
HETATM   35  C   UNL     1       8.830   4.754   1.262  1.00  0.00     0.025 A 
HETATM   36  C   UNL     1       7.697   4.000   0.940  1.00  0.00     0.017 A 
ENDBRANCH   7  30
TORSDOF 5
