REMARK  5 active torsions:
REMARK  status: ('A' for Active; 'I' for Inactive)
REMARK    1  A    between atoms: C_5  and  N_6 
REMARK       I    between atoms: N_6  and  C_7 
REMARK    2  A    between atoms: C_7  and  C_8 
REMARK    3  A    between atoms: C_9  and  C_10 
REMARK    4  A    between atoms: C_13  and  O_14 
REMARK    5  A    between atoms: N_20  and  C_21 
ROOT
HETATM    1  C   UNL     1       4.287  -3.308   0.276  1.00  0.00     0.060 C 
HETATM    2  C   UNL     1       4.627  -4.757   0.121  1.00  0.00     0.158 C 
HETATM    3  N   UNL     1       3.540  -5.441  -0.542  1.00  0.00    -0.354 N 
HETATM    4  C   UNL     1       2.226  -5.065  -0.500  1.00  0.00     0.179 C 
HETATM    5  S   UNL     1       1.133  -6.215  -1.055  1.00  0.00    -0.040 SA
HETATM    6  N   UNL     1       1.961  -3.747  -0.062  1.00  0.00    -0.292 N 
HETATM    7  C   UNL     1       3.013  -2.858   0.266  1.00  0.00     0.030 C 
HETATM    8  C   UNL     1       2.652  -1.454   0.710  1.00  0.00     0.070 C 
HETATM    9  H   UNL     1       3.695  -6.409  -0.796  1.00  0.00     0.163 HD
ENDROOT
BRANCH   1  10
HETATM   10  C   UNL     1       5.476  -2.426   0.498  1.00  0.00     0.257 C 
HETATM   11  N   UNL     1       5.491  -1.322  -0.326  1.00  0.00    -0.306 N 
HETATM   12  H   UNL     1       4.760  -1.201  -1.010  1.00  0.00     0.170 HD
HETATM   13  O   UNL     1       6.337  -2.757   1.300  1.00  0.00    -0.267 OA
BRANCH  11  14
HETATM   14  C   UNL     1       6.410  -0.294  -0.222  1.00  0.00     0.160 A 
HETATM   15  N   UNL     1       7.445  -0.249   0.621  1.00  0.00    -0.110 NA
HETATM   16  O   UNL     1       8.060   0.969   0.422  1.00  0.00    -0.216 OA
HETATM   17  C   UNL     1       7.392   1.660  -0.535  1.00  0.00     0.078 A 
HETATM   18  C   UNL     1       7.902   3.007  -0.843  1.00  0.00     0.079 C 
HETATM   19  C   UNL     1       6.348   0.894  -0.992  1.00  0.00     0.087 A 
ENDBRANCH  11  14
ENDBRANCH   1  10
BRANCH   2  20
HETATM   20  C   UNL     1       4.969  -5.468   1.424  1.00  0.00    -0.031 A 
HETATM   21  C   UNL     1       4.072  -5.505   2.508  1.00  0.00     0.012 A 
HETATM   22  C   UNL     1       4.427  -6.120   3.711  1.00  0.00     0.037 A 
HETATM   23  C   UNL     1       5.680  -6.711   3.834  1.00  0.00     0.065 A 
HETATM   24  C   UNL     1       6.574  -6.708   2.773  1.00  0.00     0.037 A 
HETATM   25  C   UNL     1       6.221  -6.088   1.572  1.00  0.00     0.012 A 
BRANCH  23  26
HETATM   26  O   UNL     1       6.074  -7.303   4.997  1.00  0.00    -0.361 OA
HETATM   27  H   UNL     1       5.403  -7.123   5.675  1.00  0.00     0.217 HD
ENDBRANCH  23  26
ENDBRANCH   2  20
BRANCH   6  28
HETATM   28  C   UNL     1       0.601  -3.290  -0.064  1.00  0.00     0.042 A 
HETATM   29  C   UNL     1      -0.296  -3.753   0.907  1.00  0.00     0.030 A 
HETATM   30  C   UNL     1      -1.610  -3.283   0.924  1.00  0.00     0.002 A 
HETATM   31  C   UNL     1      -2.032  -2.353  -0.027  1.00  0.00     0.000 A 
HETATM   32  C   UNL     1      -1.144  -1.893  -0.999  1.00  0.00     0.002 A 
HETATM   33  C   UNL     1       0.171  -2.359  -1.018  1.00  0.00     0.030 A 
ENDBRANCH   6  28
TORSDOF 5
