REMARK  7 active torsions:
REMARK  status: ('A' for Active; 'I' for Inactive)
REMARK    1  A    between atoms: C_3  and  N_4 
REMARK    2  A    between atoms: C_5  and  S_6 
REMARK    3  A    between atoms: S_6  and  C_7 
REMARK    4  A    between atoms: C_7  and  C_8 
REMARK       I    between atoms: C_8  and  N_9 
REMARK    5  A    between atoms: N_9  and  C_10 
REMARK    6  A    between atoms: C_13  and  C_14 
REMARK       I    between atoms: C_14  and  N_15 
REMARK    7  A    between atoms: C_22  and  C_23 
ROOT
HETATM    1  N   UNL     1       2.795   2.280  -0.667  1.00  0.00    -0.271 N 
HETATM    2  C   UNL     1       1.491   2.633  -0.966  1.00  0.00     0.197 C 
HETATM    3  N   UNL     1       1.164   3.730  -0.322  1.00  0.00    -0.122 NA
HETATM    4  N   UNL     1       2.280   4.186   0.319  1.00  0.00    -0.128 NA
HETATM    5  C   UNL     1       3.283   3.368   0.047  1.00  0.00     0.171 C 
ENDROOT
BRANCH   2   6
HETATM    6  S   UNL     1       0.394   1.698  -1.930  1.00  0.00    -0.080 SA
BRANCH   6   7
HETATM    7  C   UNL     1      -1.191   2.504  -1.580  1.00  0.00     0.185 C 
BRANCH   7   8
HETATM    8  C   UNL     1      -1.371   3.785  -2.383  1.00  0.00     0.231 C 
HETATM    9  N   UNL     1      -0.900   4.907  -1.725  1.00  0.00    -0.327 N 
HETATM   10  H   UNL     1      -0.286   4.732  -0.928  1.00  0.00     0.169 HD
HETATM   11  O   UNL     1      -1.919   3.767  -3.482  1.00  0.00    -0.272 OA
BRANCH   9  12
HETATM   12  C   UNL     1      -1.080   6.259  -2.071  1.00  0.00     0.034 A 
HETATM   13  C   UNL     1      -0.442   7.209  -1.263  1.00  0.00     0.030 A 
HETATM   14  C   UNL     1      -0.617   8.579  -1.492  1.00  0.00     0.019 A 
HETATM   15  C   UNL     1      -1.438   9.011  -2.537  1.00  0.00     0.032 A 
HETATM   16  C   UNL     1      -2.048   8.065  -3.367  1.00  0.00     0.019 A 
HETATM   17  C   UNL     1      -1.875   6.695  -3.131  1.00  0.00     0.030 A 
BRANCH  15  18
HETATM   18  C   UNL     1      -1.682  10.452  -2.805  1.00  0.00     0.249 C 
HETATM   19  N   UNL     1      -1.564  11.314  -1.749  1.00  0.00    -0.366 N 
HETATM   20  H   UNL     1      -1.546  10.996  -0.791  1.00  0.00     0.159 HD
HETATM   21  H   UNL     1      -1.854  12.269  -1.921  1.00  0.00     0.159 HD
HETATM   22  O   UNL     1      -2.020  10.857  -3.909  1.00  0.00    -0.268 OA
ENDBRANCH  15  18
ENDBRANCH   9  12
ENDBRANCH   7   8
ENDBRANCH   6   7
ENDBRANCH   2   6
BRANCH   1  23
HETATM   23  C   UNL     1       3.437   1.041  -0.919  1.00  0.00     0.049 A 
HETATM   24  C   UNL     1       3.935   0.250   0.140  1.00  0.00    -0.035 A 
HETATM   25  C   UNL     1       3.777   0.592   1.598  1.00  0.00     0.050 C 
HETATM   26  C   UNL     1       4.605  -0.943  -0.182  1.00  0.00     0.009 A 
HETATM   27  C   UNL     1       4.738  -1.358  -1.508  1.00  0.00     0.001 A 
HETATM   28  C   UNL     1       4.210  -0.586  -2.539  1.00  0.00     0.002 A 
HETATM   29  C   UNL     1       3.560   0.613  -2.250  1.00  0.00     0.031 A 
ENDBRANCH   1  23
BRANCH   5  30
HETATM   30  C   UNL     1       4.701   3.684   0.414  1.00  0.00     0.040 A 
HETATM   31  C   UNL     1       5.140   4.712   1.306  1.00  0.00     0.006 A 
HETATM   32  C   UNL     1       6.536   4.661   1.337  1.00  0.00     0.043 A 
HETATM   33  C   UNL     1       4.493   5.679   2.106  1.00  0.00     0.015 A 
HETATM   34  C   UNL     1       7.312   5.523   2.121  1.00  0.00     0.030 A 
HETATM   35  N   UNL     1       6.925   3.654   0.485  1.00  0.00    -0.364 N 
HETATM   36  C   UNL     1       6.643   6.469   2.902  1.00  0.00     0.002 A 
HETATM   37  C   UNL     1       5.254   6.548   2.897  1.00  0.00     0.001 A 
HETATM   38  H   UNL     1       7.886   3.401   0.299  1.00  0.00     0.165 HD
HETATM   39  C   UNL     1       5.827   3.062  -0.082  1.00  0.00     0.104 A 
ENDBRANCH   5  30
TORSDOF 7
