REMARK  5 active torsions:
REMARK  status: ('A' for Active; 'I' for Inactive)
REMARK    1  A    between atoms: C_7  and  C_8 
REMARK    2  A    between atoms: N_9  and  N_10 
REMARK       I    between atoms: N_10  and  C_11 
REMARK    3  A    between atoms: C_11  and  C_12 
REMARK    4  A    between atoms: C_12  and  N_13 
REMARK    5  A    between atoms: N_13  and  C_14 
ROOT
HETATM    1  N   UNL     1       2.858  -4.824  -0.098  1.00  0.00    -0.246 N 
HETATM    2  C   UNL     1       1.621  -5.130  -0.666  1.00  0.00     0.255 C 
HETATM    3  O   UNL     1       0.802  -4.315  -1.085  1.00  0.00    -0.270 OA
HETATM    4  H   UNL     1       3.553  -5.562  -0.038  1.00  0.00     0.192 HD
ENDROOT
BRANCH   1   5
HETATM    5  N   UNL     1       3.383  -3.562   0.065  1.00  0.00    -0.184 NA
HETATM    6  C   UNL     1       2.569  -2.566   0.221  1.00  0.00     0.153 C 
BRANCH   6   7
HETATM    7  C   UNL     1       3.072  -1.210   0.371  1.00  0.00     0.018 A 
HETATM    8  C   UNL     1       4.396  -0.794   0.427  1.00  0.00     0.018 A 
HETATM    9  C   UNL     1       5.670  -1.556   0.347  1.00  0.00     0.069 C 
HETATM   10  N   UNL     1       4.397   0.571   0.586  1.00  0.00    -0.358 N 
HETATM   11  H   UNL     1       5.225   1.146   0.656  1.00  0.00     0.166 HD
HETATM   12  C   UNL     1       3.114   1.058   0.636  1.00  0.00     0.043 A 
HETATM   13  C   UNL     1       2.258  -0.033   0.499  1.00  0.00     0.004 A 
HETATM   14  C   UNL     1       2.653   2.372   0.789  1.00  0.00     0.030 A 
HETATM   15  C   UNL     1       0.866   0.204   0.508  1.00  0.00     0.014 A 
HETATM   16  C   UNL     1       0.387   1.511   0.658  1.00  0.00     0.001 A 
HETATM   17  C   UNL     1       1.270   2.577   0.798  1.00  0.00     0.002 A 
ENDBRANCH   6   7
ENDBRANCH   1   5
BRANCH   2  18
HETATM   18  C   UNL     1       1.348  -6.637  -0.702  1.00  0.00     0.224 C 
BRANCH  18  19
HETATM   19  N   UNL     1       2.039  -7.278  -1.823  1.00  0.00    -0.380 N 
HETATM   20  H   UNL     1       2.992  -6.951  -1.987  1.00  0.00     0.160 HD
BRANCH  19  21
HETATM   21  C   UNL     1       1.940  -8.672  -1.972  1.00  0.00     0.050 A 
HETATM   22  C   UNL     1       2.985  -9.407  -2.574  1.00  0.00     0.060 A 
HETATM   23 CL   UNL     1       4.459  -8.620  -3.031  1.00  0.00    -0.082 Cl
HETATM   24  C   UNL     1       2.881 -10.784  -2.792  1.00  0.00     0.026 A 
HETATM   25  C   UNL     1       1.717 -11.458  -2.431  1.00  0.00     0.002 A 
HETATM   26  C   UNL     1       0.662 -10.752  -1.862  1.00  0.00     0.002 A 
HETATM   27  C   UNL     1       0.770  -9.374  -1.643  1.00  0.00     0.031 A 
ENDBRANCH  19  21
ENDBRANCH  18  19
ENDBRANCH   2  18
TORSDOF 5
