REMARK  8 active torsions:
REMARK  status: ('A' for Active; 'I' for Inactive)
REMARK    1  A    between atoms: C_7  and  C_8 
REMARK    2  A    between atoms: C_8  and  O_9 
REMARK    3  A    between atoms: O_9  and  C_10 
REMARK    4  A    between atoms: C_13  and  C_14 
REMARK       I    between atoms: C_14  and  N_15 
REMARK    5  A    between atoms: N_15  and  C_16 
REMARK    6  A    between atoms: C_16  and  C_17 
REMARK    7  A    between atoms: C_18  and  C_19 
REMARK    8  A    between atoms: C_19  and  N_20 
ROOT
HETATM    1  C   UNL     1      -1.160  -7.325  -0.464  1.00  0.00     0.251 C 
HETATM    2  N   UNL     1      -0.663  -8.602  -0.630  1.00  0.00    -0.353 N 
HETATM    3  O   UNL     1      -0.451  -6.358  -0.212  1.00  0.00    -0.268 OA
HETATM    4  H   UNL     1      -1.264  -9.319  -1.010  1.00  0.00     0.163 HD
ENDROOT
BRANCH   1   5
HETATM    5  C   UNL     1      -2.630  -7.157  -0.600  1.00  0.00     0.032 A 
HETATM    6  C   UNL     1      -3.523  -8.171  -0.236  1.00  0.00     0.020 A 
HETATM    7  C   UNL     1      -4.899  -7.938  -0.298  1.00  0.00     0.038 A 
HETATM    8  C   UNL     1      -5.393  -6.695  -0.700  1.00  0.00     0.069 A 
HETATM    9  C   UNL     1      -4.505  -5.693  -1.091  1.00  0.00     0.038 A 
HETATM   10  C   UNL     1      -3.126  -5.920  -1.028  1.00  0.00     0.020 A 
BRANCH   8  11
HETATM   11  O   UNL     1      -6.753  -6.584  -0.673  1.00  0.00    -0.347 OA
BRANCH  11  12
HETATM   12  C   UNL     1      -7.287  -5.262  -0.570  1.00  0.00     0.219 C 
BRANCH  12  13
HETATM   13  C   UNL     1      -8.652  -5.310   0.013  1.00  0.00     0.024 A 
HETATM   14  C   UNL     1      -9.004  -5.455   1.384  1.00  0.00     0.069 A 
HETATM   15  C   UNL     1      -8.103  -5.597   2.552  1.00  0.00     0.073 C 
HETATM   16  N   UNL     1     -10.331  -5.457   1.552  1.00  0.00    -0.133 NA
HETATM   17  O   UNL     1     -10.870  -5.324   0.288  1.00  0.00    -0.217 OA
HETATM   18  C   UNL     1      -9.870  -5.240  -0.628  1.00  0.00     0.085 A 
HETATM   19  C   UNL     1     -10.283  -5.106  -2.037  1.00  0.00     0.079 C 
ENDBRANCH  12  13
ENDBRANCH  11  12
ENDBRANCH   8  11
ENDBRANCH   1   5
BRANCH   2  20
HETATM   20  C   UNL     1       0.731  -8.884  -0.399  1.00  0.00     0.162 C 
BRANCH  20  21
HETATM   21  C   UNL     1       1.392  -9.504  -1.609  1.00  0.00    -0.033 A 
HETATM   22  C   UNL     1       1.701 -10.877  -1.742  1.00  0.00    -0.025 A 
HETATM   23  C   UNL     1       2.318 -11.323  -2.931  1.00  0.00     0.009 A 
HETATM   24  C   UNL     1       2.623 -10.437  -3.964  1.00  0.00     0.001 A 
HETATM   25  C   UNL     1       2.316  -9.090  -3.833  1.00  0.00     0.001 A 
HETATM   26  C   UNL     1       1.704  -8.630  -2.670  1.00  0.00     0.009 A 
BRANCH  22  27
HETATM   27  C   UNL     1       1.412 -11.905  -0.677  1.00  0.00     0.274 C 
BRANCH  27  28
HETATM   28  N   UNL     1       2.644 -12.391   0.050  1.00  0.00    -0.067 N 
HETATM   29  H   UNL     1       3.294 -12.729  -0.672  1.00  0.00     0.280 HD
HETATM   30  C   UNL     1       2.355 -13.538   0.996  1.00  0.00     0.235 C 
HETATM   31  C   UNL     1       2.399 -12.897   2.365  1.00  0.00     0.029 C 
HETATM   32  C   UNL     1       3.557 -11.930   2.236  1.00  0.00     0.029 C 
HETATM   33  C   UNL     1       3.374 -11.327   0.854  1.00  0.00     0.235 C 
ENDBRANCH  27  28
ENDBRANCH  22  27
ENDBRANCH  20  21
ENDBRANCH   2  20
TORSDOF 8
