REMARK  11 active torsions:
REMARK  status: ('A' for Active; 'I' for Inactive)
REMARK    1  A    between atoms: C_2  and  N_3 
REMARK    2  A    between atoms: N_3  and  C_5 
REMARK    3  A    between atoms: N_3  and  C_34 
REMARK    4  A    between atoms: C_5  and  C_6 
REMARK    5  A    between atoms: C_6  and  C_7 
REMARK    6  A    between atoms: C_7  and  N_8 
REMARK       I    between atoms: N_8  and  C_9 
REMARK    7  A    between atoms: C_9  and  C_10 
REMARK    8  A    between atoms: C_10  and  O_11 
REMARK    9  A    between atoms: N_12  and  C_13 
REMARK   10  A    between atoms: C_14  and  O_15 
REMARK   11  A    between atoms: C_18  and  O_19 
ROOT
HETATM    1  C   UNL     1      -0.361   0.818  -6.444  1.00  0.00     0.256 C 
HETATM    2  N   UNL     1       0.781   0.090  -7.040  1.00  0.00    -0.251 N 
HETATM    3  C   UNL     1       2.072   0.310  -6.579  1.00  0.00     0.330 C 
HETATM    4  O   UNL     1       3.044  -0.401  -6.835  1.00  0.00    -0.246 OA
HETATM    5  N   UNL     1       2.306   1.438  -5.857  1.00  0.00    -0.308 N 
HETATM    6  C   UNL     1       1.369   2.406  -5.547  1.00  0.00     0.048 A 
HETATM    7  C   UNL     1       0.035   2.170  -5.854  1.00  0.00     0.035 A 
HETATM    8  C   UNL     1       1.780   3.588  -4.926  1.00  0.00     0.031 A 
HETATM    9  C   UNL     1       0.842   4.570  -4.614  1.00  0.00     0.021 A 
HETATM   10  C   UNL     1      -0.501   4.348  -4.901  1.00  0.00     0.011 A 
HETATM   11 BR   UNL     1      -1.782   5.673  -4.484  1.00  0.00    -0.051 Br
HETATM   12  C   UNL     1      -0.910   3.153  -5.495  1.00  0.00     0.034 A 
HETATM   13  H   UNL     1       3.271   1.553  -5.571  1.00  0.00     0.170 HD
ENDROOT
BRANCH   1  14
HETATM   14  C   UNL     1      -1.490   1.124  -7.549  1.00  0.00     0.279 C 
HETATM   15  N   UNL     1      -1.017   1.520  -8.802  1.00  0.00    -0.356 N 
HETATM   16  H   UNL     1      -0.072   1.220  -9.017  1.00  0.00     0.162 HD
HETATM   17  O   UNL     1      -2.694   1.167  -7.288  1.00  0.00    -0.268 OA
BRANCH  15  18
HETATM   18  C   UNL     1      -1.947   1.759  -9.884  1.00  0.00     0.124 C 
BRANCH  18  19
HETATM   19  C   UNL     1      -2.492   3.187  -9.871  1.00  0.00     0.047 C 
BRANCH  19  20
HETATM   20  C   UNL     1      -1.423   4.279  -9.928  1.00  0.00     0.236 C 
BRANCH  20  21
HETATM   21  N   UNL     1      -0.542   4.194 -11.168  1.00  0.00    -0.072 N 
HETATM   22  H   UNL     1      -0.162   3.241 -11.197  1.00  0.00     0.279 HD
BRANCH  21  23
HETATM   23  C   UNL     1       0.681   5.097 -11.075  1.00  0.00     0.230 C 
HETATM   24  C   UNL     1       1.736   4.471 -10.177  1.00  0.00     0.034 C 
ENDBRANCH  21  23
BRANCH  21  25
HETATM   25  C   UNL     1      -1.274   4.359 -12.490  1.00  0.00     0.230 C 
HETATM   26  C   UNL     1      -1.900   5.731 -12.650  1.00  0.00     0.034 C 
ENDBRANCH  21  25
ENDBRANCH  20  21
ENDBRANCH  19  20
ENDBRANCH  18  19
ENDBRANCH  15  18
ENDBRANCH   1  14
BRANCH   1  27
HETATM   27  O   UNL     1      -0.826   0.095  -5.321  1.00  0.00    -0.359 OA
HETATM   28  H   UNL     1      -1.323  -0.652  -5.700  1.00  0.00     0.213 HD
ENDBRANCH   1  27
BRANCH   2  29
HETATM   29  C   UNL     1       0.574  -0.967  -8.009  1.00  0.00     0.076 A 
HETATM   30  C   UNL     1      -0.515  -1.858  -8.003  1.00  0.00     0.098 A 
HETATM   31  C   UNL     1      -0.739  -2.736  -9.078  1.00  0.00     0.075 A 
HETATM   32  C   UNL     1       0.153  -2.783 -10.146  1.00  0.00     0.070 A 
HETATM   33  C   UNL     1       1.255  -1.937 -10.151  1.00  0.00     0.039 A 
HETATM   34  C   UNL     1       1.468  -1.050  -9.094  1.00  0.00     0.035 A 
BRANCH  30  35
HETATM   35  O   UNL     1      -1.382  -1.869  -6.939  1.00  0.00    -0.354 OA
HETATM   36  C   UNL     1      -1.432  -3.160  -6.311  1.00  0.00     0.210 C 
ENDBRANCH  30  35
BRANCH  32  37
HETATM   37  O   UNL     1       0.025  -3.579 -11.249  1.00  0.00    -0.356 OA
HETATM   38  C   UNL     1      -0.627  -4.827 -11.033  1.00  0.00     0.210 C 
ENDBRANCH  32  37
ENDBRANCH   2  29
TORSDOF 11
