REMARK  6 active torsions:
REMARK  status: ('A' for Active; 'I' for Inactive)
REMARK    1  A    between atoms: C_2  and  N_3 
REMARK    2  A    between atoms: N_3  and  C_5 
REMARK    3  A    between atoms: N_3  and  C_26 
REMARK    4  A    between atoms: C_8  and  N_9 
REMARK       I    between atoms: N_9  and  C_10 
REMARK    5  A    between atoms: C_10  and  C_11 
REMARK    6  A    between atoms: C_19  and  O_20 
ROOT
HETATM    1  N   UNL     1      -0.711  -5.926  -0.959  1.00  0.00    -0.321 N 
HETATM    2  C   UNL     1      -0.398  -7.277  -1.016  1.00  0.00     0.280 C 
HETATM    3  O   UNL     1       0.721  -7.738  -0.818  1.00  0.00    -0.265 OA
HETATM    4  H   UNL     1      -1.649  -5.707  -1.279  1.00  0.00     0.169 HD
ENDROOT
BRANCH   1   5
HETATM    5  C   UNL     1       0.174  -4.863  -0.717  1.00  0.00     0.035 A 
HETATM    6  C   UNL     1       1.425  -5.015  -0.121  1.00  0.00     0.032 A 
HETATM    7  C   UNL     1       2.280  -3.916   0.029  1.00  0.00     0.039 A 
HETATM    8  C   UNL     1       1.914  -2.658  -0.458  1.00  0.00     0.134 A 
HETATM    9  C   UNL     1       0.644  -2.496  -1.012  1.00  0.00     0.039 A 
HETATM   10  C   UNL     1      -0.229  -3.588  -1.118  1.00  0.00     0.032 A 
BRANCH   8  11
HETATM   11  N   UNL     1       2.907  -1.549  -0.364  1.00  0.00    -0.042 N 
HETATM   12  H   UNL     1       3.433  -1.759   0.495  1.00  0.00     0.286 HD
BRANCH  11  13
HETATM   13  C   UNL     1       3.908  -1.580  -1.503  1.00  0.00     0.237 C 
HETATM   14  C   UNL     1       4.990  -2.622  -1.278  1.00  0.00     0.035 C 
ENDBRANCH  11  13
BRANCH  11  15
HETATM   15  C   UNL     1       2.298  -0.190  -0.079  1.00  0.00     0.237 C 
HETATM   16  C   UNL     1       1.975   0.619  -1.330  1.00  0.00     0.035 C 
ENDBRANCH  11  15
ENDBRANCH   8  11
ENDBRANCH   1   5
BRANCH   2  17
HETATM   17  C   UNL     1      -1.530  -8.092  -1.422  1.00  0.00     0.150 A 
HETATM   18  O   UNL     1      -2.783  -7.536  -1.378  1.00  0.00    -0.304 OA
HETATM   19  C   UNL     1      -3.660  -8.485  -1.797  1.00  0.00     0.087 A 
HETATM   20  C   UNL     1      -2.987  -9.647  -2.146  1.00  0.00     0.009 A 
HETATM   21  C   UNL     1      -5.041  -8.328  -1.875  1.00  0.00     0.041 A 
HETATM   22  C   UNL     1      -1.603  -9.393  -1.902  1.00  0.00    -0.009 A 
HETATM   23  C   UNL     1      -3.745 -10.730  -2.628  1.00  0.00     0.051 A 
HETATM   24  C   UNL     1      -0.462 -10.318  -2.134  1.00  0.00     0.052 C 
HETATM   25  C   UNL     1      -5.141 -10.612  -2.725  1.00  0.00     0.069 A 
HETATM   26  C   UNL     1      -5.775  -9.425  -2.348  1.00  0.00     0.039 A 
BRANCH  25  27
HETATM   27  O   UNL     1      -5.763 -11.733  -3.207  1.00  0.00    -0.356 OA
HETATM   28  C   UNL     1      -7.184 -11.713  -3.266  1.00  0.00     0.210 C 
ENDBRANCH  25  27
ENDBRANCH   2  17
TORSDOF 6
