REMARK  5 active torsions:
REMARK  status: ('A' for Active; 'I' for Inactive)
REMARK    1  A    between atoms: C_6  and  C_7 
REMARK    2  A    between atoms: C_12  and  C_13 
REMARK    3  A    between atoms: C_13  and  N_14 
REMARK    4  A    between atoms: C_17  and  C_19 
REMARK    5  A    between atoms: C_17  and  O_18 
ROOT
HETATM    1  C   UNL     1      -1.715  -3.716  -1.109  1.00  0.00     0.096 A 
HETATM    2  N   UNL     1      -0.855  -4.383  -0.331  1.00  0.00    -0.174 NA
HETATM    3  N   UNL     1      -0.968  -3.830   0.879  1.00  0.00    -0.288 N 
HETATM    4  H   UNL     1      -0.403  -4.208   1.636  1.00  0.00     0.188 HD
HETATM    5  C   UNL     1      -1.874  -2.811   0.917  1.00  0.00     0.120 A 
HETATM    6  C   UNL     1      -2.387  -2.693  -0.363  1.00  0.00     0.016 A 
ENDROOT
BRANCH   6   7
HETATM    7  C   UNL     1      -3.448  -1.768  -0.829  1.00  0.00     0.277 C 
BRANCH   7   8
HETATM    8  N   UNL     1      -2.954  -0.362  -1.039  1.00  0.00    -0.064 N 
HETATM    9  H   UNL     1      -2.045  -0.414  -1.525  1.00  0.00     0.280 HD
HETATM   10  C   UNL     1      -2.725   0.444   0.225  1.00  0.00     0.282 C 
HETATM   11  C   UNL     1      -2.605   1.879  -0.291  1.00  0.00     0.180 C 
HETATM   12  C   UNL     1      -3.382   1.914  -1.614  1.00  0.00     0.076 C 
HETATM   13  C   UNL     1      -3.882   0.497  -1.845  1.00  0.00     0.238 C 
BRANCH  11  14
HETATM   14  C   UNL     1      -3.170   2.825   0.768  1.00  0.00     0.419 C 
HETATM   15  F   UNL     1      -2.523   2.679   1.940  1.00  0.00    -0.168 F 
HETATM   16  F   UNL     1      -3.054   4.106   0.370  1.00  0.00    -0.168 F 
HETATM   17  F   UNL     1      -4.478   2.561   0.977  1.00  0.00    -0.168 F 
ENDBRANCH  11  14
BRANCH  11  18
HETATM   18  O   UNL     1      -1.219   2.120  -0.614  1.00  0.00    -0.379 OA
HETATM   19  H   UNL     1      -1.063   3.088  -0.627  1.00  0.00     0.211 HD
ENDBRANCH  11  18
ENDBRANCH   7   8
ENDBRANCH   6   7
BRANCH   1  20
HETATM   20  C   UNL     1      -1.884  -4.099  -2.509  1.00  0.00    -0.003 A 
HETATM   21  C   UNL     1      -1.873  -3.142  -3.529  1.00  0.00     0.037 A 
HETATM   22  C   UNL     1      -2.069  -3.532  -4.855  1.00  0.00     0.035 A 
HETATM   23  C   UNL     1      -2.256  -4.872  -5.183  1.00  0.00     0.024 A 
HETATM   24 CL   UNL     1      -2.092  -2.331  -6.086  1.00  0.00    -0.084 Cl
HETATM   25  C   UNL     1      -2.241  -5.835  -4.176  1.00  0.00     0.003 A 
HETATM   26  C   UNL     1      -2.056  -5.450  -2.846  1.00  0.00     0.014 A 
ENDBRANCH   1  20
TORSDOF 5
