REMARK  8 active torsions:
REMARK  status: ('A' for Active; 'I' for Inactive)
REMARK    1  A    between atoms: C_2  and  O_3 
REMARK    2  A    between atoms: O_3  and  C_4 
REMARK    3  A    between atoms: C_4  and  C_5 
REMARK    4  A    between atoms: N_7  and  C_9 
REMARK    5  A    between atoms: C_9  and  C_10 
REMARK       I    between atoms: C_10  and  N_11 
REMARK    6  A    between atoms: N_11  and  C_12 
REMARK    7  A    between atoms: C_20  and  C_21 
REMARK       I    between atoms: C_21  and  N_22 
REMARK    8  A    between atoms: N_22  and  C_23 
ROOT
HETATM    1  C   UNL     1       6.095  -3.878   2.297  1.00  0.00     0.093 C 
HETATM    2  S   UNL     1       5.585  -4.788   0.965  1.00  0.00    -0.075 SA
HETATM    3  C   UNL     1       4.194  -3.834   0.798  1.00  0.00    -0.008 C 
HETATM    4  C   UNL     1       4.037  -2.917   1.828  1.00  0.00    -0.026 C 
HETATM    5  C   UNL     1       2.811  -2.038   1.877  1.00  0.00     0.041 C 
HETATM    6  C   UNL     1       1.707  -2.483   0.904  1.00  0.00     0.005 C 
HETATM    7  C   UNL     1       2.278  -2.871  -0.463  1.00  0.00     0.005 C 
HETATM    8  C   UNL     1       3.238  -4.058  -0.335  1.00  0.00     0.047 C 
HETATM    9  C   UNL     1       5.160  -2.962   2.762  1.00  0.00     0.073 C 
ENDROOT
BRANCH   1  10
HETATM   10  N   UNL     1       7.370  -4.212   2.708  1.00  0.00    -0.319 N 
HETATM   11  C   UNL     1       8.224  -3.218   3.129  1.00  0.00     0.248 C 
HETATM   12  O   UNL     1       8.045  -2.007   2.987  1.00  0.00    -0.271 OA
HETATM   13  H   UNL     1       7.745  -5.069   2.319  1.00  0.00     0.169 HD
BRANCH  11  14
HETATM   14  C   UNL     1       9.514  -3.708   3.790  1.00  0.00     0.337 C 
BRANCH  14  15
HETATM   15  N   UNL     1      10.300  -2.522   4.350  1.00  0.00    -0.062 N 
HETATM   16  C   UNL     1       9.693  -1.969   5.628  1.00  0.00     0.249 C 
HETATM   17  C   UNL     1      10.318  -0.617   5.951  1.00  0.00     0.111 C 
HETATM   18  C   UNL     1      11.851  -0.675   5.955  1.00  0.00     0.018 C 
HETATM   19  C   UNL     1      12.456  -1.415   4.758  1.00  0.00     0.029 C 
HETATM   20  C   UNL     1      11.773  -2.745   4.464  1.00  0.00     0.235 C 
HETATM   21  H   UNL     1      10.145  -1.776   3.633  1.00  0.00     0.280 HD
BRANCH  17  22
HETATM   22  C   UNL     1       9.788   0.360   4.927  1.00  0.00     0.264 C 
HETATM   23  O   UNL     1      10.072   0.275   3.738  1.00  0.00    -0.265 OA
BRANCH  22  24
HETATM   24  O   UNL     1       8.897   1.216   5.479  1.00  0.00    -0.322 OA
BRANCH  24  25
HETATM   25  C   UNL     1       8.194   2.034   4.532  1.00  0.00     0.174 C 
HETATM   26  C   UNL     1       7.380   3.058   5.297  1.00  0.00     0.034 C 
ENDBRANCH  24  25
ENDBRANCH  22  24
ENDBRANCH  17  22
ENDBRANCH  14  15
ENDBRANCH  11  14
ENDBRANCH   1  10
BRANCH   9  27
HETATM   27  C   UNL     1       5.338  -2.259   4.057  1.00  0.00     0.259 C 
HETATM   28  N   UNL     1       4.675  -1.053   4.170  1.00  0.00    -0.323 N 
HETATM   29  H   UNL     1       4.226  -0.707   3.335  1.00  0.00     0.169 HD
HETATM   30  O   UNL     1       6.035  -2.754   4.944  1.00  0.00    -0.267 OA
BRANCH  28  31
HETATM   31  C   UNL     1       4.540  -0.238   5.314  1.00  0.00     0.035 A 
HETATM   32  C   UNL     1       5.157  -0.494   6.541  1.00  0.00     0.031 A 
HETATM   33  C   UNL     1       4.955   0.361   7.632  1.00  0.00     0.026 A 
HETATM   34  C   UNL     1       4.124   1.469   7.504  1.00  0.00     0.034 A 
HETATM   35 CL   UNL     1       3.877   2.514   8.846  1.00  0.00    -0.084 Cl
HETATM   36  C   UNL     1       3.496   1.735   6.292  1.00  0.00     0.026 A 
HETATM   37  C   UNL     1       3.709   0.887   5.199  1.00  0.00     0.031 A 
ENDBRANCH  28  31
ENDBRANCH   9  27
TORSDOF 8
