REMARK  4 active torsions:
REMARK  status: ('A' for Active; 'I' for Inactive)
REMARK    1  A    between atoms: C_6  and  N_7 
REMARK       I    between atoms: N_7  and  C_8 
REMARK    2  A    between atoms: C_8  and  C_9 
REMARK    3  A    between atoms: C_10  and  C_11 
REMARK    4  A    between atoms: C_14  and  O_15 
ROOT
HETATM    1  C   UNL     1       6.573  -2.505  -0.612  1.00  0.00     0.062 A 
HETATM    2  C   UNL     1       7.453  -3.664  -0.164  1.00  0.00     0.202 A 
HETATM    3  N   UNL     1       6.773  -4.953  -0.353  1.00  0.00    -0.084 N 
HETATM    4  C   UNL     1       5.504  -5.086  -0.849  1.00  0.00     0.725 A 
HETATM    5  N   UNL     1       4.805  -3.984  -1.179  1.00  0.00    -0.192 N 
HETATM    6  N   UNL     1       7.372  -6.158  -0.224  1.00  0.00    -0.149 NA
HETATM    7  C   UNL     1       6.359  -6.971  -0.546  1.00  0.00     0.275 A 
HETATM    8  N   UNL     1       5.203  -6.355  -0.949  1.00  0.00    -0.054 NA
HETATM    9  C   UNL     1       5.316  -2.696  -1.082  1.00  0.00     0.037 A 
HETATM   10  C   UNL     1       4.397  -1.591  -1.541  1.00  0.00     0.070 C 
HETATM   11  H   UNL     1       3.861  -4.093  -1.540  1.00  0.00     0.184 HD
ENDROOT
BRANCH   1  12
HETATM   12  C   UNL     1       7.103  -1.129  -0.432  1.00  0.00     0.256 C 
HETATM   13  N   UNL     1       8.222  -0.879  -1.196  1.00  0.00    -0.323 N 
HETATM   14  H   UNL     1       8.548  -1.623  -1.795  1.00  0.00     0.169 HD
HETATM   15  O   UNL     1       6.516  -0.362   0.321  1.00  0.00    -0.267 OA
BRANCH  13  16
HETATM   16  C   UNL     1       8.952   0.334  -1.278  1.00  0.00     0.041 A 
HETATM   17  C   UNL     1      10.097   0.388  -2.102  1.00  0.00    -0.035 A 
HETATM   18  C   UNL     1      10.813   1.596  -2.217  1.00  0.00     0.015 A 
HETATM   19  C   UNL     1      10.595  -0.806  -2.873  1.00  0.00     0.050 C 
HETATM   20  C   UNL     1      10.423   2.742  -1.517  1.00  0.00    -0.061 A 
HETATM   21  C   UNL     1      11.167   4.034  -1.678  1.00  0.00     0.048 C 
HETATM   22  C   UNL     1       9.292   2.678  -0.705  1.00  0.00     0.009 A 
HETATM   23  C   UNL     1       8.570   1.487  -0.583  1.00  0.00     0.030 A 
ENDBRANCH  13  16
ENDBRANCH   1  12
BRANCH   2  24
HETATM   24  C   UNL     1       7.989  -3.559   1.260  1.00  0.00    -0.028 A 
HETATM   25  C   UNL     1       7.213  -3.070   2.322  1.00  0.00     0.012 A 
HETATM   26  C   UNL     1       7.744  -2.998   3.614  1.00  0.00     0.037 A 
HETATM   27  C   UNL     1       9.044  -3.432   3.880  1.00  0.00     0.068 A 
HETATM   28  C   UNL     1       9.817  -3.937   2.838  1.00  0.00     0.037 A 
HETATM   29  C   UNL     1       9.294  -4.000   1.541  1.00  0.00     0.012 A 
BRANCH  27  30
HETATM   30  O   UNL     1       9.433  -3.313   5.186  1.00  0.00    -0.356 OA
HETATM   31  C   UNL     1      10.723  -3.812   5.519  1.00  0.00     0.210 C 
ENDBRANCH  27  30
ENDBRANCH   2  24
TORSDOF 4
