REMARK  9 active torsions:
REMARK  status: ('A' for Active; 'I' for Inactive)
REMARK    1  A    between atoms: C_3  and  O_4 
REMARK    2  A    between atoms: O_4  and  C_5 
REMARK    3  A    between atoms: C_5  and  C_6 
REMARK    4  A    between atoms: N_7  and  C_8 
REMARK    5  A    between atoms: C_14  and  S_15 
REMARK    6  A    between atoms: S_15  and  C_16 
REMARK    7  A    between atoms: C_16  and  C_17 
REMARK       I    between atoms: C_17  and  N_18 
REMARK    8  A    between atoms: N_18  and  C_19 
REMARK    9  A    between atoms: C_19  and  C_20 
ROOT
HETATM    1  C   UNL     1       2.097   4.599  -0.211  1.00  0.00     0.160 A 
HETATM    2  N   UNL     1       0.734   4.785  -0.444  1.00  0.00    -0.274 N 
HETATM    3  C   UNL     1       0.591   6.164  -0.405  1.00  0.00     0.196 A 
HETATM    4  N   UNL     1       1.748   6.747  -0.202  1.00  0.00    -0.122 NA
HETATM    5  N   UNL     1       2.687   5.773  -0.067  1.00  0.00    -0.131 NA
ENDROOT
BRANCH   3   6
HETATM    6  S   UNL     1      -0.902   7.044  -0.278  1.00  0.00    -0.081 SA
BRANCH   6   7
HETATM    7  C   UNL     1      -1.038   7.178   1.528  1.00  0.00     0.185 C 
BRANCH   7   8
HETATM    8  C   UNL     1      -0.352   8.396   2.132  1.00  0.00     0.227 C 
HETATM    9  N   UNL     1       0.908   8.687   1.671  1.00  0.00    -0.360 N 
HETATM   10  H   UNL     1       1.323   8.096   0.953  1.00  0.00     0.162 HD
HETATM   11  O   UNL     1      -0.873   9.015   3.060  1.00  0.00    -0.273 OA
BRANCH   9  12
HETATM   12  C   UNL     1       1.775   9.667   2.288  1.00  0.00     0.126 C 
BRANCH  12  13
HETATM   13  C   UNL     1       2.570   9.077   3.465  1.00  0.00    -0.005 C 
HETATM   14  C   UNL     1       3.424   7.881   3.036  1.00  0.00     0.011 C 
HETATM   15  C   UNL     1       3.459  10.155   4.086  1.00  0.00     0.011 C 
ENDBRANCH  12  13
ENDBRANCH   9  12
ENDBRANCH   7   8
ENDBRANCH   6   7
ENDBRANCH   3   6
BRANCH   2  16
HETATM   16  C   UNL     1      -0.278   3.806  -0.646  1.00  0.00     0.043 A 
HETATM   17  C   UNL     1      -0.281   2.614   0.089  1.00  0.00     0.030 A 
HETATM   18  C   UNL     1      -1.286   1.664  -0.117  1.00  0.00     0.002 A 
HETATM   19  C   UNL     1      -2.292   1.897  -1.052  1.00  0.00     0.000 A 
HETATM   20  C   UNL     1      -2.296   3.081  -1.785  1.00  0.00     0.002 A 
HETATM   21  C   UNL     1      -1.294   4.033  -1.585  1.00  0.00     0.030 A 
ENDBRANCH   2  16
BRANCH   1  22
HETATM   22  C   UNL     1       2.840   3.308  -0.208  1.00  0.00     0.256 C 
BRANCH  22  23
HETATM   23  O   UNL     1       2.597   2.665  -1.454  1.00  0.00    -0.343 OA
BRANCH  23  24
HETATM   24  C   UNL     1       3.334   1.539  -1.715  1.00  0.00     0.075 A 
HETATM   25  C   UNL     1       3.425   1.159  -3.066  1.00  0.00    -0.029 A 
HETATM   26  C   UNL     1       2.810   1.985  -4.161  1.00  0.00     0.051 C 
HETATM   27  C   UNL     1       4.177   0.024  -3.411  1.00  0.00     0.009 A 
HETATM   28  C   UNL     1       4.799  -0.743  -2.427  1.00  0.00     0.001 A 
HETATM   29  C   UNL     1       4.684  -0.379  -1.090  1.00  0.00     0.003 A 
HETATM   30  C   UNL     1       3.954   0.757  -0.734  1.00  0.00     0.037 A 
ENDBRANCH  23  24
ENDBRANCH  22  23
ENDBRANCH   1  22
TORSDOF 9
