REMARK  5 active torsions:
REMARK  status: ('A' for Active; 'I' for Inactive)
REMARK       I    between atoms: C_2  and  N_3 
REMARK    1  A    between atoms: N_3  and  C_4 
REMARK    2  A    between atoms: C_7  and  C_8 
REMARK    3  A    between atoms: C_8  and  N_9 
REMARK    4  A    between atoms: C_12  and  C_13 
REMARK    5  A    between atoms: C_14  and  O_15 
ROOT
HETATM    1  N   UNL     1      -0.686  -5.919  -0.307  1.00  0.00    -0.060 N 
HETATM    2  H   UNL     1      -0.815  -6.184  -1.290  1.00  0.00     0.280 HD
HETATM    3  C   UNL     1      -1.094  -4.446  -0.138  1.00  0.00     0.272 C 
HETATM    4  C   UNL     1      -2.567  -4.125  -0.479  1.00  0.00     0.190 C 
HETATM    5  O   UNL     1      -3.444  -4.763   0.466  1.00  0.00    -0.339 OA
HETATM    6  C   UNL     1      -3.834  -5.979  -0.022  1.00  0.00     0.077 A 
HETATM    7  C   UNL     1      -2.925  -7.040  -0.055  1.00  0.00     0.001 A 
HETATM    8  C   UNL     1      -1.544  -6.866   0.507  1.00  0.00     0.276 C 
HETATM    9  C   UNL     1      -5.142  -6.120  -0.477  1.00  0.00     0.037 A 
HETATM   10  C   UNL     1      -5.548  -7.335  -1.020  1.00  0.00     0.003 A 
HETATM   11  C   UNL     1      -4.649  -8.399  -1.093  1.00  0.00     0.001 A 
HETATM   12  C   UNL     1      -3.345  -8.257  -0.609  1.00  0.00     0.012 A 
ENDROOT
BRANCH   1  13
HETATM   13  C   UNL     1       0.794  -6.031   0.005  1.00  0.00     0.273 C 
BRANCH  13  14
HETATM   14  C   UNL     1       1.398  -7.408  -0.016  1.00  0.00    -0.032 A 
HETATM   15  C   UNL     1       1.470  -8.161  -1.193  1.00  0.00     0.011 A 
HETATM   16  C   UNL     1       2.108  -9.411  -1.199  1.00  0.00     0.030 A 
HETATM   17  C   UNL     1       2.689  -9.926  -0.038  1.00  0.00     0.034 A 
HETATM   18  C   UNL     1       2.595  -9.184   1.143  1.00  0.00     0.030 A 
HETATM   19  C   UNL     1       1.958  -7.939   1.155  1.00  0.00     0.011 A 
BRANCH  17  20
HETATM   20  N   UNL     1       3.401 -11.141   0.024  1.00  0.00    -0.328 N 
HETATM   21  C   UNL     1       3.654 -12.021  -1.013  1.00  0.00     0.218 C 
HETATM   22  C   UNL     1       4.547 -13.168  -0.604  1.00  0.00     0.117 C 
HETATM   23  O   UNL     1       3.255 -11.917  -2.168  1.00  0.00    -0.274 OA
HETATM   24  H   UNL     1       3.805 -11.378   0.922  1.00  0.00     0.169 HD
ENDBRANCH  17  20
ENDBRANCH  13  14
ENDBRANCH   1  13
BRANCH   4  25
HETATM   25  C   UNL     1      -2.822  -2.627  -0.374  1.00  0.00     0.006 A 
HETATM   26  C   UNL     1      -3.405  -1.916  -1.439  1.00  0.00     0.077 A 
HETATM   27  C   UNL     1      -3.589  -0.532  -1.342  1.00  0.00     0.037 A 
HETATM   28  C   UNL     1      -3.237   0.148  -0.176  1.00  0.00     0.003 A 
HETATM   29  C   UNL     1      -2.708  -0.551   0.903  1.00  0.00     0.001 A 
HETATM   30  C   UNL     1      -2.510  -1.928   0.809  1.00  0.00     0.012 A 
BRANCH  26  31
HETATM   31  O   UNL     1      -3.734  -2.636  -2.559  1.00  0.00    -0.355 OA
HETATM   32  C   UNL     1      -4.873  -2.156  -3.274  1.00  0.00     0.210 C 
ENDBRANCH  26  31
ENDBRANCH   4  25
TORSDOF 5
