REMARK  3 active torsions:
REMARK  status: ('A' for Active; 'I' for Inactive)
REMARK    1  A    between atoms: C_4  and  N_5 
REMARK       I    between atoms: N_5  and  C_6 
REMARK    2  A    between atoms: C_6  and  C_7 
REMARK    3  A    between atoms: C_7  and  C_8 
ROOT
HETATM    1  C   UNL     1       0.841  -2.212   0.194  1.00  0.00     0.286 C 
HETATM    2  N   UNL     1       0.517  -0.746  -0.121  1.00  0.00    -0.056 N 
HETATM    3  H   UNL     1       0.927  -0.146   0.613  1.00  0.00     0.278 HD
HETATM    4  H   UNL     1       0.979  -0.488  -1.003  1.00  0.00     0.278 HD
HETATM    5  C   UNL     1      -0.952  -0.414  -0.205  1.00  0.00     0.209 C 
HETATM    6  C   UNL     1      -1.669  -1.425  -1.118  1.00  0.00     0.115 C 
HETATM    7  N   UNL     1      -1.417  -2.795  -0.710  1.00  0.00    -0.353 N 
HETATM    8  C   UNL     1      -0.215  -3.246  -0.243  1.00  0.00     0.249 C 
HETATM    9  O   UNL     1      -0.025  -4.451  -0.103  1.00  0.00    -0.271 OA
HETATM   10  C   UNL     1      -1.132   1.008  -0.728  1.00  0.00     0.035 C 
HETATM   11  C   UNL     1      -2.620   1.356  -0.795  1.00  0.00     0.002 C 
HETATM   12  C   UNL     1      -3.427   0.324  -1.586  1.00  0.00     0.002 C 
HETATM   13  C   UNL     1      -3.168  -1.111  -1.125  1.00  0.00     0.027 C 
HETATM   14  H   UNL     1      -2.043  -3.532  -1.030  1.00  0.00     0.163 HD
ENDROOT
BRANCH   1  15
HETATM   15  C   UNL     1       1.198  -2.425   1.669  1.00  0.00     0.146 C 
BRANCH  15  16
HETATM   16  C   UNL     1       0.040  -1.986   2.526  1.00  0.00     0.224 C 
HETATM   17  N   UNL     1      -0.887  -2.978   2.757  1.00  0.00    -0.327 N 
HETATM   18  H   UNL     1      -0.618  -3.942   2.567  1.00  0.00     0.169 HD
HETATM   19  O   UNL     1      -0.055  -0.790   2.790  1.00  0.00    -0.273 OA
BRANCH  17  20
HETATM   20  C   UNL     1      -2.214  -2.816   3.212  1.00  0.00     0.034 A 
HETATM   21  C   UNL     1      -2.793  -1.581   3.512  1.00  0.00     0.029 A 
HETATM   22  C   UNL     1      -4.134  -1.504   3.903  1.00  0.00     0.002 A 
HETATM   23  C   UNL     1      -4.905  -2.660   4.002  1.00  0.00     0.000 A 
HETATM   24  C   UNL     1      -4.335  -3.896   3.713  1.00  0.00     0.002 A 
HETATM   25  C   UNL     1      -2.996  -3.973   3.319  1.00  0.00     0.029 A 
ENDBRANCH  17  20
ENDBRANCH  15  16
ENDBRANCH   1  15
TORSDOF 3
