REMARK  8 active torsions:
REMARK  status: ('A' for Active; 'I' for Inactive)
REMARK    1  A    between atoms: N_4  and  C_6 
REMARK    2  A    between atoms: C_6  and  C_7 
REMARK       I    between atoms: C_7  and  N_8 
REMARK    3  A    between atoms: N_8  and  C_9 
REMARK    4  A    between atoms: C_15  and  C_16 
REMARK    5  A    between atoms: C_21  and  C_22 
REMARK       I    between atoms: C_22  and  N_23 
REMARK    6  A    between atoms: N_23  and  C_24 
REMARK    7  A    between atoms: C_25  and  O_26 
REMARK    8  A    between atoms: C_29  and  O_30 
ROOT
HETATM    1  C   UNL     1       0.554  -1.053   3.857  1.00  0.00     0.093 C 
HETATM    2  S   UNL     1       0.958  -2.676   4.135  1.00  0.00    -0.075 SA
HETATM    3  C   UNL     1       0.677  -3.088   2.521  1.00  0.00    -0.008 C 
HETATM    4  C   UNL     1       0.180  -2.035   1.773  1.00  0.00    -0.026 C 
HETATM    5  C   UNL     1      -0.231  -2.266   0.347  1.00  0.00     0.041 C 
HETATM    6  C   UNL     1      -0.217  -3.742  -0.067  1.00  0.00     0.010 C 
HETATM    7  C   UNL     1       0.966  -4.568   0.489  1.00  0.00    -0.002 C 
HETATM    8  C   UNL     1       0.936  -4.483   2.036  1.00  0.00     0.052 C 
HETATM    9  C   UNL     1       0.204  -0.787   2.531  1.00  0.00     0.073 C 
ENDROOT
BRANCH   9  10
HETATM   10  C   UNL     1       0.006   0.618   2.101  1.00  0.00     0.259 C 
HETATM   11  N   UNL     1       0.202   0.902   0.778  1.00  0.00    -0.320 N 
HETATM   12  H   UNL     1       0.857   1.660   0.609  1.00  0.00     0.169 HD
HETATM   13  O   UNL     1      -0.021   1.531   2.932  1.00  0.00    -0.267 OA
BRANCH  11  14
HETATM   14  C   UNL     1      -0.751   0.843  -0.265  1.00  0.00     0.068 A 
HETATM   15  C   UNL     1      -0.289   1.182  -1.554  1.00  0.00     0.097 A 
HETATM   16  C   UNL     1      -1.130   1.040  -2.661  1.00  0.00     0.075 A 
HETATM   17  C   UNL     1      -2.430   0.563  -2.489  1.00  0.00     0.070 A 
HETATM   18  C   UNL     1      -2.897   0.280  -1.201  1.00  0.00     0.039 A 
HETATM   19  C   UNL     1      -2.068   0.429  -0.085  1.00  0.00     0.035 A 
BRANCH  15  20
HETATM   20  O   UNL     1       1.009   1.639  -1.611  1.00  0.00    -0.354 OA
HETATM   21  C   UNL     1       1.672   1.509  -2.863  1.00  0.00     0.210 C 
ENDBRANCH  15  20
BRANCH  17  22
HETATM   22  O   UNL     1      -3.338   0.333  -3.487  1.00  0.00    -0.356 OA
HETATM   23  C   UNL     1      -2.898   0.531  -4.826  1.00  0.00     0.210 C 
ENDBRANCH  17  22
ENDBRANCH  11  14
ENDBRANCH   9  10
BRANCH   1  24
HETATM   24  N   UNL     1       0.740  -0.123   4.876  1.00  0.00    -0.319 N 
HETATM   25  C   UNL     1       0.851  -0.422   6.215  1.00  0.00     0.248 C 
HETATM   26  O   UNL     1       0.497  -1.452   6.791  1.00  0.00    -0.271 OA
HETATM   27  H   UNL     1       0.635   0.849   4.575  1.00  0.00     0.169 HD
BRANCH  25  28
HETATM   28  C   UNL     1       1.537   0.662   7.052  1.00  0.00     0.337 C 
BRANCH  28  29
HETATM   29  N   UNL     1       2.058   0.048   8.363  1.00  0.00    -0.062 N 
HETATM   30  C   UNL     1       3.258  -0.850   8.151  1.00  0.00     0.239 C 
HETATM   31  C   UNL     1       3.536  -1.616   9.446  1.00  0.00     0.007 C 
HETATM   32  C   UNL     1       4.739  -2.542   9.278  1.00  0.00     0.011 C 
HETATM   33  C   UNL     1       3.754  -0.645  10.613  1.00  0.00     0.007 C 
HETATM   34  C   UNL     1       2.581   0.322  10.756  1.00  0.00     0.028 C 
HETATM   35  C   UNL     1       2.273   1.051   9.454  1.00  0.00     0.235 C 
HETATM   36  H   UNL     1       1.288  -0.589   8.639  1.00  0.00     0.280 HD
ENDBRANCH  28  29
ENDBRANCH  25  28
ENDBRANCH   1  24
BRANCH   7  37
HETATM   37  C   UNL     1       2.369  -4.328  -0.194  1.00  0.00    -0.047 C 
HETATM   38  C   UNL     1       3.013  -2.961   0.093  1.00  0.00     0.015 C 
HETATM   39  C   UNL     1       3.367  -5.411   0.283  1.00  0.00     0.015 C 
HETATM   40  C   UNL     1       2.239  -4.479  -1.727  1.00  0.00     0.015 C 
ENDBRANCH   7  37
TORSDOF 8
