REMARK  6 active torsions:
REMARK  status: ('A' for Active; 'I' for Inactive)
REMARK    1  A    between atoms: C_2  and  C_3 
REMARK    2  A    between atoms: C_2  and  C_18 
REMARK       I    between atoms: C_3  and  N_4 
REMARK    3  A    between atoms: N_4  and  C_5 
REMARK    4  A    between atoms: C_9  and  C_10 
REMARK    5  A    between atoms: C_18  and  C_19 
REMARK    6  A    between atoms: C_22  and  O_23 
ROOT
HETATM    1  C   UNL     1       3.282   0.029  -1.547  1.00  0.00     0.227 C 
HETATM    2  N   UNL     1       3.131  -0.971  -2.497  1.00  0.00    -0.312 N 
HETATM    3  O   UNL     1       3.960   1.042  -1.713  1.00  0.00    -0.273 OA
HETATM    4  H   UNL     1       2.549  -1.776  -2.295  1.00  0.00     0.170 HD
ENDROOT
BRANCH   2   5
HETATM    5  C   UNL     1       3.824  -0.955  -3.689  1.00  0.00     0.126 A 
HETATM    6  N   UNL     1       4.672   0.043  -4.083  1.00  0.00    -0.262 N 
HETATM    7  H   UNL     1       4.887   0.894  -3.568  1.00  0.00     0.191 HD
HETATM    8  N   UNL     1       5.267  -0.192  -5.264  1.00  0.00    -0.172 NA
HETATM    9  C   UNL     1       4.781  -1.381  -5.661  1.00  0.00     0.092 A 
HETATM   10  C   UNL     1       3.855  -1.883  -4.700  1.00  0.00     0.084 A 
BRANCH   9  11
HETATM   11  C   UNL     1       5.218  -2.006  -6.910  1.00  0.00     0.012 A 
HETATM   12  C   UNL     1       4.602  -3.146  -7.420  1.00  0.00     0.130 A 
HETATM   13  N   UNL     1       4.976  -3.783  -8.560  1.00  0.00    -0.272 NA
HETATM   14  C   UNL     1       6.020  -3.254  -9.232  1.00  0.00     0.116 A 
HETATM   15  C   UNL     1       6.702  -2.122  -8.820  1.00  0.00     0.020 A 
HETATM   16  C   UNL     1       6.292  -1.493  -7.645  1.00  0.00     0.017 A 
ENDBRANCH   9  11
ENDBRANCH   2   5
BRANCH   1  17
HETATM   17  C   UNL     1       2.507  -0.254  -0.264  1.00  0.00     0.078 C 
HETATM   18  C   UNL     1       1.017   0.002  -0.501  1.00  0.00     0.020 C 
BRANCH  17  19
HETATM   19  C   UNL     1       3.061   0.592   0.896  1.00  0.00     0.052 C 
BRANCH  19  20
HETATM   20  C   UNL     1       2.724   0.003   2.246  1.00  0.00    -0.057 A 
HETATM   21  C   UNL     1       3.465  -1.076   2.745  1.00  0.00     0.010 A 
HETATM   22  C   UNL     1       3.140  -1.645   3.978  1.00  0.00     0.037 A 
HETATM   23  C   UNL     1       2.075  -1.150   4.733  1.00  0.00     0.068 A 
HETATM   24  C   UNL     1       1.339  -0.071   4.244  1.00  0.00     0.037 A 
HETATM   25  C   UNL     1       1.662   0.502   3.008  1.00  0.00     0.010 A 
BRANCH  23  26
HETATM   26  O   UNL     1       1.863  -1.804   5.915  1.00  0.00    -0.356 OA
HETATM   27  C   UNL     1       0.771  -1.358   6.709  1.00  0.00     0.210 C 
ENDBRANCH  23  26
ENDBRANCH  19  20
ENDBRANCH  17  19
ENDBRANCH   1  17
TORSDOF 6
