REMARK  5 active torsions:
REMARK  status: ('A' for Active; 'I' for Inactive)
REMARK    1  A    between atoms: C_2  and  O_3 
REMARK    2  A    between atoms: O_3  and  C_4 
REMARK    3  A    between atoms: C_8  and  C_9 
REMARK    4  A    between atoms: C_9  and  N_10 
REMARK       I    between atoms: N_10  and  C_11 
REMARK    5  A    between atoms: C_11  and  C_12 
ROOT
HETATM    1  C   UNL     1       0.541  -0.624   4.705  1.00  0.00     0.161 C 
ENDROOT
BRANCH   1   2
HETATM    2  C   UNL     1       1.557  -1.401   3.918  1.00  0.00    -0.035 A 
HETATM    3  C   UNL     1       2.080  -2.602   4.404  1.00  0.00     0.028 A 
HETATM    4  C   UNL     1       3.031  -3.263   3.643  1.00  0.00     0.120 A 
HETATM    5  N   UNL     1       3.490  -2.817   2.455  1.00  0.00    -0.237 NA
HETATM    6  C   UNL     1       2.978  -1.659   2.001  1.00  0.00     0.165 A 
HETATM    7  C   UNL     1       2.027  -0.922   2.693  1.00  0.00     0.066 A 
BRANCH   6   8
HETATM    8  O   UNL     1       3.369  -1.138   0.790  1.00  0.00    -0.324 OA
BRANCH   8   9
HETATM    9  C   UNL     1       4.380  -1.795   0.004  1.00  0.00     0.058 C 
HETATM   10  C   UNL     1       3.958  -3.193  -0.469  1.00  0.00     0.045 C 
HETATM   11  C   UNL     1       5.748  -1.800   0.699  1.00  0.00     0.045 C 
HETATM   12  C   UNL     1       4.500  -0.904  -1.249  1.00  0.00     0.045 C 
ENDBRANCH   8   9
ENDBRANCH   6   8
ENDBRANCH   1   2
BRANCH   1  13
HETATM   13  N   UNL     1       1.164   0.103   5.784  1.00  0.00    -0.353 N 
HETATM   14  C   UNL     1       0.466   1.070   6.470  1.00  0.00     0.255 C 
HETATM   15  O   UNL     1      -0.688   1.392   6.221  1.00  0.00    -0.268 OA
HETATM   16  H   UNL     1       2.126  -0.102   6.020  1.00  0.00     0.163 HD
BRANCH  14  17
HETATM   17  C   UNL     1       1.192   1.720   7.578  1.00  0.00     0.075 A 
HETATM   18  C   UNL     1       2.333   2.497   7.334  1.00  0.00     0.051 A 
HETATM   19 CL   UNL     1       2.984   2.733   5.750  1.00  0.00    -0.083 Cl
HETATM   20  C   UNL     1       2.989   3.133   8.394  1.00  0.00     0.025 A 
HETATM   21  C   UNL     1       2.508   3.007   9.697  1.00  0.00     0.003 A 
HETATM   22  C   UNL     1       1.372   2.238   9.943  1.00  0.00     0.025 A 
HETATM   23  C   UNL     1       0.713   1.594   8.890  1.00  0.00     0.051 A 
HETATM   24 CL   UNL     1      -0.652   0.614   9.299  1.00  0.00    -0.083 Cl
ENDBRANCH  14  17
ENDBRANCH   1  13
TORSDOF 5
