REMARK  8 active torsions:
REMARK  status: ('A' for Active; 'I' for Inactive)
REMARK    1  A    between atoms: O_2  and  C_3 
REMARK    2  A    between atoms: C_4  and  O_5 
REMARK    3  A    between atoms: C_8  and  C_9 
REMARK       I    between atoms: C_9  and  N_10 
REMARK    4  A    between atoms: N_10  and  N_11 
REMARK       I    between atoms: N_11  and  C_12 
REMARK    5  A    between atoms: C_12  and  C_13 
REMARK    6  A    between atoms: C_13  and  S_14 
REMARK    7  A    between atoms: S_14  and  C_15 
REMARK    8  A    between atoms: C_18  and  C_19 
ROOT
HETATM    1  N   UNL     1       6.598   3.808  -3.395  1.00  0.00    -0.267 N 
HETATM    2  C   UNL     1       7.926   3.811  -3.777  1.00  0.00     0.245 C 
HETATM    3  O   UNL     1       8.680   4.756  -3.533  1.00  0.00    -0.271 OA
HETATM    4  H   UNL     1       6.119   2.906  -3.259  1.00  0.00     0.190 HD
ENDROOT
BRANCH   2   5
HETATM    5  C   UNL     1       8.368   2.581  -4.545  1.00  0.00     0.187 C 
BRANCH   5   6
HETATM    6  S   UNL     1       9.087   1.344  -3.429  1.00  0.00    -0.083 SA
BRANCH   6   7
HETATM    7  C   UNL     1       7.663   0.709  -2.701  1.00  0.00     0.167 A 
HETATM    8  N   UNL     1       6.429   1.081  -2.926  1.00  0.00    -0.235 NA
HETATM    9  C   UNL     1       5.676   0.309  -2.073  1.00  0.00     0.149 A 
HETATM   10  C   UNL     1       6.466  -0.562  -1.339  1.00  0.00     0.062 A 
HETATM   11  N   UNL     1       7.744  -0.274  -1.764  1.00  0.00    -0.333 N 
HETATM   12  H   UNL     1       8.602  -0.684  -1.426  1.00  0.00     0.168 HD
BRANCH  10  13
HETATM   13  C   UNL     1       6.140  -1.553  -0.319  1.00  0.00    -0.008 A 
HETATM   14  C   UNL     1       6.908  -2.719  -0.170  1.00  0.00     0.017 A 
HETATM   15  C   UNL     1       6.586  -3.662   0.810  1.00  0.00     0.043 A 
HETATM   16  C   UNL     1       5.497  -3.442   1.642  1.00  0.00     0.116 A 
HETATM   17  F   UNL     1       5.189  -4.346   2.581  1.00  0.00    -0.206 F 
HETATM   18  C   UNL     1       4.720  -2.298   1.512  1.00  0.00     0.043 A 
HETATM   19  C   UNL     1       5.040  -1.356   0.531  1.00  0.00     0.017 A 
ENDBRANCH  10  13
ENDBRANCH   6   7
ENDBRANCH   5   6
ENDBRANCH   2   5
BRANCH   1  20
HETATM   20  N   UNL     1       6.166   4.863  -2.578  1.00  0.00    -0.263 N 
HETATM   21  C   UNL     1       4.973   4.732  -1.895  1.00  0.00     0.270 C 
HETATM   22  O   UNL     1       4.265   3.731  -1.979  1.00  0.00    -0.266 OA
HETATM   23  H   UNL     1       6.853   5.594  -2.412  1.00  0.00     0.190 HD
BRANCH  21  24
HETATM   24  C   UNL     1       4.564   5.870  -1.015  1.00  0.00     0.036 A 
HETATM   25  C   UNL     1       3.474   5.671  -0.150  1.00  0.00     0.056 A 
HETATM   26  C   UNL     1       3.008   6.694   0.691  1.00  0.00     0.102 A 
HETATM   27  C   UNL     1       3.673   7.932   0.683  1.00  0.00     0.101 A 
HETATM   28  C   UNL     1       4.743   8.135  -0.198  1.00  0.00     0.040 A 
HETATM   29  C   UNL     1       5.189   7.118  -1.045  1.00  0.00     0.020 A 
BRANCH  26  30
HETATM   30  O   UNL     1       1.923   6.549   1.514  1.00  0.00    -0.353 OA
HETATM   31  C   UNL     1       1.107   5.396   1.349  1.00  0.00     0.210 C 
ENDBRANCH  26  30
BRANCH  27  32
HETATM   32  O   UNL     1       3.381   9.050   1.420  1.00  0.00    -0.353 OA
HETATM   33  C   UNL     1       2.696   8.869   2.652  1.00  0.00     0.210 C 
ENDBRANCH  27  32
ENDBRANCH  21  24
ENDBRANCH   1  20
TORSDOF 8
