REMARK  3 active torsions:
REMARK  status: ('A' for Active; 'I' for Inactive)
REMARK    1  A    between atoms: N_6  and  C_7 
REMARK    2  A    between atoms: C_7  and  C_8 
REMARK    3  A    between atoms: N_10  and  C_11 
ROOT
HETATM    1  C   UNL     1       7.583   0.373   1.962  1.00  0.00     0.073 A 
HETATM    2  C   UNL     1       8.855   1.000   1.952  1.00  0.00     0.062 A 
HETATM    3 CL   UNL     1       9.124   2.632   2.461  1.00  0.00    -0.082 Cl
HETATM    4  C   UNL     1      10.016   0.296   1.587  1.00  0.00     0.026 A 
HETATM    5  C   UNL     1       9.959  -1.051   1.254  1.00  0.00     0.003 A 
HETATM    6  C   UNL     1       8.739  -1.708   1.294  1.00  0.00     0.025 A 
HETATM    7  C   UNL     1       7.565  -1.014   1.640  1.00  0.00     0.072 A 
HETATM    8  C   UNL     1       6.347  -1.780   1.659  1.00  0.00     0.102 C 
HETATM    9  N   UNL     1       5.392  -2.442   1.702  1.00  0.00    -0.191 NA
ENDROOT
BRANCH   1  10
HETATM   10  N   UNL     1       6.357   1.011   2.256  1.00  0.00    -0.378 N 
HETATM   11  C   UNL     1       5.964   0.954   3.675  1.00  0.00     0.129 C 
HETATM   12  C   UNL     1       4.434   1.171   3.782  1.00  0.00     0.032 C 
HETATM   13  C   UNL     1       4.057   2.509   3.120  1.00  0.00     0.009 C 
HETATM   14  C   UNL     1       4.589   2.615   1.687  1.00  0.00     0.020 C 
HETATM   15  C   UNL     1       6.091   2.321   1.631  1.00  0.00     0.123 C 
BRANCH  12  16
HETATM   16  C   UNL     1       3.695  -0.030   3.148  1.00  0.00     0.278 C 
BRANCH  16  17
HETATM   17  N   UNL     1       2.219   0.032   3.218  1.00  0.00     0.092 N 
HETATM   18  C   UNL     1       1.693  -0.383   4.533  1.00  0.00     0.300 C 
HETATM   19  C   UNL     1       1.801  -1.894   4.841  1.00  0.00     0.264 C 
HETATM   20  N   UNL     1       1.212  -2.723   3.711  1.00  0.00    -0.072 N 
HETATM   21  C   UNL     1       1.379  -4.193   3.953  1.00  0.00     0.269 C 
HETATM   22  H   UNL     1       0.205  -2.519   3.682  1.00  0.00     0.279 HD
HETATM   23  C   UNL     1       1.774  -2.318   2.355  1.00  0.00     0.264 C 
HETATM   24  C   UNL     1       1.614  -0.799   2.152  1.00  0.00     0.300 C 
ENDBRANCH  16  17
ENDBRANCH  12  16
ENDBRANCH   1  10
TORSDOF 3
