REMARK  4 active torsions:
REMARK  status: ('A' for Active; 'I' for Inactive)
REMARK    1  A    between atoms: N_4  and  C_5 
REMARK    2  A    between atoms: C_16  and  C_17 
REMARK    3  A    between atoms: C_24  and  C_25 
REMARK    4  A    between atoms: C_25  and  O_26 
ROOT
HETATM    1  C   UNL     1       1.106  -0.129   0.527  1.00  0.00     0.073 C 
HETATM    2  C   UNL     1       2.586  -0.225   0.459  1.00  0.00     0.065 A 
HETATM    3  N   UNL     1       3.333   0.880   0.517  1.00  0.00    -0.170 NA
HETATM    4  N   UNL     1       4.627   0.448   0.414  1.00  0.00    -0.215 N 
HETATM    5  C   UNL     1       4.685  -0.944   0.329  1.00  0.00     0.165 A 
HETATM    6  C   UNL     1       3.371  -1.391   0.325  1.00  0.00     0.039 A 
HETATM    7  N   UNL     1       5.779  -1.733   0.236  1.00  0.00    -0.216 NA
HETATM    8  C   UNL     1       5.510  -3.049   0.105  1.00  0.00     0.137 A 
HETATM    9 CL   UNL     1       6.967  -3.963  -0.033  1.00  0.00    -0.062 Cl
HETATM   10  C   UNL     1       4.244  -3.633   0.061  1.00  0.00     0.011 A 
HETATM   11  C   UNL     1       3.138  -2.770   0.189  1.00  0.00     0.030 A 
ENDROOT
BRANCH  10  12
HETATM   12  C   UNL     1       4.026  -5.118  -0.162  1.00  0.00     0.164 C 
HETATM   13  N   UNL     1       3.396  -5.291  -1.463  1.00  0.00    -0.330 N 
HETATM   14  C   UNL     1       2.440  -6.207  -1.746  1.00  0.00     0.321 C 
HETATM   15  H   UNL     1       3.831  -4.884  -2.280  1.00  0.00     0.165 HD
HETATM   16  O   UNL     1       2.082  -6.424  -2.898  1.00  0.00    -0.247 OA
HETATM   17  N   UNL     1       1.882  -6.847  -0.683  1.00  0.00    -0.312 N 
HETATM   18  C   UNL     1       2.221  -6.651   0.636  1.00  0.00     0.024 C 
HETATM   19  H   UNL     1       1.144  -7.498  -0.928  1.00  0.00     0.170 HD
HETATM   20  C   UNL     1       1.432  -7.463   1.627  1.00  0.00     0.069 C 
HETATM   21  C   UNL     1       3.236  -5.813   0.917  1.00  0.00     0.067 C 
BRANCH  21  22
HETATM   22  C   UNL     1       3.637  -5.566   2.319  1.00  0.00     0.293 C 
HETATM   23  O   UNL     1       2.856  -5.346   3.230  1.00  0.00    -0.259 OA
BRANCH  22  24
HETATM   24  O   UNL     1       4.987  -5.621   2.415  1.00  0.00    -0.323 OA
HETATM   25  C   UNL     1       5.484  -5.386   3.734  1.00  0.00     0.213 C 
ENDBRANCH  22  24
ENDBRANCH  21  22
ENDBRANCH  10  12
BRANCH   4  26
HETATM   26  C   UNL     1       5.689   1.405   0.375  1.00  0.00     0.060 A 
HETATM   27  C   UNL     1       5.376   2.776   0.393  1.00  0.00     0.031 A 
HETATM   28  C   UNL     1       6.388   3.738   0.326  1.00  0.00     0.002 A 
HETATM   29  C   UNL     1       7.721   3.344   0.247  1.00  0.00     0.000 A 
HETATM   30  C   UNL     1       8.043   1.989   0.237  1.00  0.00     0.002 A 
HETATM   31  C   UNL     1       7.034   1.021   0.300  1.00  0.00     0.031 A 
ENDBRANCH   4  26
TORSDOF 4
