REMARK  8 active torsions:
REMARK  status: ('A' for Active; 'I' for Inactive)
REMARK    1  A    between atoms: C_2  and  C_3 
REMARK    2  A    between atoms: C_3  and  N_4 
REMARK    3  A    between atoms: C_7  and  C_8 
REMARK       I    between atoms: C_8  and  N_9 
REMARK    4  A    between atoms: N_9  and  N_10 
REMARK       I    between atoms: N_10  and  C_11 
REMARK    5  A    between atoms: C_11  and  C_12 
REMARK    6  A    between atoms: C_12  and  O_13 
REMARK    7  A    between atoms: O_13  and  C_14 
REMARK    8  A    between atoms: C_23  and  C_24 
ROOT
HETATM    1  C   UNL     1       1.503  -0.678  -5.076  1.00  0.00     0.273 C 
HETATM    2  N   UNL     1       0.581  -1.487  -5.734  1.00  0.00    -0.263 N 
HETATM    3  O   UNL     1       1.732   0.445  -5.518  1.00  0.00    -0.266 OA
HETATM    4  H   UNL     1      -0.018  -0.987  -6.385  1.00  0.00     0.190 HD
ENDROOT
BRANCH   2   5
HETATM    5  N   UNL     1       0.077  -2.677  -5.190  1.00  0.00    -0.265 N 
HETATM    6  C   UNL     1      -0.791  -2.642  -4.109  1.00  0.00     0.260 C 
HETATM    7  O   UNL     1      -1.237  -1.607  -3.621  1.00  0.00    -0.269 OA
HETATM    8  H   UNL     1       0.324  -3.554  -5.639  1.00  0.00     0.190 HD
BRANCH   6   9
HETATM    9  C   UNL     1      -1.073  -4.023  -3.533  1.00  0.00     0.280 C 
BRANCH   9  10
HETATM   10  O   UNL     1      -1.756  -4.797  -4.518  1.00  0.00    -0.342 OA
BRANCH  10  11
HETATM   11  C   UNL     1      -2.270  -5.972  -4.037  1.00  0.00     0.069 A 
HETATM   12  C   UNL     1      -3.536  -6.330  -4.508  1.00  0.00     0.043 A 
HETATM   13  C   UNL     1      -4.141  -7.524  -4.091  1.00  0.00    -0.059 A 
HETATM   14  C   UNL     1      -5.501  -7.916  -4.590  1.00  0.00     0.048 C 
HETATM   15  C   UNL     1      -3.443  -8.374  -3.226  1.00  0.00     0.007 A 
HETATM   16  C   UNL     1      -2.169  -8.029  -2.774  1.00  0.00     0.003 A 
HETATM   17  C   UNL     1      -1.581  -6.829  -3.179  1.00  0.00     0.037 A 
ENDBRANCH  10  11
ENDBRANCH   9  10
ENDBRANCH   6   9
ENDBRANCH   2   5
BRANCH   1  18
HETATM   18  C   UNL     1       2.175  -1.237  -3.912  1.00  0.00     0.077 A 
HETATM   19  C   UNL     1       2.798  -2.506  -3.852  1.00  0.00     0.158 A 
HETATM   20  N   UNL     1       3.222  -2.828  -2.634  1.00  0.00    -0.183 NA
HETATM   21  N   UNL     1       2.970  -1.721  -1.906  1.00  0.00    -0.268 N 
HETATM   22  C   UNL     1       2.331  -0.729  -2.627  1.00  0.00     0.052 A 
BRANCH  21  23
HETATM   23  C   UNL     1       3.284  -1.714  -0.475  1.00  0.00     0.106 C 
HETATM   24  C   UNL     1       2.053  -2.152   0.325  1.00  0.00     0.034 C 
BRANCH  23  25
HETATM   25  C   UNL     1       4.503  -2.577  -0.083  1.00  0.00     0.022 C 
HETATM   26  C   UNL     1       5.812  -2.070  -0.675  1.00  0.00     0.007 C 
ENDBRANCH  23  25
ENDBRANCH  21  23
BRANCH  22  27
HETATM   27  C   UNL     1       1.859   0.594  -2.013  1.00  0.00     0.038 A 
HETATM   28  C   UNL     1       1.997   1.888  -2.778  1.00  0.00     0.011 A 
HETATM   29  C   UNL     1       0.641   1.303  -2.555  1.00  0.00     0.011 A 
ENDBRANCH  22  27
ENDBRANCH   1  18
TORSDOF 8
