REMARK  8 active torsions:
REMARK  status: ('A' for Active; 'I' for Inactive)
REMARK    1  A    between atoms: O_2  and  C_3 
REMARK    2  A    between atoms: C_5  and  N_6 
REMARK       I    between atoms: N_6  and  C_7 
REMARK    3  A    between atoms: C_7  and  C_8 
REMARK       I    between atoms: C_8  and  N_9 
REMARK    4  A    between atoms: N_9  and  C_10 
REMARK    5  A    between atoms: C_10  and  C_11 
REMARK    6  A    between atoms: C_11  and  S_12 
REMARK    7  A    between atoms: S_12  and  C_13 
REMARK    8  A    between atoms: C_26  and  O_27 
ROOT
HETATM    1  C   UNL     1       2.383   4.501   1.113  1.00  0.00     0.309 C 
HETATM    2  N   UNL     1       1.179   4.646   1.769  1.00  0.00    -0.351 N 
HETATM    3  O   UNL     1       3.253   5.353   1.003  1.00  0.00    -0.262 OA
HETATM    4  H   UNL     1       0.531   3.871   1.650  1.00  0.00     0.162 HD
ENDROOT
BRANCH   1   5
HETATM    5  C   UNL     1       2.569   3.114   0.458  1.00  0.00     0.314 C 
HETATM    6  N   UNL     1       3.864   2.907   0.048  1.00  0.00    -0.316 N 
HETATM    7  H   UNL     1       4.521   3.659   0.257  1.00  0.00     0.169 HD
HETATM    8  O   UNL     1       1.600   2.372   0.373  1.00  0.00    -0.262 OA
BRANCH   6   9
HETATM    9  C   UNL     1       4.415   1.795  -0.619  1.00  0.00     0.071 A 
HETATM   10  C   UNL     1       3.651   0.709  -1.060  1.00  0.00     0.069 A 
HETATM   11  C   UNL     1       4.262  -0.351  -1.733  1.00  0.00     0.070 A 
HETATM   12  C   UNL     1       5.643  -0.334  -1.935  1.00  0.00     0.039 A 
HETATM   13  C   UNL     1       6.416   0.745  -1.501  1.00  0.00     0.042 A 
HETATM   14  C   UNL     1       5.808   1.818  -0.849  1.00  0.00     0.095 A 
BRANCH  11  15
HETATM   15  O   UNL     1       3.628  -1.458  -2.229  1.00  0.00    -0.356 OA
HETATM   16  C   UNL     1       2.210  -1.387  -2.326  1.00  0.00     0.210 C 
ENDBRANCH  11  15
BRANCH  14  17
HETATM   17  O   UNL     1       6.464   2.935  -0.388  1.00  0.00    -0.354 OA
HETATM   18  C   UNL     1       7.871   2.991  -0.591  1.00  0.00     0.210 C 
ENDBRANCH  14  17
ENDBRANCH   6   9
ENDBRANCH   1   5
BRANCH   2  19
HETATM   19  C   UNL     1       0.717   5.939   2.240  1.00  0.00     0.144 C 
BRANCH  19  20
HETATM   20  C   UNL     1      -0.158   5.915   3.535  1.00  0.00     0.033 C 
HETATM   21  C   UNL     1      -0.630   7.354   3.840  1.00  0.00     0.049 C 
HETATM   22  C   UNL     1      -1.676   7.829   2.833  1.00  0.00     0.169 C 
HETATM   23  O   UNL     1      -2.771   6.919   2.768  1.00  0.00    -0.391 OA
HETATM   24  C   UNL     1      -2.386   5.604   2.374  1.00  0.00     0.169 C 
HETATM   25  C   UNL     1      -1.397   5.012   3.373  1.00  0.00     0.049 C 
BRANCH  20  26
HETATM   26  S   UNL     1       0.970   5.264   4.885  1.00  0.00    -0.118 SA
BRANCH  26  27
HETATM   27  C   UNL     1       0.004   5.439   6.371  1.00  0.00     0.001 A 
HETATM   28  C   UNL     1      -0.804   4.390   6.818  1.00  0.00     0.018 A 
HETATM   29  C   UNL     1      -1.536   4.517   8.000  1.00  0.00     0.001 A 
HETATM   30  C   UNL     1      -1.450   5.688   8.752  1.00  0.00     0.000 A 
HETATM   31  C   UNL     1      -0.623   6.726   8.329  1.00  0.00     0.001 A 
HETATM   32  C   UNL     1       0.111   6.598   7.147  1.00  0.00     0.018 A 
ENDBRANCH  26  27
ENDBRANCH  20  26
ENDBRANCH  19  20
ENDBRANCH   2  19
TORSDOF 8
