REMARK  4 active torsions:
REMARK  status: ('A' for Active; 'I' for Inactive)
REMARK    1  A    between atoms: O_2  and  C_3 
REMARK    2  A    between atoms: C_3  and  C_4 
REMARK    3  A    between atoms: N_11  and  C_13 
REMARK    4  A    between atoms: C_13  and  C_14 
ROOT
HETATM    1  C   UNL     1       2.125   2.081  -1.754  1.00  0.00     0.290 C 
HETATM    2  N   UNL     1       2.510   1.466  -3.153  1.00  0.00    -0.047 N 
HETATM    3  H   UNL     1       1.983   2.041  -3.824  1.00  0.00     0.279 HD
HETATM    4  H   UNL     1       2.094   0.526  -3.144  1.00  0.00     0.279 HD
HETATM    5  C   UNL     1       3.991   1.478  -3.552  1.00  0.00     0.172 C 
HETATM    6  C   UNL     1       4.802   0.337  -2.907  1.00  0.00     0.073 C 
HETATM    7  C   UNL     1       4.397  -1.055  -3.368  1.00  0.00     0.238 C 
HETATM    8  N   UNL     1       4.490  -1.131  -4.874  1.00  0.00    -0.067 N 
HETATM    9  H   UNL     1       5.485  -1.040  -5.131  1.00  0.00     0.280 HD
HETATM   10  C   UNL     1       3.693  -0.072  -5.584  1.00  0.00     0.238 C 
HETATM   11  C   UNL     1       4.069   1.320  -5.088  1.00  0.00     0.073 C 
HETATM   12  C   UNL     1       4.545   2.804  -3.113  1.00  0.00     0.053 A 
HETATM   13  C   UNL     1       3.953   3.712  -2.252  1.00  0.00    -0.018 A 
HETATM   14  C   UNL     1       2.608   3.530  -1.645  1.00  0.00     0.085 C 
HETATM   15  N   UNL     1       5.774   3.320  -3.461  1.00  0.00    -0.356 N 
HETATM   16  H   UNL     1       6.473   2.903  -4.064  1.00  0.00     0.166 HD
HETATM   17  C   UNL     1       5.965   4.543  -2.860  1.00  0.00     0.043 A 
HETATM   18  C   UNL     1       4.834   4.816  -2.094  1.00  0.00    -0.001 A 
HETATM   19  C   UNL     1       7.052   5.421  -2.939  1.00  0.00     0.030 A 
HETATM   20  C   UNL     1       6.975   6.613  -2.214  1.00  0.00     0.002 A 
HETATM   21  C   UNL     1       5.857   6.913  -1.441  1.00  0.00     0.001 A 
HETATM   22  C   UNL     1       4.778   6.024  -1.372  1.00  0.00     0.014 A 
ENDROOT
BRANCH   1  23
HETATM   23  C   UNL     1       2.514   1.135  -0.622  1.00  0.00     0.289 C 
HETATM   24  O   UNL     1       2.684  -0.062  -0.852  1.00  0.00    -0.263 OA
BRANCH  23  25
HETATM   25  O   UNL     1       2.574   1.737   0.581  1.00  0.00    -0.325 OA
HETATM   26  C   UNL     1       2.921   0.883   1.679  1.00  0.00     0.213 C 
ENDBRANCH  23  25
ENDBRANCH   1  23
BRANCH   8  27
HETATM   27  C   UNL     1       4.122  -2.526  -5.412  1.00  0.00     0.273 C 
BRANCH  27  28
HETATM   28  C   UNL     1       4.970  -3.630  -4.851  1.00  0.00    -0.033 A 
HETATM   29  C   UNL     1       4.417  -4.560  -3.957  1.00  0.00     0.009 A 
HETATM   30  C   UNL     1       5.205  -5.575  -3.414  1.00  0.00     0.001 A 
HETATM   31  C   UNL     1       6.551  -5.672  -3.758  1.00  0.00     0.000 A 
HETATM   32  C   UNL     1       7.109  -4.761  -4.652  1.00  0.00     0.001 A 
HETATM   33  C   UNL     1       6.325  -3.745  -5.200  1.00  0.00     0.009 A 
ENDBRANCH  27  28
ENDBRANCH   8  27
TORSDOF 4
