REMARK  4 active torsions:
REMARK  status: ('A' for Active; 'I' for Inactive)
REMARK    1  A    between atoms: C_2  and  C_3 
REMARK    2  A    between atoms: C_6  and  N_7 
REMARK       I    between atoms: N_7  and  C_8 
REMARK       I    between atoms: C_8  and  N_9 
REMARK    3  A    between atoms: N_9  and  C_10 
REMARK       I    between atoms: N_19  and  C_20 
REMARK       I    between atoms: C_20  and  N_21 
REMARK    4  A    between atoms: N_21  and  C_22 
ROOT
HETATM    1  C   UNL     1       5.523   2.128  -3.201  1.00  0.00     0.105 A 
HETATM    2  C   UNL     1       6.187   2.082  -1.843  1.00  0.00     0.274 A 
HETATM    3  O   UNL     1       6.781   3.087  -1.442  1.00  0.00    -0.265 OA
HETATM    4  N   UNL     1       6.062   0.895  -1.108  1.00  0.00    -0.315 N 
HETATM    5  C   UNL     1       5.334  -0.194  -1.581  1.00  0.00     0.020 A 
HETATM    6  C   UNL     1       5.144  -1.411  -0.694  1.00  0.00     0.054 C 
HETATM    7  C   UNL     1       5.157  -1.018   0.778  1.00  0.00     0.020 C 
HETATM    8  C   UNL     1       6.512  -0.387   1.056  1.00  0.00     0.023 C 
HETATM    9  C   UNL     1       7.636  -1.401   0.800  1.00  0.00     0.134 C 
HETATM   10  N   UNL     1       7.562  -2.110  -0.477  1.00  0.00    -0.333 N 
HETATM   11  C   UNL     1       8.730  -2.761  -0.874  1.00  0.00     0.318 C 
HETATM   12  N   UNL     1       8.598  -3.614  -1.941  1.00  0.00    -0.338 N 
HETATM   13  O   UNL     1       9.810  -2.580  -0.316  1.00  0.00    -0.247 OA
HETATM   14  C   UNL     1       6.227  -2.467  -0.968  1.00  0.00     0.138 C 
HETATM   15  C   UNL     1       6.671   0.893   0.223  1.00  0.00     0.138 C 
HETATM   16  C   UNL     1       4.777  -0.144  -2.802  1.00  0.00     0.028 A 
HETATM   17  C   UNL     1       4.894   1.026  -3.631  1.00  0.00     0.037 A 
HETATM   18  H   UNL     1       7.688  -4.005  -2.099  1.00  0.00     0.164 HD
ENDROOT
BRANCH   1  19
HETATM   19  N   UNL     1       5.598   3.343  -3.860  1.00  0.00    -0.304 N 
HETATM   20  C   UNL     1       5.029   3.698  -5.045  1.00  0.00     0.325 C 
HETATM   21  N   UNL     1       5.094   5.006  -5.422  1.00  0.00    -0.309 N 
HETATM   22  O   UNL     1       4.374   2.944  -5.765  1.00  0.00    -0.247 OA
HETATM   23  H   UNL     1       4.417   5.181  -6.156  1.00  0.00     0.170 HD
HETATM   24  H   UNL     1       5.993   4.079  -3.287  1.00  0.00     0.171 HD
BRANCH  21  25
HETATM   25  C   UNL     1       5.851   6.111  -5.007  1.00  0.00     0.036 A 
HETATM   26  C   UNL     1       7.074   6.034  -4.338  1.00  0.00     0.030 A 
HETATM   27  C   UNL     1       7.768   7.204  -3.989  1.00  0.00     0.017 A 
HETATM   28  C   UNL     1       7.251   8.462  -4.320  1.00  0.00     0.009 A 
HETATM   29  C   UNL     1       6.037   8.538  -5.008  1.00  0.00     0.017 A 
HETATM   30  C   UNL     1       5.354   7.372  -5.360  1.00  0.00     0.030 A 
BRANCH  28  31
HETATM   31  C   UNL     1       7.949   9.737  -3.980  1.00  0.00     0.155 C 
HETATM   32  C   UNL     1       9.367   9.681  -3.475  1.00  0.00     0.096 C 
HETATM   33  O   UNL     1       7.363  10.809  -4.115  1.00  0.00    -0.293 OA
ENDBRANCH  28  31
ENDBRANCH  21  25
ENDBRANCH   1  19
BRANCH  12  34
HETATM   34  C   UNL     1       9.719  -4.418  -2.421  1.00  0.00     0.086 C 
HETATM   35  C   UNL     1       9.838  -5.727  -1.626  1.00  0.00     0.025 C 
HETATM   36  C   UNL     1       8.716  -6.715  -1.949  1.00  0.00     0.002 C 
HETATM   37  C   UNL     1       8.610  -6.980  -3.448  1.00  0.00     0.000 C 
HETATM   38  C   UNL     1       8.460  -5.688  -4.243  1.00  0.00     0.002 C 
HETATM   39  C   UNL     1       9.576  -4.694  -3.923  1.00  0.00     0.025 C 
ENDBRANCH  12  34
TORSDOF 4
