REMARK  6 active torsions:
REMARK  status: ('A' for Active; 'I' for Inactive)
REMARK    1  A    between atoms: C_2  and  O_3 
REMARK    2  A    between atoms: O_3  and  C_4 
REMARK    3  A    between atoms: C_5  and  O_6 
REMARK    4  A    between atoms: O_6  and  C_7 
REMARK    5  A    between atoms: C_7  and  C_8 
REMARK    6  A    between atoms: C_18  and  C_19 
ROOT
HETATM    1  C   UNL     1       4.471   1.527   0.140  1.00  0.00     0.103 A 
HETATM    2  C   UNL     1       4.994   2.808   0.372  1.00  0.00     0.112 A 
HETATM    3  C   UNL     1       6.364   3.013   0.528  1.00  0.00     0.041 A 
HETATM    4  C   UNL     1       7.233   1.928   0.450  1.00  0.00     0.014 A 
HETATM    5  C   UNL     1       6.745   0.635   0.199  1.00  0.00    -0.013 A 
HETATM    6  C   UNL     1       5.354   0.445   0.058  1.00  0.00     0.050 A 
ENDROOT
BRANCH   5   7
HETATM    7  C   UNL     1       7.725  -0.493  -0.023  1.00  0.00     0.219 C 
HETATM    8  N   UNL     1       7.754  -0.871  -1.412  1.00  0.00    -0.332 N 
HETATM    9  C   UNL     1       8.422  -1.991  -1.830  1.00  0.00     0.256 C 
HETATM   10  H   UNL     1       7.679  -0.140  -2.105  1.00  0.00     0.165 HD
HETATM   11  O   UNL     1       8.788  -2.141  -2.990  1.00  0.00    -0.267 OA
HETATM   12  C   UNL     1       8.646  -2.990  -0.796  1.00  0.00     0.073 A 
HETATM   13  C   UNL     1       8.104  -2.785   0.454  1.00  0.00     0.088 A 
HETATM   14  C   UNL     1       9.372  -4.218  -0.870  1.00  0.00    -0.023 A 
HETATM   15  S   UNL     1       8.431  -4.066   1.522  1.00  0.00    -0.074 SA
HETATM   16  N   UNL     1       7.404  -1.668   0.770  1.00  0.00    -0.358 N 
HETATM   17  C   UNL     1       9.329  -4.896   0.335  1.00  0.00     0.018 A 
HETATM   18  C   UNL     1      10.008  -6.194   0.611  1.00  0.00     0.281 C 
HETATM   19  N   UNL     1      10.452  -6.879  -0.679  1.00  0.00    -0.070 N 
HETATM   20  C   UNL     1      11.075  -5.888  -1.660  1.00  0.00     0.239 C 
HETATM   21  H   UNL     1      11.199  -7.530  -0.410  1.00  0.00     0.279 HD
HETATM   22  C   UNL     1       9.367  -7.718  -1.291  1.00  0.00     0.270 C 
HETATM   23  C   UNL     1      10.094  -4.772  -2.062  1.00  0.00     0.068 C 
HETATM   24  H   UNL     1       7.231  -1.465   1.752  1.00  0.00     0.162 HD
ENDBRANCH   5   7
BRANCH   1  25
HETATM   25  O   UNL     1       3.113   1.457  -0.022  1.00  0.00    -0.349 OA
BRANCH  25  26
HETATM   26  C   UNL     1       2.529   0.169  -0.197  1.00  0.00     0.171 C 
HETATM   27  C   UNL     1       1.024   0.351  -0.293  1.00  0.00     0.034 C 
ENDBRANCH  25  26
ENDBRANCH   1  25
BRANCH   2  28
HETATM   28  O   UNL     1       4.088   3.893   0.291  1.00  0.00    -0.272 OA
BRANCH  28  29
HETATM   29  C   UNL     1       4.260   5.061   1.013  1.00  0.00     0.298 C 
HETATM   30  O   UNL     1       5.076   5.270   1.897  1.00  0.00    -0.259 OA
BRANCH  29  31
HETATM   31  C   UNL     1       3.337   6.097   0.475  1.00  0.00     0.040 A 
HETATM   32  C   UNL     1       3.625   7.443   0.742  1.00  0.00     0.019 A 
HETATM   33  C   UNL     1       2.817   8.454   0.215  1.00  0.00     0.020 A 
HETATM   34  C   UNL     1       1.716   8.119  -0.572  1.00  0.00     0.011 A 
HETATM   35 BR   UNL     1       0.632   9.486  -1.299  1.00  0.00    -0.051 Br
HETATM   36  C   UNL     1       1.411   6.784  -0.833  1.00  0.00     0.020 A 
HETATM   37  C   UNL     1       2.220   5.771  -0.309  1.00  0.00     0.019 A 
ENDBRANCH  29  31
ENDBRANCH  28  29
ENDBRANCH   2  28
TORSDOF 6
