REMARK  2 active torsions:
REMARK  status: ('A' for Active; 'I' for Inactive)
REMARK       I    between atoms: N_4  and  C_5 
REMARK       I    between atoms: C_5  and  N_6 
REMARK    1  A    between atoms: N_6  and  C_7 
REMARK    2  A    between atoms: C_20  and  C_21 
ROOT
HETATM    1  C   UNL     1       0.908  -0.330   0.145  1.00  0.00     0.011 C 
HETATM    2  C   UNL     1       2.426  -0.282   0.190  1.00  0.00     0.002 C 
HETATM    3  C   UNL     1       2.963   0.905   0.981  1.00  0.00     0.132 C 
HETATM    4  N   UNL     1       4.273   0.460   1.418  1.00  0.00    -0.325 N 
HETATM    5  C   UNL     1       5.455   1.174   1.343  1.00  0.00     0.323 C 
HETATM    6  N   UNL     1       5.274   2.537   1.265  1.00  0.00    -0.309 N 
HETATM    7  O   UNL     1       6.549   0.617   1.352  1.00  0.00    -0.247 OA
HETATM    8  C   UNL     1       4.289  -0.986   1.613  1.00  0.00     0.125 C 
HETATM    9  C   UNL     1       3.047  -1.512   0.867  1.00  0.00     0.036 C 
HETATM   10  H   UNL     1       4.437   2.874   1.717  1.00  0.00     0.170 HD
ENDROOT
BRANCH   6  11
HETATM   11  C   UNL     1       6.247   3.493   0.915  1.00  0.00     0.038 A 
HETATM   12  C   UNL     1       7.418   3.168   0.224  1.00  0.00     0.062 A 
HETATM   13  C   UNL     1       8.323   4.171  -0.133  1.00  0.00     0.070 A 
HETATM   14  C   UNL     1       8.071   5.502   0.199  1.00  0.00     0.096 A 
HETATM   15  N   UNL     1       9.459   3.836  -0.868  1.00  0.00    -0.323 N 
HETATM   16  O   UNL     1       8.892   6.540  -0.140  1.00  0.00    -0.335 OA
HETATM   17  C   UNL     1       6.898   5.833   0.874  1.00  0.00     0.041 A 
HETATM   18  C   UNL     1      10.187   6.165  -0.605  1.00  0.00     0.217 C 
HETATM   19  C   UNL     1      10.385   4.774  -1.226  1.00  0.00     0.251 C 
HETATM   20  C   UNL     1      11.174   6.334   0.547  1.00  0.00     0.050 C 
HETATM   21  O   UNL     1      11.346   4.485  -1.936  1.00  0.00    -0.270 OA
HETATM   22  C   UNL     1       5.986   4.833   1.226  1.00  0.00     0.032 A 
HETATM   23  H   UNL     1       9.606   2.891  -1.197  1.00  0.00     0.169 HD
ENDBRANCH   6  11
BRANCH   8  24
HETATM   24  C   UNL     1       4.343  -1.325   3.092  1.00  0.00     0.003 A 
HETATM   25  C   UNL     1       3.226  -1.248   3.933  1.00  0.00     0.124 A 
HETATM   26  F   UNL     1       2.035  -0.860   3.452  1.00  0.00    -0.205 F 
HETATM   27  C   UNL     1       3.309  -1.552   5.290  1.00  0.00     0.043 A 
HETATM   28  C   UNL     1       4.531  -1.921   5.845  1.00  0.00     0.003 A 
HETATM   29  C   UNL     1       5.665  -1.974   5.037  1.00  0.00     0.001 A 
HETATM   30  C   UNL     1       5.573  -1.677   3.674  1.00  0.00     0.012 A 
ENDBRANCH   8  24
TORSDOF 2
