REMARK  10 active torsions:
REMARK  status: ('A' for Active; 'I' for Inactive)
REMARK    1  A    between atoms: C_6  and  C_7 
REMARK    2  A    between atoms: C_7  and  C_8 
REMARK       I    between atoms: C_8  and  N_9 
REMARK    3  A    between atoms: N_9  and  C_10 
REMARK    4  A    between atoms: C_10  and  C_11 
REMARK    5  A    between atoms: C_11  and  N_12 
REMARK    6  A    between atoms: C_17  and  C_18 
REMARK    7  A    between atoms: C_27  and  C_28 
REMARK    8  A    between atoms: C_28  and  O_29 
REMARK    9  A    between atoms: O_29  and  C_30 
REMARK   10  A    between atoms: C_30  and  C_31 
ROOT
HETATM    1  C   UNL     1       1.287   0.817  -1.652  1.00  0.00     0.071 C 
HETATM    2  C   UNL     1       2.762   0.974  -1.356  1.00  0.00     0.048 C 
HETATM    3  N   UNL     1       3.553   0.864  -2.490  1.00  0.00    -0.229 NA
HETATM    4  C   UNL     1       4.739   1.364  -2.421  1.00  0.00     0.170 C 
HETATM    5  N   UNL     1       5.444   1.774  -1.096  1.00  0.00    -0.318 N 
HETATM    6  C   UNL     1       6.538   2.423  -1.313  1.00  0.00     0.011 C 
HETATM    7  C   UNL     1       4.776   1.200   0.090  1.00  0.00     0.168 C 
HETATM    8  S   UNL     1       5.743   1.697  -3.790  1.00  0.00    -0.086 SA
HETATM    9  C   UNL     1       6.817   2.753  -2.761  1.00  0.00     0.135 C 
HETATM   10  C   UNL     1       3.289   1.341  -0.163  1.00  0.00     0.069 C 
ENDROOT
BRANCH   6  11
HETATM   11  C   UNL     1       7.467   2.806  -0.203  1.00  0.00     0.156 C 
BRANCH  11  12
HETATM   12  C   UNL     1       7.134   4.102   0.505  1.00  0.00     0.223 C 
HETATM   13  N   UNL     1       8.152   4.573   1.297  1.00  0.00    -0.359 N 
HETATM   14  H   UNL     1       8.977   3.987   1.403  1.00  0.00     0.162 HD
HETATM   15  O   UNL     1       6.046   4.655   0.391  1.00  0.00    -0.273 OA
BRANCH  13  16
HETATM   16  C   UNL     1       8.029   5.623   2.309  1.00  0.00     0.150 C 
BRANCH  16  17
HETATM   17  C   UNL     1       7.465   6.983   1.855  1.00  0.00     0.253 C 
BRANCH  17  18
HETATM   18  N   UNL     1       5.958   6.997   1.708  1.00  0.00    -0.077 N 
HETATM   19  H   UNL     1       5.703   6.191   1.103  1.00  0.00     0.279 HD
HETATM   20  C   UNL     1       5.207   6.821   3.000  1.00  0.00     0.269 C 
HETATM   21  C   UNL     1       5.505   8.244   0.998  1.00  0.00     0.269 C 
ENDBRANCH  17  18
ENDBRANCH  16  17
ENDBRANCH  13  16
ENDBRANCH  11  12
ENDBRANCH   6  11
BRANCH   7  22
HETATM   22  C   UNL     1       5.225  -0.257   0.368  1.00  0.00    -0.009 A 
HETATM   23  C   UNL     1       4.716  -0.990   1.466  1.00  0.00     0.042 A 
HETATM   24 CL   UNL     1       3.616  -0.313   2.609  1.00  0.00    -0.084 Cl
HETATM   25  C   UNL     1       5.102  -2.317   1.703  1.00  0.00     0.024 A 
HETATM   26  C   UNL     1       6.026  -2.943   0.875  1.00  0.00     0.002 A 
HETATM   27  C   UNL     1       6.572  -2.243  -0.190  1.00  0.00     0.001 A 
HETATM   28  C   UNL     1       6.180  -0.923  -0.441  1.00  0.00     0.011 A 
ENDBRANCH   7  22
BRANCH  10  29
HETATM   29  C   UNL     1       2.597   2.265   0.792  1.00  0.00     0.294 C 
HETATM   30  O   UNL     1       3.180   2.735   1.759  1.00  0.00    -0.259 OA
BRANCH  29  31
HETATM   31  O   UNL     1       1.463   2.750   0.248  1.00  0.00    -0.313 OA
BRANCH  31  32
HETATM   32  C   UNL     1       1.040   4.055   0.674  1.00  0.00     0.217 C 
BRANCH  32  33
HETATM   33  C   UNL     1       1.682   5.132  -0.181  1.00  0.00    -0.034 A 
HETATM   34  C   UNL     1       2.191   4.865  -1.464  1.00  0.00     0.009 A 
HETATM   35  C   UNL     1       2.733   5.884  -2.251  1.00  0.00     0.001 A 
HETATM   36  C   UNL     1       2.737   7.194  -1.782  1.00  0.00     0.000 A 
HETATM   37  C   UNL     1       2.197   7.483  -0.531  1.00  0.00     0.001 A 
HETATM   38  C   UNL     1       1.683   6.459   0.270  1.00  0.00     0.009 A 
ENDBRANCH  32  33
ENDBRANCH  31  32
ENDBRANCH  29  31
ENDBRANCH  10  29
TORSDOF 10
