REMARK  8 active torsions:
REMARK  status: ('A' for Active; 'I' for Inactive)
REMARK    1  A    between atoms: C_2  and  N_3 
REMARK    2  A    between atoms: C_2  and  C_36 
REMARK       I    between atoms: N_3  and  C_4 
REMARK    3  A    between atoms: C_4  and  C_5 
REMARK    4  A    between atoms: C_5  and  N_6 
REMARK       I    between atoms: N_12  and  C_13 
REMARK    5  A    between atoms: C_13  and  C_14 
REMARK    6  A    between atoms: C_15  and  O_16 
REMARK    7  A    between atoms: C_21  and  O_22 
REMARK    8  A    between atoms: N_27  and  C_28 
ROOT
HETATM    1  N   UNL     1       1.365  -1.757   1.079  1.00  0.00    -0.325 N 
HETATM    2  C   UNL     1       1.717  -0.422   1.090  1.00  0.00     0.250 C 
HETATM    3  O   UNL     1       1.726   0.318   0.116  1.00  0.00    -0.270 OA
HETATM    4  C   UNL     1       2.170  -0.069   2.522  1.00  0.00     0.118 C 
HETATM    5  C   UNL     1       1.468   1.231   2.958  1.00  0.00     0.061 C 
HETATM    6  C   UNL     1       2.210   2.484   2.512  1.00  0.00     0.129 C 
HETATM    7  N   UNL     1       3.639   2.363   2.755  1.00  0.00    -0.348 N 
HETATM    8  C   UNL     1       4.185   2.948   3.905  1.00  0.00     0.259 C 
HETATM    9  O   UNL     1       3.504   3.491   4.772  1.00  0.00    -0.267 OA
HETATM   10  C   UNL     1       4.270   1.290   2.001  1.00  0.00     0.129 C 
HETATM   11  C   UNL     1       3.715  -0.053   2.472  1.00  0.00     0.061 C 
HETATM   12  N   UNL     1       1.674  -1.246   3.291  1.00  0.00    -0.346 N 
HETATM   13  C   UNL     1       1.255  -2.314   2.395  1.00  0.00     0.254 C 
ENDROOT
BRANCH  12  14
HETATM   14  C   UNL     1       1.769  -1.478   4.652  1.00  0.00     0.032 A 
HETATM   15  C   UNL     1       2.411  -0.598   5.540  1.00  0.00     0.029 A 
HETATM   16  C   UNL     1       2.482  -0.835   6.920  1.00  0.00     0.002 A 
HETATM   17  C   UNL     1       1.907  -1.973   7.465  1.00  0.00     0.000 A 
HETATM   18  C   UNL     1       1.263  -2.870   6.626  1.00  0.00     0.002 A 
HETATM   19  C   UNL     1       1.199  -2.621   5.247  1.00  0.00     0.029 A 
ENDBRANCH  12  14
BRANCH   1  20
HETATM   20  C   UNL     1       0.818  -2.427  -0.091  1.00  0.00     0.230 C 
BRANCH  20  21
HETATM   21  C   UNL     1       1.038  -3.948  -0.125  1.00  0.00     0.236 C 
HETATM   22  N   UNL     1       1.244  -4.476  -1.383  1.00  0.00    -0.351 N 
HETATM   23  H   UNL     1       1.027  -3.914  -2.196  1.00  0.00     0.163 HD
HETATM   24  O   UNL     1       0.990  -4.652   0.881  1.00  0.00    -0.272 OA
BRANCH  22  25
HETATM   25  C   UNL     1       1.393  -5.917  -1.576  1.00  0.00     0.113 C 
HETATM   26  C   UNL     1      -0.004  -6.555  -1.584  1.00  0.00     0.037 C 
BRANCH  25  27
HETATM   27  C   UNL     1       2.217  -6.263  -2.815  1.00  0.00    -0.036 A 
HETATM   28  C   UNL     1       3.028  -5.315  -3.464  1.00  0.00     0.009 A 
HETATM   29  C   UNL     1       3.797  -5.662  -4.580  1.00  0.00     0.001 A 
HETATM   30  C   UNL     1       3.791  -6.970  -5.055  1.00  0.00     0.000 A 
HETATM   31  C   UNL     1       3.026  -7.934  -4.408  1.00  0.00     0.001 A 
HETATM   32  C   UNL     1       2.255  -7.585  -3.295  1.00  0.00     0.009 A 
ENDBRANCH  25  27
ENDBRANCH  22  25
ENDBRANCH  20  21
ENDBRANCH   1  20
BRANCH   8  33
HETATM   33  C   UNL     1       5.661   3.024   4.023  1.00  0.00     0.098 A 
HETATM   34  C   UNL     1       6.294   4.226   3.665  1.00  0.00     0.086 A 
HETATM   35  C   UNL     1       7.679   4.351   3.772  1.00  0.00     0.038 A 
HETATM   36  C   UNL     1       8.440   3.272   4.210  1.00  0.00     0.005 A 
HETATM   37  C   UNL     1       7.815   2.077   4.581  1.00  0.00     0.038 A 
HETATM   38  C   UNL     1       6.422   1.945   4.508  1.00  0.00     0.086 A 
BRANCH  34  39
HETATM   39  O   UNL     1       5.583   5.347   3.322  1.00  0.00    -0.355 OA
HETATM   40  C   UNL     1       5.420   5.442   1.909  1.00  0.00     0.210 C 
ENDBRANCH  34  39
BRANCH  38  41
HETATM   41  O   UNL     1       5.740   0.825   4.897  1.00  0.00    -0.355 OA
HETATM   42  C   UNL     1       6.496  -0.337   5.217  1.00  0.00     0.210 C 
ENDBRANCH  38  41
ENDBRANCH   8  33
TORSDOF 8
