REMARK  6 active torsions:
REMARK  status: ('A' for Active; 'I' for Inactive)
REMARK    1  A    between atoms: O_2  and  C_3 
REMARK    2  A    between atoms: C_10  and  C_11 
REMARK    3  A    between atoms: C_11  and  C_12 
REMARK    4  A    between atoms: C_12  and  N_13 
REMARK       I    between atoms: N_13  and  C_14 
REMARK    5  A    between atoms: C_14  and  C_15 
REMARK    6  A    between atoms: C_21  and  C_22 
ROOT
HETATM    1  N   UNL     1       1.975   5.972  -0.915  1.00  0.00    -0.357 N 
HETATM    2  C   UNL     1       0.882   5.864  -0.080  1.00  0.00     0.251 C 
HETATM    3  O   UNL     1       0.377   4.793   0.238  1.00  0.00    -0.268 OA
HETATM    4  H   UNL     1       2.528   6.819  -0.868  1.00  0.00     0.162 HD
ENDROOT
BRANCH   2   5
HETATM    5  C   UNL     1       0.318   7.137   0.458  1.00  0.00     0.033 A 
HETATM    6  C   UNL     1      -0.386   7.047   1.684  1.00  0.00     0.033 A 
HETATM    7  C   UNL     1      -0.930   8.273   2.067  1.00  0.00     0.033 A 
HETATM    8  C   UNL     1      -0.803   9.522   1.352  1.00  0.00     0.097 A 
HETATM    9  C   UNL     1      -1.678   8.546   3.185  1.00  0.00     0.124 A 
HETATM   10  N   UNL     1      -1.443  10.484   2.033  1.00  0.00    -0.127 NA
HETATM   11  C   UNL     1      -0.096   9.594   0.140  1.00  0.00     0.036 A 
HETATM   12  O   UNL     1      -1.976   9.883   3.157  1.00  0.00    -0.211 OA
HETATM   13  C   UNL     1       0.450   8.360  -0.284  1.00  0.00     0.019 A 
BRANCH   9  14
HETATM   14  C   UNL     1      -2.220   7.817   4.327  1.00  0.00     0.001 A 
HETATM   15  C   UNL     1      -2.614   6.476   4.220  1.00  0.00     0.014 A 
HETATM   16  C   UNL     1      -3.128   5.788   5.325  1.00  0.00     0.001 A 
HETATM   17  C   UNL     1      -3.264   6.435   6.550  1.00  0.00     0.000 A 
HETATM   18  C   UNL     1      -2.891   7.771   6.672  1.00  0.00     0.001 A 
HETATM   19  C   UNL     1      -2.373   8.455   5.569  1.00  0.00     0.014 A 
ENDBRANCH   9  14
ENDBRANCH   2   5
BRANCH   1  20
HETATM   20  C   UNL     1       2.654   4.779  -1.397  1.00  0.00     0.127 C 
BRANCH  20  21
HETATM   21  C   UNL     1       3.452   5.028  -2.679  1.00  0.00     0.060 C 
BRANCH  21  22
HETATM   22  C   UNL     1       4.625   5.937  -2.474  1.00  0.00    -0.029 A 
HETATM   23  C   UNL     1       4.689   7.343  -2.743  1.00  0.00     0.001 A 
HETATM   24  C   UNL     1       3.771   8.289  -3.257  1.00  0.00     0.051 A 
HETATM   25  C   UNL     1       5.963   7.779  -2.382  1.00  0.00     0.043 A 
HETATM   26  C   UNL     1       4.158   9.628  -3.387  1.00  0.00     0.069 A 
HETATM   27  C   UNL     1       5.438  10.025  -2.999  1.00  0.00     0.039 A 
HETATM   28  C   UNL     1       6.368   9.111  -2.496  1.00  0.00     0.033 A 
HETATM   29  N   UNL     1       6.658   6.680  -1.935  1.00  0.00    -0.365 N 
HETATM   30  H   UNL     1       7.617   6.698  -1.616  1.00  0.00     0.165 HD
HETATM   31  C   UNL     1       5.863   5.567  -1.983  1.00  0.00     0.096 A 
BRANCH  26  32
HETATM   32  O   UNL     1       3.370  10.641  -3.865  1.00  0.00    -0.356 OA
HETATM   33  C   UNL     1       2.153  10.263  -4.497  1.00  0.00     0.210 C 
ENDBRANCH  26  32
ENDBRANCH  21  22
ENDBRANCH  20  21
ENDBRANCH   1  20
TORSDOF 6
