REMARK  3 active torsions:
REMARK  status: ('A' for Active; 'I' for Inactive)
REMARK    1  A    between atoms: C_3  and  N_4 
REMARK       I    between atoms: N_4  and  C_5 
REMARK    2  A    between atoms: C_5  and  C_6 
REMARK    3  A    between atoms: C_6  and  C_7 
ROOT
HETATM    1  C   UNL     1       4.753   2.160  -0.145  1.00  0.00     0.286 C 
HETATM    2  N   UNL     1       5.578   2.998   0.832  1.00  0.00    -0.056 N 
HETATM    3  H   UNL     1       6.409   2.411   1.058  1.00  0.00     0.278 HD
HETATM    4  H   UNL     1       5.940   3.848   0.385  1.00  0.00     0.278 HD
HETATM    5  C   UNL     1       4.916   3.301   2.143  1.00  0.00     0.209 C 
HETATM    6  C   UNL     1       4.414   1.982   2.777  1.00  0.00     0.115 C 
HETATM    7  N   UNL     1       3.606   1.192   1.849  1.00  0.00    -0.353 N 
HETATM    8  C   UNL     1       3.933   1.035   0.525  1.00  0.00     0.249 C 
HETATM    9  O   UNL     1       3.496   0.079  -0.107  1.00  0.00    -0.271 OA
HETATM   10  C   UNL     1       3.804   4.334   1.953  1.00  0.00     0.035 C 
HETATM   11  C   UNL     1       3.085   4.598   3.275  1.00  0.00     0.002 C 
HETATM   12  C   UNL     1       2.550   3.308   3.894  1.00  0.00     0.002 C 
HETATM   13  C   UNL     1       3.651   2.263   4.075  1.00  0.00     0.027 C 
HETATM   14  H   UNL     1       3.114   0.381   2.220  1.00  0.00     0.163 HD
ENDROOT
BRANCH   1  15
HETATM   15  C   UNL     1       5.653   1.583  -1.251  1.00  0.00     0.146 C 
BRANCH  15  16
HETATM   16  C   UNL     1       6.735   0.722  -0.634  1.00  0.00     0.224 C 
HETATM   17  N   UNL     1       7.401  -0.079  -1.529  1.00  0.00    -0.327 N 
HETATM   18  H   UNL     1       7.242   0.074  -2.517  1.00  0.00     0.169 HD
HETATM   19  O   UNL     1       6.999   0.875   0.561  1.00  0.00    -0.273 OA
BRANCH  17  20
HETATM   20  C   UNL     1       8.379  -1.053  -1.208  1.00  0.00     0.040 A 
HETATM   21  C   UNL     1       9.229  -1.537  -2.224  1.00  0.00    -0.035 A 
HETATM   22  C   UNL     1       9.186  -1.019  -3.636  1.00  0.00     0.050 C 
HETATM   23  C   UNL     1      10.167  -2.538  -1.914  1.00  0.00     0.009 A 
HETATM   24  C   UNL     1      10.268  -3.052  -0.622  1.00  0.00     0.001 A 
HETATM   25  C   UNL     1       9.430  -2.574   0.377  1.00  0.00     0.002 A 
HETATM   26  C   UNL     1       8.493  -1.581   0.086  1.00  0.00     0.030 A 
ENDBRANCH  17  20
ENDBRANCH  15  16
ENDBRANCH   1  15
TORSDOF 3
