REMARK  3 active torsions:
REMARK  status: ('A' for Active; 'I' for Inactive)
REMARK    1  A    between atoms: C_3  and  N_4 
REMARK       I    between atoms: N_4  and  C_5 
REMARK    2  A    between atoms: C_5  and  C_6 
REMARK    3  A    between atoms: C_8  and  N_9 
REMARK       I    between atoms: N_9  and  C_10 
ROOT
HETATM    1  N   UNL     1       2.266   2.150   0.080  1.00  0.00    -0.321 N 
HETATM    2  C   UNL     1       1.006   2.078   0.650  1.00  0.00     0.256 C 
HETATM    3  O   UNL     1       0.338   1.070   0.843  1.00  0.00    -0.267 OA
HETATM    4  H   UNL     1       2.736   3.042   0.153  1.00  0.00     0.169 HD
ENDROOT
BRANCH   2   5
HETATM    5  C   UNL     1       0.441   3.379   1.112  1.00  0.00     0.034 A 
HETATM    6  C   UNL     1       1.254   4.381   1.661  1.00  0.00     0.046 A 
HETATM    7  C   UNL     1       0.701   5.587   2.095  1.00  0.00     0.035 A 
HETATM    8  C   UNL     1      -0.686   5.766   2.016  1.00  0.00     0.029 A 
HETATM    9  C   UNL     1      -1.505   4.761   1.496  1.00  0.00     0.003 A 
HETATM   10  C   UNL     1      -0.944   3.568   1.044  1.00  0.00     0.017 A 
BRANCH   7  11
HETATM   11  N   UNL     1       1.465   6.643   2.635  1.00  0.00    -0.327 N 
HETATM   12  C   UNL     1       2.846   6.732   2.681  1.00  0.00     0.218 C 
HETATM   13  C   UNL     1       3.333   7.981   3.373  1.00  0.00     0.117 C 
HETATM   14  O   UNL     1       3.644   5.934   2.200  1.00  0.00    -0.274 OA
HETATM   15  H   UNL     1       0.942   7.441   2.974  1.00  0.00     0.169 HD
ENDBRANCH   7  11
ENDBRANCH   2   5
BRANCH   1  16
HETATM   16  C   UNL     1       3.098   1.057  -0.281  1.00  0.00     0.065 A 
HETATM   17  C   UNL     1       2.644  -0.142  -0.853  1.00  0.00    -0.031 A 
HETATM   18  C   UNL     1       1.239  -0.394  -1.324  1.00  0.00     0.050 C 
HETATM   19  C   UNL     1       3.570  -1.179  -1.061  1.00  0.00     0.035 A 
HETATM   20  C   UNL     1       4.914  -0.981  -0.776  1.00  0.00     0.031 A 
HETATM   21  N   UNL     1       5.384   0.194  -0.316  1.00  0.00    -0.256 NA
HETATM   22  C   UNL     1       5.903  -2.088  -0.980  1.00  0.00     0.070 C 
HETATM   23  C   UNL     1       4.490   1.190  -0.078  1.00  0.00     0.058 A 
HETATM   24  C   UNL     1       5.100   2.449   0.477  1.00  0.00     0.073 C 
ENDBRANCH   1  16
TORSDOF 3
