REMARK  3 active torsions:
REMARK  status: ('A' for Active; 'I' for Inactive)
REMARK    1  A    between atoms: C_3  and  C_4 
REMARK    2  A    between atoms: C_4  and  N_5 
REMARK       I    between atoms: N_5  and  C_6 
REMARK    3  A    between atoms: C_6  and  C_7 
ROOT
HETATM    1  C   UNL     1       2.061   5.519  -0.466  1.00  0.00     0.155 A 
HETATM    2  N   UNL     1       3.020   4.586  -0.677  1.00  0.00    -0.168 NA
HETATM    3  N   UNL     1       4.152   5.308  -0.834  1.00  0.00    -0.276 N 
HETATM    4  H   UNL     1       5.022   4.812  -0.999  1.00  0.00     0.189 HD
HETATM    5  C   UNL     1       3.949   6.647  -0.746  1.00  0.00     0.074 A 
HETATM    6  C   UNL     1       2.611   6.820  -0.518  1.00  0.00     0.031 A 
HETATM    7  C   UNL     1       2.014   8.165  -0.364  1.00  0.00     0.219 A 
HETATM    8  O   UNL     1       2.933   9.281  -0.541  1.00  0.00    -0.346 OA
HETATM    9  C   UNL     1       4.277   9.041  -0.734  1.00  0.00     0.081 A 
HETATM   10  C   UNL     1       4.856   7.761  -0.848  1.00  0.00     0.026 A 
HETATM   11  C   UNL     1       5.083  10.175  -0.824  1.00  0.00     0.038 A 
HETATM   12  C   UNL     1       6.458  10.042  -1.021  1.00  0.00     0.003 A 
HETATM   13  C   UNL     1       7.031   8.774  -1.130  1.00  0.00     0.001 A 
HETATM   14  C   UNL     1       6.232   7.630  -1.045  1.00  0.00     0.016 A 
ENDROOT
BRANCH   1  15
HETATM   15  C   UNL     1       0.656   5.159  -0.222  1.00  0.00     0.272 C 
HETATM   16  N   UNL     1       0.434   3.803  -0.245  1.00  0.00    -0.351 N 
HETATM   17  H   UNL     1       1.244   3.223  -0.446  1.00  0.00     0.163 HD
HETATM   18  O   UNL     1      -0.217   5.998  -0.024  1.00  0.00    -0.266 OA
BRANCH  16  19
HETATM   19  C   UNL     1      -0.866   3.211  -0.054  1.00  0.00     0.163 C 
BRANCH  19  20
HETATM   20  C   UNL     1      -1.612   2.890  -1.331  1.00  0.00    -0.019 A 
HETATM   21  C   UNL     1      -1.066   3.144  -2.603  1.00  0.00     0.010 A 
HETATM   22  C   UNL     1      -1.778   2.846  -3.768  1.00  0.00     0.001 A 
HETATM   23  C   UNL     1      -3.049   2.286  -3.688  1.00  0.00     0.002 A 
HETATM   24  C   UNL     1      -3.609   2.021  -2.441  1.00  0.00     0.024 A 
HETATM   25  C   UNL     1      -2.898   2.318  -1.273  1.00  0.00     0.042 A 
HETATM   26 CL   UNL     1      -3.660   1.948   0.236  1.00  0.00    -0.084 Cl
ENDBRANCH  19  20
ENDBRANCH  16  19
ENDBRANCH   1  15
TORSDOF 3
