REMARK  6 active torsions:
REMARK  status: ('A' for Active; 'I' for Inactive)
REMARK    1  A    between atoms: C_2  and  C_3 
REMARK    2  A    between atoms: C_3  and  O_4 
REMARK    3  A    between atoms: O_4  and  C_5 
REMARK    4  A    between atoms: C_6  and  O_7 
REMARK    5  A    between atoms: C_10  and  C_11 
REMARK    6  A    between atoms: C_25  and  O_26 
ROOT
HETATM    1  C   UNL     1       7.460  -6.429  -0.761  1.00  0.00     0.269 C 
HETATM    2  N   UNL     1       7.175  -6.880  -2.175  1.00  0.00    -0.061 N 
HETATM    3  H   UNL     1       8.017  -7.352  -2.520  1.00  0.00     0.278 HD
HETATM    4  H   UNL     1       7.031  -6.050  -2.760  1.00  0.00     0.278 HD
HETATM    5  C   UNL     1       6.002  -7.820  -2.323  1.00  0.00     0.238 C 
HETATM    6  C   UNL     1       6.241  -9.124  -1.540  1.00  0.00     0.069 C 
HETATM    7  C   UNL     1       6.740  -8.817  -0.170  1.00  0.00    -0.019 A 
HETATM    8  C   UNL     1       7.278  -7.587   0.158  1.00  0.00     0.052 A 
HETATM    9  N   UNL     1       7.632  -7.618   1.483  1.00  0.00    -0.356 N 
HETATM   10  H   UNL     1       8.033  -6.860   2.023  1.00  0.00     0.166 HD
HETATM   11  C   UNL     1       7.361  -8.866   2.004  1.00  0.00     0.043 A 
HETATM   12  C   UNL     1       6.807  -9.640   0.983  1.00  0.00     0.002 A 
HETATM   13  C   UNL     1       7.567  -9.366   3.294  1.00  0.00     0.033 A 
HETATM   14  C   UNL     1       7.219 -10.701   3.542  1.00  0.00     0.039 A 
HETATM   15  C   UNL     1       6.680 -11.505   2.539  1.00  0.00     0.069 A 
HETATM   16  C   UNL     1       6.460 -10.975   1.261  1.00  0.00     0.051 A 
ENDROOT
BRANCH   1  17
HETATM   17  C   UNL     1       6.669  -5.182  -0.421  1.00  0.00    -0.019 A 
HETATM   18  C   UNL     1       7.177  -3.937  -0.823  1.00  0.00     0.049 A 
HETATM   19  C   UNL     1       6.466  -2.763  -0.567  1.00  0.00     0.102 A 
HETATM   20  C   UNL     1       5.218  -2.791   0.066  1.00  0.00     0.102 A 
HETATM   21  C   UNL     1       4.704  -4.026   0.462  1.00  0.00     0.040 A 
HETATM   22  C   UNL     1       5.419  -5.210   0.219  1.00  0.00     0.012 A 
BRANCH  19  23
HETATM   23  O   UNL     1       6.986  -1.587  -1.044  1.00  0.00    -0.353 OA
HETATM   24  C   UNL     1       7.873  -1.010  -0.086  1.00  0.00     0.210 C 
ENDBRANCH  19  23
BRANCH  20  25
HETATM   25  O   UNL     1       4.604  -1.582   0.241  1.00  0.00    -0.348 OA
BRANCH  25  26
HETATM   26  C   UNL     1       3.353  -1.559   0.930  1.00  0.00     0.175 C 
BRANCH  26  27
HETATM   27  C   UNL     1       2.900  -0.105   1.027  1.00  0.00     0.022 C 
HETATM   28  C   UNL     1       1.587   0.032   1.777  1.00  0.00     0.007 C 
ENDBRANCH  26  27
ENDBRANCH  25  26
ENDBRANCH  20  25
ENDBRANCH   1  17
BRANCH  15  29
HETATM   29  O   UNL     1       6.320 -12.819   2.670  1.00  0.00    -0.356 OA
HETATM   30  C   UNL     1       6.669 -13.465   3.890  1.00  0.00     0.210 C 
ENDBRANCH  15  29
TORSDOF 6
