REMARK  6 active torsions:
REMARK  status: ('A' for Active; 'I' for Inactive)
REMARK    1  A    between atoms: O_2  and  C_3 
REMARK    2  A    between atoms: C_6  and  C_7 
REMARK    3  A    between atoms: C_7  and  N_8 
REMARK       I    between atoms: N_8  and  C_9 
REMARK    4  A    between atoms: C_9  and  C_10 
REMARK    5  A    between atoms: C_13  and  C_14 
REMARK    6  A    between atoms: C_19  and  C_20 
ROOT
HETATM    1  C   UNL     1       5.028   3.842  -6.805  1.00  0.00     0.096 A 
HETATM    2  C   UNL     1       5.914   4.896  -6.673  1.00  0.00     0.138 A 
HETATM    3  N   UNL     1       5.254   6.004  -7.158  1.00  0.00    -0.240 N 
HETATM    4  C   UNL     1       5.810   7.346  -7.167  1.00  0.00     0.221 C 
HETATM    5  C   UNL     1       6.936   7.445  -6.121  1.00  0.00     0.066 C 
HETATM    6  C   UNL     1       7.914   6.268  -6.237  1.00  0.00     0.118 C 
HETATM    7  N   UNL     1       7.171   5.010  -6.169  1.00  0.00    -0.365 N 
HETATM    8  N   UNL     1       4.044   5.731  -7.665  1.00  0.00    -0.181 NA
HETATM    9  C   UNL     1       3.888   4.431  -7.406  1.00  0.00     0.160 A 
HETATM   10  H   UNL     1       7.601   4.279  -5.607  1.00  0.00     0.161 HD
ENDROOT
BRANCH   1  11
HETATM   11  C   UNL     1       5.161   2.450  -6.423  1.00  0.00     0.257 C 
HETATM   12  N   UNL     1       6.455   1.998  -6.307  1.00  0.00    -0.352 N 
HETATM   13  H   UNL     1       7.190   2.570  -6.700  1.00  0.00     0.163 HD
HETATM   14  O   UNL     1       4.182   1.733  -6.245  1.00  0.00    -0.267 OA
BRANCH  12  15
HETATM   15  C   UNL     1       6.761   0.645  -5.909  1.00  0.00     0.161 C 
BRANCH  15  16
HETATM   16  C   UNL     1       7.235  -0.201  -7.062  1.00  0.00    -0.040 A 
HETATM   17  C   UNL     1       8.522  -0.755  -7.060  1.00  0.00     0.011 A 
HETATM   18  C   UNL     1       8.941  -1.599  -8.096  1.00  0.00     0.037 A 
HETATM   19  C   UNL     1       8.076  -1.902  -9.147  1.00  0.00     0.068 A 
HETATM   20  C   UNL     1       6.803  -1.330  -9.169  1.00  0.00     0.037 A 
HETATM   21  C   UNL     1       6.380  -0.493  -8.133  1.00  0.00     0.011 A 
BRANCH  19  22
HETATM   22  O   UNL     1       8.360  -2.724 -10.202  1.00  0.00    -0.356 OA
HETATM   23  C   UNL     1       9.463  -3.607 -10.034  1.00  0.00     0.210 C 
ENDBRANCH  19  22
ENDBRANCH  15  16
ENDBRANCH  12  15
ENDBRANCH   1  11
BRANCH   4  24
HETATM   24  C   UNL     1       4.768   8.407  -6.877  1.00  0.00     0.409 C 
HETATM   25  F   UNL     1       4.153   8.219  -5.687  1.00  0.00    -0.169 F 
HETATM   26  F   UNL     1       5.374   9.626  -6.803  1.00  0.00    -0.169 F 
HETATM   27  F   UNL     1       3.826   8.521  -7.834  1.00  0.00    -0.169 F 
ENDBRANCH   4  24
BRANCH   6  28
HETATM   28  C   UNL     1       8.808   6.366  -7.467  1.00  0.00    -0.035 A 
HETATM   29  C   UNL     1       9.752   7.408  -7.543  1.00  0.00     0.009 A 
HETATM   30  C   UNL     1      10.573   7.557  -8.663  1.00  0.00     0.001 A 
HETATM   31  C   UNL     1      10.473   6.663  -9.724  1.00  0.00     0.000 A 
HETATM   32  C   UNL     1       9.554   5.619  -9.665  1.00  0.00     0.001 A 
HETATM   33  C   UNL     1       8.729   5.472  -8.547  1.00  0.00     0.009 A 
ENDBRANCH   6  28
TORSDOF 6
