REMARK  6 active torsions:
REMARK  status: ('A' for Active; 'I' for Inactive)
REMARK    1  A    between atoms: C_3  and  O_4 
REMARK    2  A    between atoms: O_4  and  C_5 
REMARK    3  A    between atoms: C_13  and  N_14 
REMARK       I    between atoms: N_14  and  C_15 
REMARK       I    between atoms: C_15  and  N_16 
REMARK    4  A    between atoms: N_16  and  C_17 
REMARK    5  A    between atoms: C_17  and  C_18 
REMARK    6  A    between atoms: C_18  and  C_19 
ROOT
HETATM    1  N   UNL     1       2.608  -2.114  -1.210  1.00  0.00    -0.308 N 
HETATM    2  C   UNL     1       3.030  -2.855  -2.292  1.00  0.00     0.320 C 
HETATM    3  N   UNL     1       2.018  -3.688  -2.728  1.00  0.00    -0.342 N 
HETATM    4  O   UNL     1       4.114  -2.791  -2.857  1.00  0.00    -0.247 OA
HETATM    5  H   UNL     1       1.613  -2.152  -1.058  1.00  0.00     0.170 HD
HETATM    6  H   UNL     1       1.445  -4.092  -1.995  1.00  0.00     0.164 HD
ENDROOT
BRANCH   1   7
HETATM    7  C   UNL     1       3.340  -1.150  -0.476  1.00  0.00     0.045 A 
HETATM    8  C   UNL     1       2.652  -0.307   0.430  1.00  0.00    -0.002 A 
HETATM    9  C   UNL     1       1.166  -0.441   0.649  1.00  0.00     0.053 C 
HETATM   10  C   UNL     1       3.370   0.709   1.094  1.00  0.00     0.077 A 
HETATM   11  C   UNL     1       4.753   0.821   0.950  1.00  0.00     0.037 A 
HETATM   12  C   UNL     1       5.429  -0.039   0.093  1.00  0.00     0.005 A 
HETATM   13  C   UNL     1       4.725  -1.010  -0.622  1.00  0.00     0.030 A 
BRANCH  10  14
HETATM   14  O   UNL     1       2.669   1.555   1.918  1.00  0.00    -0.345 OA
BRANCH  14  15
HETATM   15  C   UNL     1       2.894   2.945   1.678  1.00  0.00     0.129 C 
HETATM   16  C   UNL     1       2.503   3.408   0.275  1.00  0.00     0.032 C 
HETATM   17  C   UNL     1       2.331   4.908   0.443  1.00  0.00     0.002 C 
HETATM   18  C   UNL     1       1.717   5.078   1.829  1.00  0.00     0.002 C 
HETATM   19  C   UNL     1       1.943   3.757   2.562  1.00  0.00     0.032 C 
ENDBRANCH  14  15
ENDBRANCH  10  14
ENDBRANCH   1   7
BRANCH   3  20
HETATM   20  C   UNL     1       2.233  -4.571  -3.866  1.00  0.00     0.132 C 
BRANCH  20  21
HETATM   21  C   UNL     1       2.966  -5.860  -3.493  1.00  0.00     0.102 C 
BRANCH  21  22
HETATM   22  C   UNL     1       2.108  -6.795  -2.714  1.00  0.00     0.148 A 
HETATM   23  N   UNL     1       2.052  -8.109  -2.970  1.00  0.00    -0.158 NA
HETATM   24  N   UNL     1       1.184  -8.530  -2.037  1.00  0.00    -0.270 N 
HETATM   25  H   UNL     1       0.949  -9.515  -1.984  1.00  0.00     0.190 HD
HETATM   26  C   UNL     1       0.741  -7.495  -1.276  1.00  0.00     0.227 A 
HETATM   27  N   UNL     1       1.303  -6.380  -1.678  1.00  0.00    -0.226 NA
ENDBRANCH  21  22
ENDBRANCH  20  21
ENDBRANCH   3  20
TORSDOF 6
