REMARK  8 active torsions:
REMARK  status: ('A' for Active; 'I' for Inactive)
REMARK    1  A    between atoms: O_2  and  C_3 
REMARK    2  A    between atoms: C_10  and  C_11 
REMARK    3  A    between atoms: N_12  and  N_13 
REMARK       I    between atoms: N_13  and  C_14 
REMARK    4  A    between atoms: C_14  and  C_15 
REMARK    5  A    between atoms: N_16  and  C_17 
REMARK    6  A    between atoms: C_21  and  N_22 
REMARK    7  A    between atoms: C_25  and  C_26 
REMARK    8  A    between atoms: C_26  and  N_27 
ROOT
HETATM    1  C   UNL     1       2.347  -3.996   0.535  1.00  0.00     0.154 A 
HETATM    2  N   UNL     1       1.369  -4.698   1.248  1.00  0.00    -0.184 N 
HETATM    3  N   UNL     1       0.847  -3.864   2.197  1.00  0.00    -0.058 NA
HETATM    4  N   UNL     1       1.483  -2.711   2.175  1.00  0.00    -0.132 NA
HETATM    5  C   UNL     1       2.418  -2.769   1.188  1.00  0.00     0.118 A 
ENDROOT
BRANCH   1   6
HETATM    6  C   UNL     1       3.218  -4.407  -0.544  1.00  0.00     0.271 C 
HETATM    7  N   UNL     1       2.680  -5.213  -1.546  1.00  0.00    -0.145 NA
HETATM    8  H   UNL     1       1.886  -5.781  -1.250  1.00  0.00     0.158 HD
HETATM    9  O   UNL     1       4.350  -3.930  -0.612  1.00  0.00    -0.271 OA
BRANCH   7  10
HETATM   10  N   UNL     1       3.529  -5.974  -2.293  1.00  0.00    -0.205 NA
HETATM   11  C   UNL     1       4.137  -5.530  -3.358  1.00  0.00     0.147 C 
BRANCH  11  12
HETATM   12  C   UNL     1       4.087  -4.250  -4.111  1.00  0.00     0.019 A 
HETATM   13  C   UNL     1       4.833  -4.156  -5.303  1.00  0.00     0.101 A 
HETATM   14  C   UNL     1       4.893  -2.943  -6.010  1.00  0.00     0.069 A 
HETATM   15 CL   UNL     1       5.859  -2.767  -7.431  1.00  0.00    -0.081 Cl
HETATM   16  C   UNL     1       4.179  -1.834  -5.564  1.00  0.00     0.050 A 
HETATM   17  C   UNL     1       3.404  -1.944  -4.416  1.00  0.00     0.036 A 
HETATM   18 CL   UNL     1       2.530  -0.577  -3.837  1.00  0.00    -0.084 Cl
HETATM   19  C   UNL     1       3.344  -3.142  -3.700  1.00  0.00     0.039 A 
BRANCH  13  20
HETATM   20  O   UNL     1       5.553  -5.241  -5.741  1.00  0.00    -0.353 OA
HETATM   21  C   UNL     1       4.874  -5.933  -6.796  1.00  0.00     0.210 C 
ENDBRANCH  13  20
ENDBRANCH  11  12
ENDBRANCH   7  10
ENDBRANCH   1   6
BRANCH   2  22
HETATM   22  C   UNL     1       0.936  -6.042   1.151  1.00  0.00     0.230 A 
HETATM   23  N   UNL     1       1.430  -6.844   0.211  1.00  0.00    -0.081 NA
HETATM   24  O   UNL     1       0.791  -8.064   0.434  1.00  0.00    -0.103 OA
HETATM   25  N   UNL     1      -0.092  -7.978   1.501  1.00  0.00    -0.083 NA
HETATM   26  C   UNL     1       0.002  -6.728   1.950  1.00  0.00     0.201 A 
BRANCH  26  27
HETATM   27  N   UNL     1      -0.688  -6.247   2.996  1.00  0.00    -0.379 N 
HETATM   28  H   UNL     1      -1.392  -6.825   3.447  1.00  0.00     0.158 HD
HETATM   29  H   UNL     1      -0.691  -5.269   3.273  1.00  0.00     0.158 HD
ENDBRANCH  26  27
ENDBRANCH   2  22
BRANCH   5  30
HETATM   30  C   UNL     1       3.322  -1.593   0.997  1.00  0.00     0.298 C 
BRANCH  30  31
HETATM   31  N   UNL     1       3.747  -0.988   2.340  1.00  0.00    -0.066 N 
HETATM   32  H   UNL     1       2.887  -1.030   2.909  1.00  0.00     0.280 HD
HETATM   33  C   UNL     1       4.770  -1.868   3.017  1.00  0.00     0.235 C 
HETATM   34  C   UNL     1       5.032  -1.447   4.458  1.00  0.00     0.028 C 
HETATM   35  C   UNL     1       5.890  -0.192   4.565  1.00  0.00     0.002 C 
HETATM   36  C   UNL     1       5.121   1.122   4.494  1.00  0.00     0.002 C 
HETATM   37  C   UNL     1       3.949   1.193   3.521  1.00  0.00     0.028 C 
HETATM   38  C   UNL     1       4.146   0.461   2.200  1.00  0.00     0.235 C 
ENDBRANCH  30  31
ENDBRANCH   5  30
TORSDOF 8
