REMARK  7 active torsions:
REMARK  status: ('A' for Active; 'I' for Inactive)
REMARK    1  A    between atoms: C_2  and  O_3 
REMARK    2  A    between atoms: O_3  and  C_4 
REMARK    3  A    between atoms: C_5  and  C_6 
REMARK    4  A    between atoms: C_9  and  C_10 
REMARK       I    between atoms: C_10  and  N_11 
REMARK    5  A    between atoms: N_11  and  C_12 
REMARK    6  A    between atoms: C_25  and  C_26 
REMARK       I    between atoms: C_26  and  N_27 
REMARK    7  A    between atoms: N_27  and  C_28 
ROOT
HETATM    1  C   UNL     1       4.005   2.161   1.791  1.00  0.00     0.188 C 
HETATM    2  N   UNL     1       4.338   3.224   2.751  1.00  0.00    -0.239 N 
HETATM    3  C   UNL     1       4.794   4.471   2.395  1.00  0.00     0.142 C 
HETATM    4  C   UNL     1       4.911   5.179   3.575  1.00  0.00     0.097 C 
HETATM    5  C   UNL     1       4.646   4.210   4.579  1.00  0.00     0.160 C 
HETATM    6  N   UNL     1       4.313   3.015   4.086  1.00  0.00    -0.181 NA
HETATM    7  N   UNL     1       5.038   4.732   1.082  1.00  0.00    -0.343 N 
HETATM    8  C   UNL     1       4.990   3.729   0.102  1.00  0.00     0.021 C 
HETATM    9  C   UNL     1       5.523   4.120  -1.256  1.00  0.00     0.069 C 
HETATM   10  C   UNL     1       4.510   2.494   0.396  1.00  0.00     0.061 C 
HETATM   11  H   UNL     1       5.630   5.521   0.820  1.00  0.00     0.167 HD
ENDROOT
BRANCH   4  12
HETATM   12  C   UNL     1       5.236   6.573   3.813  1.00  0.00     0.261 C 
HETATM   13  N   UNL     1       4.918   7.404   2.754  1.00  0.00    -0.323 N 
HETATM   14  H   UNL     1       4.483   6.951   1.960  1.00  0.00     0.169 HD
HETATM   15  O   UNL     1       5.686   6.927   4.895  1.00  0.00    -0.267 OA
BRANCH  13  16
HETATM   16  C   UNL     1       4.988   8.811   2.715  1.00  0.00     0.035 A 
HETATM   17  C   UNL     1       5.458   9.600   3.770  1.00  0.00     0.032 A 
HETATM   18  C   UNL     1       5.458  10.995   3.667  1.00  0.00     0.044 A 
HETATM   19  C   UNL     1       4.997  11.599   2.506  1.00  0.00     0.116 A 
HETATM   20  F   UNL     1       4.992  12.934   2.411  1.00  0.00    -0.206 F 
HETATM   21  C   UNL     1       4.536  10.834   1.443  1.00  0.00     0.044 A 
HETATM   22  C   UNL     1       4.531   9.440   1.548  1.00  0.00     0.032 A 
ENDBRANCH  13  16
ENDBRANCH   4  12
BRANCH   1  23
HETATM   23  C   UNL     1       2.509   1.835   1.884  1.00  0.00     0.005 A 
HETATM   24  C   UNL     1       1.497   2.713   1.443  1.00  0.00     0.077 A 
HETATM   25  C   UNL     1       0.154   2.326   1.533  1.00  0.00     0.037 A 
HETATM   26  C   UNL     1      -0.195   1.091   2.081  1.00  0.00     0.003 A 
HETATM   27  C   UNL     1       0.792   0.230   2.543  1.00  0.00     0.001 A 
HETATM   28  C   UNL     1       2.132   0.598   2.447  1.00  0.00     0.012 A 
BRANCH  24  29
HETATM   29  O   UNL     1       1.905   3.905   0.911  1.00  0.00    -0.351 OA
BRANCH  29  30
HETATM   30  C   UNL     1       0.931   4.941   0.787  1.00  0.00     0.171 C 
HETATM   31  C   UNL     1       1.659   6.232   0.458  1.00  0.00     0.034 C 
ENDBRANCH  29  30
ENDBRANCH  24  29
ENDBRANCH   1  23
BRANCH  10  32
HETATM   32  C   UNL     1       4.746   1.343  -0.529  1.00  0.00     0.256 C 
HETATM   33  N   UNL     1       3.678   0.482  -0.649  1.00  0.00    -0.323 N 
HETATM   34  H   UNL     1       2.794   0.769  -0.249  1.00  0.00     0.169 HD
HETATM   35  O   UNL     1       5.847   1.211  -1.052  1.00  0.00    -0.267 OA
BRANCH  33  36
HETATM   36  C   UNL     1       3.682  -0.813  -1.213  1.00  0.00     0.035 A 
HETATM   37  C   UNL     1       4.781  -1.387  -1.854  1.00  0.00     0.029 A 
HETATM   38  C   UNL     1       4.715  -2.696  -2.342  1.00  0.00     0.002 A 
HETATM   39  C   UNL     1       3.551  -3.446  -2.187  1.00  0.00     0.000 A 
HETATM   40  C   UNL     1       2.447  -2.883  -1.553  1.00  0.00     0.002 A 
HETATM   41  C   UNL     1       2.510  -1.571  -1.075  1.00  0.00     0.029 A 
ENDBRANCH  33  36
ENDBRANCH  10  32
TORSDOF 7
