REMARK  7 active torsions:
REMARK  status: ('A' for Active; 'I' for Inactive)
REMARK    1  A    between atoms: N_3  and  C_4 
REMARK    2  A    between atoms: C_12  and  C_13 
REMARK       I    between atoms: C_13  and  N_14 
REMARK    3  A    between atoms: N_14  and  C_15 
REMARK    4  A    between atoms: C_15  and  C_16 
REMARK    5  A    between atoms: C_16  and  O_17 
REMARK    6  A    between atoms: C_16  and  C_18 
REMARK    7  A    between atoms: C_21  and  O_22 
ROOT
HETATM    1  C   UNL     1      -1.788  -2.633  -2.806  1.00  0.00     0.255 C 
HETATM    2  N   UNL     1      -0.613  -2.858  -2.135  1.00  0.00    -0.350 N 
HETATM    3  O   UNL     1      -1.960  -1.656  -3.528  1.00  0.00    -0.268 OA
HETATM    4  H   UNL     1      -0.481  -3.707  -1.607  1.00  0.00     0.163 HD
ENDROOT
BRANCH   2   5
HETATM    5  C   UNL     1       0.531  -1.946  -2.187  1.00  0.00     0.114 C 
HETATM    6  C   UNL     1       1.699  -2.680  -2.850  1.00  0.00     0.035 C 
BRANCH   5   7
HETATM    7  C   UNL     1       0.931  -1.446  -0.772  1.00  0.00     0.173 C 
BRANCH   7   8
HETATM    8  O   UNL     1       1.021  -2.552   0.138  1.00  0.00    -0.389 OA
HETATM    9  H   UNL     1       0.972  -2.175   1.035  1.00  0.00     0.210 HD
ENDBRANCH   7   8
BRANCH   7  10
HETATM   10  C   UNL     1       0.004  -0.380  -0.218  1.00  0.00    -0.028 A 
HETATM   11  C   UNL     1       0.394   0.966  -0.237  1.00  0.00     0.012 A 
HETATM   12  C   UNL     1      -0.461   1.960   0.248  1.00  0.00     0.037 A 
HETATM   13  C   UNL     1      -1.721   1.635   0.750  1.00  0.00     0.068 A 
HETATM   14  C   UNL     1      -2.116   0.299   0.780  1.00  0.00     0.037 A 
HETATM   15  C   UNL     1      -1.259  -0.699   0.300  1.00  0.00     0.012 A 
BRANCH  13  16
HETATM   16  O   UNL     1      -2.460   2.702   1.182  1.00  0.00    -0.356 OA
HETATM   17  C   UNL     1      -3.818   2.444   1.515  1.00  0.00     0.210 C 
ENDBRANCH  13  16
ENDBRANCH   7  10
ENDBRANCH   5   7
ENDBRANCH   2   5
BRANCH   1  18
HETATM   18  C   UNL     1      -2.817  -3.654  -2.661  1.00  0.00     0.075 C 
HETATM   19  C   UNL     1      -3.015  -4.659  -1.716  1.00  0.00     0.051 C 
HETATM   20  C   UNL     1      -2.302  -4.973  -0.446  1.00  0.00     0.071 C 
HETATM   21  N   UNL     1      -4.114  -5.401  -2.160  1.00  0.00    -0.220 N 
HETATM   22  N   UNL     1      -4.726  -4.793  -3.214  1.00  0.00    -0.177 NA
HETATM   23  C   UNL     1      -3.928  -3.776  -3.522  1.00  0.00     0.158 C 
BRANCH  21  24
HETATM   24  C   UNL     1      -4.614  -6.655  -1.662  1.00  0.00     0.150 A 
HETATM   25  N   UNL     1      -3.909  -7.321  -0.707  1.00  0.00    -0.241 NA
HETATM   26  C   UNL     1      -4.396  -8.510  -0.288  1.00  0.00     0.119 A 
HETATM   27  C   UNL     1      -5.563  -9.079  -0.767  1.00  0.00     0.019 A 
HETATM   28  C   UNL     1      -6.276  -8.391  -1.739  1.00  0.00     0.005 A 
HETATM   29  C   UNL     1      -5.798  -7.165  -2.199  1.00  0.00     0.052 A 
ENDBRANCH  21  24
ENDBRANCH   1  18
TORSDOF 7
