REMARK  12 active torsions:
REMARK  status: ('A' for Active; 'I' for Inactive)
REMARK    1  A    between atoms: C_2  and  N_3 
REMARK    2  A    between atoms: N_3  and  C_5 
REMARK    3  A    between atoms: N_3  and  C_39 
REMARK    4  A    between atoms: C_5  and  C_6 
REMARK    5  A    between atoms: N_7  and  C_8 
REMARK    6  A    between atoms: C_12  and  N_13 
REMARK    7  A    between atoms: C_16  and  C_17 
REMARK       I    between atoms: C_17  and  N_18 
REMARK    8  A    between atoms: N_18  and  N_19 
REMARK    9  A    between atoms: C_20  and  C_21 
REMARK   10  A    between atoms: C_22  and  O_23 
REMARK   11  A    between atoms: O_23  and  C_24 
REMARK   12  A    between atoms: C_24  and  C_25 
ROOT
HETATM    1  C   UNL     1       0.532   4.692   0.086  1.00  0.00     0.294 C 
HETATM    2  N   UNL     1       0.967   5.201  -1.124  1.00  0.00    -0.242 N 
HETATM    3  O   UNL     1       0.402   5.426   1.061  1.00  0.00    -0.264 OA
HETATM    4  H   UNL     1       1.029   6.214  -1.187  1.00  0.00     0.192 HD
ENDROOT
BRANCH   1   5
HETATM    5  C   UNL     1       0.236   3.268   0.151  1.00  0.00     0.176 C 
HETATM    6  C   UNL     1       1.075   2.175  -0.041  1.00  0.00     0.102 C 
HETATM    7  N   UNL     1       0.209   1.080   0.022  1.00  0.00    -0.191 N 
HETATM    8  N   UNL     1      -0.997   1.509   0.477  1.00  0.00    -0.058 NA
HETATM    9  N   UNL     1      -0.996   2.826   0.533  1.00  0.00    -0.124 NA
BRANCH   6  10
HETATM   10  C   UNL     1       2.530   2.137  -0.310  1.00  0.00     0.296 C 
BRANCH  10  11
HETATM   11  N   UNL     1       3.428   2.078   0.933  1.00  0.00    -0.066 N 
HETATM   12  H   UNL     1       4.364   2.276   0.555  1.00  0.00     0.280 HD
BRANCH  11  13
HETATM   13  C   UNL     1       3.508   0.713   1.582  1.00  0.00     0.231 C 
HETATM   14  C   UNL     1       4.502  -0.165   0.842  1.00  0.00     0.034 C 
ENDBRANCH  11  13
BRANCH  11  15
HETATM   15  C   UNL     1       3.157   3.209   1.909  1.00  0.00     0.231 C 
HETATM   16  C   UNL     1       4.358   3.463   2.804  1.00  0.00     0.034 C 
ENDBRANCH  11  15
ENDBRANCH  10  11
ENDBRANCH   6  10
BRANCH   7  17
HETATM   17  C   UNL     1       0.434  -0.287  -0.266  1.00  0.00     0.229 A 
HETATM   18  N   UNL     1       1.596  -0.692  -0.779  1.00  0.00    -0.081 NA
HETATM   19  O   UNL     1       1.433  -2.070  -0.934  1.00  0.00    -0.103 OA
HETATM   20  N   UNL     1       0.188  -2.482  -0.480  1.00  0.00    -0.083 NA
HETATM   21  C   UNL     1      -0.436  -1.377  -0.075  1.00  0.00     0.201 A 
BRANCH  21  22
HETATM   22  N   UNL     1      -1.671  -1.349   0.452  1.00  0.00    -0.379 N 
HETATM   23  H   UNL     1      -2.258  -2.178   0.406  1.00  0.00     0.158 HD
HETATM   24  H   UNL     1      -2.187  -0.482   0.596  1.00  0.00     0.158 HD
ENDBRANCH  21  22
ENDBRANCH   7  17
ENDBRANCH   1   5
BRANCH   2  25
HETATM   25  N   UNL     1       1.338   4.422  -2.177  1.00  0.00    -0.183 NA
HETATM   26  C   UNL     1       1.418   5.037  -3.314  1.00  0.00     0.153 C 
BRANCH  26  27
HETATM   27  C   UNL     1       1.880   4.339  -4.524  1.00  0.00     0.018 A 
HETATM   28  C   UNL     1       2.987   3.477  -4.519  1.00  0.00     0.081 A 
HETATM   29  C   UNL     1       3.329   2.781  -5.681  1.00  0.00     0.039 A 
HETATM   30  C   UNL     1       2.606   2.990  -6.857  1.00  0.00     0.026 A 
HETATM   31  C   UNL     1       1.537   3.886  -6.867  1.00  0.00     0.035 A 
HETATM   32 CL   UNL     1       0.658   4.150  -8.320  1.00  0.00    -0.084 Cl
HETATM   33  C   UNL     1       1.168   4.564  -5.706  1.00  0.00     0.039 A 
BRANCH  28  34
HETATM   34  O   UNL     1       3.787   3.285  -3.419  1.00  0.00    -0.346 OA
BRANCH  34  35
HETATM   35  C   UNL     1       4.684   4.398  -3.266  1.00  0.00     0.219 C 
BRANCH  35  36
HETATM   36  C   UNL     1       5.915   3.946  -2.528  1.00  0.00     0.026 A 
HETATM   37  C   UNL     1       7.026   3.387  -3.176  1.00  0.00     0.045 A 
HETATM   38 CL   UNL     1       7.052   3.130  -4.883  1.00  0.00    -0.084 Cl
HETATM   39  C   UNL     1       8.166   3.017  -2.451  1.00  0.00     0.024 A 
HETATM   40  C   UNL     1       8.215   3.200  -1.070  1.00  0.00     0.005 A 
HETATM   41  C   UNL     1       7.114   3.735  -0.411  1.00  0.00     0.043 A 
HETATM   42  C   UNL     1       5.979   4.088  -1.138  1.00  0.00     0.126 A 
HETATM   43  F   UNL     1       4.916   4.552  -0.463  1.00  0.00    -0.205 F 
ENDBRANCH  35  36
ENDBRANCH  34  35
ENDBRANCH  28  34
ENDBRANCH  26  27
ENDBRANCH   2  25
TORSDOF 12
