REMARK  5 active torsions:
REMARK  status: ('A' for Active; 'I' for Inactive)
REMARK    1  A    between atoms: C_7  and  C_8 
REMARK    2  A    between atoms: C_8  and  O_9 
REMARK    3  A    between atoms: N_12  and  C_13 
REMARK    4  A    between atoms: C_13  and  C_14 
REMARK    5  A    between atoms: C_14  and  C_15 
ROOT
HETATM    1  C   UNL     1       2.665  -2.828  -0.588  1.00  0.00     0.199 A 
HETATM    2  C   UNL     1       3.056  -4.282  -1.022  1.00  0.00     0.269 A 
HETATM    3  O   UNL     1       3.375  -4.662  -2.141  1.00  0.00    -0.269 OA
HETATM    4  N   UNL     1       2.985  -5.093   0.127  1.00  0.00    -0.314 N 
HETATM    5  C   UNL     1       2.545  -4.358   1.237  1.00  0.00     0.047 A 
HETATM    6  C   UNL     1       2.332  -3.021   0.873  1.00  0.00     0.017 A 
HETATM    7  C   UNL     1       2.319  -4.791   2.531  1.00  0.00     0.030 A 
HETATM    8  C   UNL     1       1.884  -3.854   3.475  1.00  0.00     0.002 A 
HETATM    9  C   UNL     1       1.687  -2.511   3.119  1.00  0.00     0.001 A 
HETATM   10  C   UNL     1       1.919  -2.083   1.811  1.00  0.00     0.013 A 
ENDROOT
BRANCH   1  11
HETATM   11  C   UNL     1       1.431  -2.378  -1.350  1.00  0.00     0.025 A 
HETATM   12  C   UNL     1       0.088  -2.730  -1.177  1.00  0.00     0.016 A 
HETATM   13  C   UNL     1      -0.601  -3.621  -0.203  1.00  0.00     0.069 C 
HETATM   14  N   UNL     1      -0.645  -2.104  -2.155  1.00  0.00    -0.359 N 
HETATM   15  H   UNL     1      -1.645  -2.184  -2.268  1.00  0.00     0.166 HD
HETATM   16  C   UNL     1       0.169  -1.425  -3.021  1.00  0.00     0.043 A 
HETATM   17  C   UNL     1       1.472  -1.566  -2.549  1.00  0.00     0.003 A 
HETATM   18  C   UNL     1      -0.152  -0.719  -4.188  1.00  0.00     0.030 A 
HETATM   19  C   UNL     1       2.509  -0.965  -3.299  1.00  0.00     0.014 A 
HETATM   20  C   UNL     1       2.210  -0.257  -4.469  1.00  0.00     0.001 A 
HETATM   21  C   UNL     1       0.895  -0.138  -4.906  1.00  0.00     0.002 A 
ENDBRANCH   1  11
BRANCH   1  22
HETATM   22  O   UNL     1       3.754  -1.914  -0.666  1.00  0.00    -0.371 OA
HETATM   23  H   UNL     1       4.350  -2.122   0.070  1.00  0.00     0.212 HD
ENDBRANCH   1  22
BRANCH   4  24
HETATM   24  C   UNL     1       3.096  -6.535   0.062  1.00  0.00     0.137 C 
BRANCH  24  25
HETATM   25  C   UNL     1       4.477  -7.025  -0.392  1.00  0.00     0.058 C 
BRANCH  25  26
HETATM   26  C   UNL     1       4.484  -8.523  -0.581  1.00  0.00    -0.057 A 
HETATM   27  C   UNL     1       3.855  -9.091  -1.699  1.00  0.00     0.007 A 
HETATM   28  C   UNL     1       3.819 -10.476  -1.864  1.00  0.00     0.001 A 
HETATM   29  C   UNL     1       4.417 -11.305  -0.918  1.00  0.00     0.000 A 
HETATM   30  C   UNL     1       5.053 -10.749   0.192  1.00  0.00     0.001 A 
HETATM   31  C   UNL     1       5.086  -9.364   0.362  1.00  0.00     0.007 A 
ENDBRANCH  25  26
ENDBRANCH  24  25
ENDBRANCH   4  24
TORSDOF 5
