REMARK  5 active torsions:
REMARK  status: ('A' for Active; 'I' for Inactive)
REMARK    1  A    between atoms: C_3  and  O_4 
REMARK    2  A    between atoms: C_6  and  N_7 
REMARK       I    between atoms: N_7  and  C_8 
REMARK    3  A    between atoms: C_8  and  C_9 
REMARK    4  A    between atoms: C_12  and  C_13 
REMARK    5  A    between atoms: C_18  and  C_19 
ROOT
HETATM    1  C   UNL     1      -3.583  -1.452  -0.296  1.00  0.00     0.096 A 
HETATM    2  C   UNL     1      -3.216  -0.134  -0.498  1.00  0.00     0.138 A 
HETATM    3  N   UNL     1      -4.354   0.611  -0.289  1.00  0.00    -0.240 N 
HETATM    4  C   UNL     1      -4.436   2.049  -0.474  1.00  0.00     0.221 C 
HETATM    5  C   UNL     1      -3.024   2.663  -0.484  1.00  0.00     0.066 C 
HETATM    6  C   UNL     1      -2.054   1.847  -1.348  1.00  0.00     0.118 C 
HETATM    7  N   UNL     1      -2.047   0.452  -0.885  1.00  0.00    -0.365 N 
HETATM    8  N   UNL     1      -5.453  -0.136  -0.105  1.00  0.00    -0.181 NA
HETATM    9  C   UNL     1      -4.981  -1.386  -0.086  1.00  0.00     0.160 A 
HETATM   10  H   UNL     1      -1.367  -0.116  -1.395  1.00  0.00     0.161 HD
ENDROOT
BRANCH   1  11
HETATM   11  C   UNL     1      -2.767  -2.653  -0.351  1.00  0.00     0.261 C 
HETATM   12  N   UNL     1      -1.433  -2.413  -0.081  1.00  0.00    -0.323 N 
HETATM   13  H   UNL     1      -1.223  -1.482   0.263  1.00  0.00     0.169 HD
HETATM   14  O   UNL     1      -3.275  -3.743  -0.584  1.00  0.00    -0.267 OA
BRANCH  12  15
HETATM   15  C   UNL     1      -0.360  -3.321  -0.151  1.00  0.00     0.037 A 
HETATM   16  C   UNL     1      -0.462  -4.610  -0.677  1.00  0.00     0.066 A 
HETATM   17  C   UNL     1       0.664  -5.430  -0.732  1.00  0.00     0.067 A 
HETATM   18  C   UNL     1       1.898  -4.991  -0.264  1.00  0.00     0.036 A 
HETATM   19  C   UNL     1       2.007  -3.706   0.262  1.00  0.00     0.005 A 
HETATM   20  C   UNL     1       0.885  -2.874   0.314  1.00  0.00     0.029 A 
BRANCH  17  21
HETATM   21  O   UNL     1       0.516  -6.676  -1.268  1.00  0.00    -0.361 OA
HETATM   22  H   UNL     1       1.369  -7.138  -1.232  1.00  0.00     0.217 HD
ENDBRANCH  17  21
ENDBRANCH  12  15
ENDBRANCH   1  11
BRANCH   4  23
HETATM   23  C   UNL     1      -5.263   2.710   0.608  1.00  0.00     0.409 C 
HETATM   24  F   UNL     1      -4.778   2.466   1.847  1.00  0.00    -0.169 F 
HETATM   25  F   UNL     1      -5.228   4.062   0.442  1.00  0.00    -0.169 F 
HETATM   26  F   UNL     1      -6.566   2.366   0.585  1.00  0.00    -0.169 F 
ENDBRANCH   4  23
BRANCH   6  27
HETATM   27  C   UNL     1      -2.311   1.992  -2.844  1.00  0.00    -0.035 A 
HETATM   28  C   UNL     1      -2.037   3.231  -3.459  1.00  0.00     0.012 A 
HETATM   29  C   UNL     1      -2.260   3.422  -4.824  1.00  0.00     0.043 A 
HETATM   30  C   UNL     1      -2.753   2.376  -5.591  1.00  0.00     0.116 A 
HETATM   31  F   UNL     1      -2.964   2.558  -6.901  1.00  0.00    -0.206 F 
HETATM   32  C   UNL     1      -3.029   1.144  -5.017  1.00  0.00     0.043 A 
HETATM   33  C   UNL     1      -2.810   0.952  -3.650  1.00  0.00     0.012 A 
ENDBRANCH   6  27
TORSDOF 5
