REMARK  6 active torsions:
REMARK  status: ('A' for Active; 'I' for Inactive)
REMARK    1  A    between atoms: C_4  and  C_5 
REMARK    2  A    between atoms: C_5  and  N_6 
REMARK    3  A    between atoms: N_10  and  N_11 
REMARK       I    between atoms: N_11  and  C_12 
REMARK    4  A    between atoms: C_12  and  C_13 
REMARK       I    between atoms: C_13  and  N_14 
REMARK    5  A    between atoms: N_14  and  C_15 
REMARK    6  A    between atoms: C_18  and  O_19 
ROOT
HETATM    1  N   UNL     1       3.557  -1.212   0.060  1.00  0.00    -0.307 N 
HETATM    2  C   UNL     1       4.869  -1.651   0.062  1.00  0.00     0.280 A 
HETATM    3  O   UNL     1       5.897  -1.070   0.347  1.00  0.00    -0.265 OA
HETATM    4  C   UNL     1       4.815  -3.112  -0.380  1.00  0.00     0.157 A 
HETATM    5  N   UNL     1       5.790  -3.950  -0.537  1.00  0.00    -0.165 NA
HETATM    6  C   UNL     1       3.409  -3.413  -0.607  1.00  0.00     0.027 A 
HETATM    7  C   UNL     1       2.691  -2.246  -0.340  1.00  0.00     0.050 A 
HETATM    8  C   UNL     1       2.811  -4.592  -1.008  1.00  0.00     0.016 A 
HETATM    9  C   UNL     1       1.423  -4.585  -1.143  1.00  0.00     0.001 A 
HETATM   10  C   UNL     1       0.683  -3.416  -0.879  1.00  0.00     0.002 A 
HETATM   11  C   UNL     1       1.316  -2.233  -0.473  1.00  0.00     0.031 A 
ENDROOT
BRANCH   5  12
HETATM   12  N   UNL     1       7.050  -3.487  -0.292  1.00  0.00    -0.238 N 
HETATM   13  C   UNL     1       8.144  -4.307  -0.486  1.00  0.00     0.329 C 
HETATM   14  O   UNL     1       8.156  -5.483  -0.835  1.00  0.00    -0.261 OA
HETATM   15  H   UNL     1       7.205  -2.514  -0.004  1.00  0.00     0.192 HD
BRANCH  13  16
HETATM   16  C   UNL     1       9.485  -3.593  -0.242  1.00  0.00     0.315 C 
HETATM   17  N   UNL     1      10.556  -4.409  -0.542  1.00  0.00    -0.319 N 
HETATM   18  H   UNL     1      10.291  -5.342  -0.854  1.00  0.00     0.169 HD
HETATM   19  O   UNL     1       9.483  -2.437   0.155  1.00  0.00    -0.262 OA
BRANCH  17  20
HETATM   20  C   UNL     1      11.924  -4.100  -0.491  1.00  0.00     0.035 A 
HETATM   21  C   UNL     1      12.425  -2.859  -0.091  1.00  0.00     0.032 A 
HETATM   22  C   UNL     1      13.805  -2.622  -0.079  1.00  0.00     0.039 A 
HETATM   23  C   UNL     1      14.679  -3.630  -0.468  1.00  0.00     0.065 A 
HETATM   24  C   UNL     1      14.198  -4.870  -0.865  1.00  0.00     0.039 A 
HETATM   25  C   UNL     1      12.821  -5.105  -0.876  1.00  0.00     0.032 A 
BRANCH  23  26
HETATM   26  O   UNL     1      16.028  -3.439  -0.475  1.00  0.00    -0.361 OA
HETATM   27  H   UNL     1      16.213  -2.531  -0.182  1.00  0.00     0.217 HD
ENDBRANCH  23  26
ENDBRANCH  17  20
ENDBRANCH  13  16
ENDBRANCH   5  12
BRANCH   1  28
HETATM   28  C   UNL     1       3.163   0.134   0.401  1.00  0.00     0.171 C 
BRANCH  28  29
HETATM   29  C   UNL     1       3.148   1.059  -0.792  1.00  0.00    -0.040 A 
HETATM   30  C   UNL     1       1.942   1.421  -1.411  1.00  0.00     0.009 A 
HETATM   31  C   UNL     1       1.940   2.282  -2.510  1.00  0.00     0.001 A 
HETATM   32  C   UNL     1       3.140   2.789  -3.005  1.00  0.00     0.000 A 
HETATM   33  C   UNL     1       4.344   2.435  -2.402  1.00  0.00     0.001 A 
HETATM   34  C   UNL     1       4.349   1.574  -1.304  1.00  0.00     0.009 A 
ENDBRANCH  28  29
ENDBRANCH   1  28
TORSDOF 6
