REMARK  5 active torsions:
REMARK  status: ('A' for Active; 'I' for Inactive)
REMARK    1  A    between atoms: O_2  and  C_3 
REMARK    2  A    between atoms: C_3  and  C_4 
REMARK    3  A    between atoms: C_6  and  C_7 
REMARK       I    between atoms: C_7  and  N_8 
REMARK    4  A    between atoms: N_8  and  C_9 
REMARK    5  A    between atoms: C_10  and  O_11 
ROOT
HETATM    1  C   UNL     1       8.837  -1.925   1.190  1.00  0.00     0.071 A 
HETATM    2  C   UNL     1      10.155  -2.223   0.790  1.00  0.00     0.096 A 
HETATM    3  C   UNL     1      11.074  -1.222   0.440  1.00  0.00     0.054 A 
HETATM    4  C   UNL     1      10.633   0.114   0.447  1.00  0.00     0.014 A 
HETATM    5  C   UNL     1       9.324   0.377   0.836  1.00  0.00     0.089 A 
HETATM    6  O   UNL     1       9.070   1.713   0.781  1.00  0.00    -0.309 OA
HETATM    7  C   UNL     1      10.208   2.319   0.348  1.00  0.00     0.087 A 
HETATM    8  C   UNL     1      11.210   1.379   0.131  1.00  0.00     0.011 A 
HETATM    9  C   UNL     1      10.361   3.688   0.142  1.00  0.00     0.038 A 
HETATM   10  C   UNL     1      11.611   4.116  -0.314  1.00  0.00     0.003 A 
HETATM   11  C   UNL     1      12.646   3.205  -0.543  1.00  0.00     0.001 A 
HETATM   12  C   UNL     1      12.463   1.832  -0.324  1.00  0.00     0.015 A 
HETATM   13  C   UNL     1       8.402  -0.598   1.222  1.00  0.00     0.070 A 
ENDROOT
BRANCH   1  14
HETATM   14  N   UNL     1       8.010  -3.027   1.510  1.00  0.00    -0.320 N 
HETATM   15  C   UNL     1       6.657  -3.013   1.777  1.00  0.00     0.256 C 
HETATM   16  O   UNL     1       5.932  -2.027   1.817  1.00  0.00    -0.267 OA
HETATM   17  H   UNL     1       8.478  -3.922   1.425  1.00  0.00     0.169 HD
BRANCH  15  18
HETATM   18  C   UNL     1       6.037  -4.357   1.951  1.00  0.00     0.033 A 
HETATM   19  C   UNL     1       4.729  -4.537   1.479  1.00  0.00     0.026 A 
HETATM   20  C   UNL     1       4.095  -5.782   1.581  1.00  0.00    -0.034 A 
HETATM   21  C   UNL     1       4.789  -6.846   2.174  1.00  0.00     0.009 A 
HETATM   22  C   UNL     1       6.085  -6.667   2.663  1.00  0.00     0.002 A 
HETATM   23  C   UNL     1       6.711  -5.424   2.555  1.00  0.00     0.017 A 
BRANCH  20  24
HETATM   24  C   UNL     1       2.697  -5.972   1.052  1.00  0.00     0.205 C 
BRANCH  24  25
HETATM   25  O   UNL     1       1.843  -6.360   2.124  1.00  0.00    -0.391 OA
HETATM   26  C   UNL     1       0.479  -6.362   1.727  1.00  0.00     0.201 C 
ENDBRANCH  24  25
ENDBRANCH  20  24
ENDBRANCH  15  18
ENDBRANCH   1  14
BRANCH   2  27
HETATM   27  O   UNL     1      10.543  -3.546   0.788  1.00  0.00    -0.354 OA
HETATM   28  C   UNL     1      10.790  -4.001  -0.544  1.00  0.00     0.210 C 
ENDBRANCH   2  27
TORSDOF 5
