REMARK  5 active torsions:
REMARK  status: ('A' for Active; 'I' for Inactive)
REMARK    1  A    between atoms: C_4  and  C_5 
REMARK    2  A    between atoms: C_5  and  C_6 
REMARK    3  A    between atoms: C_6  and  C_7 
REMARK       I    between atoms: C_7  and  N_8 
REMARK    4  A    between atoms: N_8  and  C_9 
REMARK    5  A    between atoms: C_11  and  C_12 
ROOT
HETATM    1  C   UNL     1       5.342   5.091  -0.679  1.00  0.00     0.222 C 
HETATM    2  N   UNL     1       6.620   4.626  -0.907  1.00  0.00    -0.327 N 
HETATM    3  O   UNL     1       5.006   6.275  -0.679  1.00  0.00    -0.273 OA
HETATM    4  H   UNL     1       6.781   3.631  -0.815  1.00  0.00     0.169 HD
ENDROOT
BRANCH   2   5
HETATM    5  C   UNL     1       7.756   5.367  -1.299  1.00  0.00     0.035 A 
HETATM    6  C   UNL     1       7.752   6.742  -1.549  1.00  0.00     0.042 A 
HETATM    7  C   UNL     1       8.913   7.405  -1.983  1.00  0.00    -0.021 A 
HETATM    8  C   UNL     1      10.092   6.667  -2.148  1.00  0.00     0.012 A 
HETATM    9  C   UNL     1      10.109   5.296  -1.894  1.00  0.00     0.003 A 
HETATM   10  C   UNL     1       8.946   4.650  -1.476  1.00  0.00     0.029 A 
BRANCH   7  11
HETATM   11  C   UNL     1       8.902   8.832  -2.269  1.00  0.00     0.010 A 
HETATM   12  C   UNL     1       9.945   9.789  -2.263  1.00  0.00     0.152 A 
HETATM   13  N   UNL     1       9.533  11.011  -2.610  1.00  0.00    -0.187 NA
HETATM   14  N   UNL     1       8.220  10.845  -2.836  1.00  0.00    -0.289 N 
HETATM   15  H   UNL     1       7.673  11.651  -3.118  1.00  0.00     0.188 HD
HETATM   16  C   UNL     1       7.796   9.561  -2.653  1.00  0.00     0.123 A 
ENDBRANCH   7  11
ENDBRANCH   2   5
BRANCH   1  17
HETATM   17  C   UNL     1       4.257   4.031  -0.494  1.00  0.00     0.108 C 
BRANCH  17  18
HETATM   18  C   UNL     1       4.667   2.629  -0.045  1.00  0.00     0.048 C 
BRANCH  18  19
HETATM   19  C   UNL     1       5.265   1.689  -1.074  1.00  0.00    -0.057 A 
HETATM   20  C   UNL     1       5.445   2.019  -2.426  1.00  0.00     0.013 A 
HETATM   21  C   UNL     1       6.048   1.121  -3.319  1.00  0.00    -0.061 A 
HETATM   22  C   UNL     1       6.289   1.505  -4.750  1.00  0.00     0.048 C 
HETATM   23  C   UNL     1       6.452  -0.135  -2.857  1.00  0.00     0.007 A 
HETATM   24  C   UNL     1       6.256  -0.489  -1.525  1.00  0.00     0.001 A 
HETATM   25  C   UNL     1       5.671   0.417  -0.640  1.00  0.00     0.007 A 
ENDBRANCH  18  19
ENDBRANCH  17  18
ENDBRANCH   1  17
TORSDOF 5
