REMARK  8 active torsions:
REMARK  status: ('A' for Active; 'I' for Inactive)
REMARK    1  A    between atoms: N_4  and  C_5 
REMARK    2  A    between atoms: C_5  and  C_6 
REMARK    3  A    between atoms: C_6  and  C_7 
REMARK    4  A    between atoms: C_7  and  N_8 
REMARK       I    between atoms: N_8  and  C_9 
REMARK       I    between atoms: C_9  and  N_10 
REMARK    5  A    between atoms: N_10  and  N_11 
REMARK       I    between atoms: N_11  and  C_12 
REMARK    6  A    between atoms: C_12  and  C_13 
REMARK    7  A    between atoms: C_13  and  O_14 
REMARK    8  A    between atoms: O_14  and  C_15 
ROOT
HETATM    1  N   UNL     1       5.960  -0.338  -1.973  1.00  0.00    -0.341 N 
HETATM    2  C   UNL     1       4.699   0.037  -2.328  1.00  0.00     0.334 C 
HETATM    3  N   UNL     1       3.803  -0.995  -2.470  1.00  0.00    -0.249 N 
HETATM    4  O   UNL     1       4.336   1.198  -2.489  1.00  0.00    -0.246 OA
HETATM    5  H   UNL     1       6.065  -1.288  -1.638  1.00  0.00     0.164 HD
HETATM    6  H   UNL     1       2.898  -0.700  -2.827  1.00  0.00     0.192 HD
ENDROOT
BRANCH   1   7
HETATM    7  C   UNL     1       6.980   0.612  -1.571  1.00  0.00     0.130 C 
BRANCH   7   8
HETATM    8  C   UNL     1       6.946   0.914  -0.059  1.00  0.00     0.019 C 
HETATM    9  C   UNL     1       5.701   1.718   0.337  1.00  0.00     0.013 C 
BRANCH   8  10
HETATM   10  C   UNL     1       8.201   1.703   0.367  1.00  0.00     0.156 C 
BRANCH  10  11
HETATM   11  N   UNL     1       9.452   0.960   0.406  1.00  0.00    -0.274 N 
HETATM   12  N   UNL     1       9.453  -0.381   0.294  1.00  0.00    -0.177 NA
HETATM   13  C   UNL     1      10.736  -0.729   0.429  1.00  0.00     0.053 A 
HETATM   14  C   UNL     1      11.141  -2.153   0.365  1.00  0.00     0.072 C 
HETATM   15  C   UNL     1      11.558   0.398   0.638  1.00  0.00     0.055 A 
HETATM   16  C   UNL     1      10.704   1.482   0.630  1.00  0.00     0.028 A 
HETATM   17  C   UNL     1      10.980   2.926   0.817  1.00  0.00     0.070 C 
ENDBRANCH  10  11
ENDBRANCH   8  10
ENDBRANCH   7   8
ENDBRANCH   1   7
BRANCH   3  18
HETATM   18  N   UNL     1       4.214  -2.301  -2.783  1.00  0.00    -0.264 N 
HETATM   19  C   UNL     1       4.086  -3.323  -1.869  1.00  0.00     0.260 C 
HETATM   20  O   UNL     1       3.882  -4.470  -2.265  1.00  0.00    -0.269 OA
HETATM   21  H   UNL     1       4.066  -2.585  -3.748  1.00  0.00     0.190 HD
BRANCH  19  22
HETATM   22  C   UNL     1       4.288  -2.991  -0.392  1.00  0.00     0.280 C 
BRANCH  22  23
HETATM   23  O   UNL     1       5.641  -2.615  -0.118  1.00  0.00    -0.342 OA
BRANCH  23  24
HETATM   24  C   UNL     1       6.422  -3.713   0.121  1.00  0.00     0.069 A 
HETATM   25  C   UNL     1       7.061  -4.360  -0.936  1.00  0.00     0.038 A 
HETATM   26  C   UNL     1       7.865  -5.472  -0.681  1.00  0.00     0.022 A 
HETATM   27  C   UNL     1       8.043  -5.909   0.632  1.00  0.00     0.011 A 
HETATM   28 BR   UNL     1       9.128  -7.418   0.977  1.00  0.00    -0.051 Br
HETATM   29  C   UNL     1       7.432  -5.239   1.692  1.00  0.00     0.022 A 
HETATM   30  C   UNL     1       6.624  -4.129   1.436  1.00  0.00     0.038 A 
ENDBRANCH  23  24
ENDBRANCH  22  23
ENDBRANCH  19  22
ENDBRANCH   3  18
TORSDOF 8
