REMARK  5 active torsions:
REMARK  status: ('A' for Active; 'I' for Inactive)
REMARK    1  A    between atoms: C_2  and  O_4 
REMARK    2  A    between atoms: O_4  and  C_5 
REMARK    3  A    between atoms: C_10  and  C_11 
REMARK    4  A    between atoms: C_13  and  N_14 
REMARK    5  A    between atoms: N_14  and  C_15 
ROOT
HETATM    1  C   UNL     1       4.687  -1.557  -3.456  1.00  0.00     0.164 A 
HETATM    2  N   UNL     1       4.109  -0.545  -4.115  1.00  0.00    -0.215 NA
HETATM    3  C   UNL     1       3.457  -0.826  -5.256  1.00  0.00     0.122 A 
HETATM    4  C   UNL     1       3.442  -2.125  -5.801  1.00  0.00     0.033 A 
HETATM    5  C   UNL     1       2.860  -2.495  -7.043  1.00  0.00     0.017 A 
HETATM    6  C   UNL     1       2.881  -3.818  -7.478  1.00  0.00     0.001 A 
HETATM    7  C   UNL     1       3.481  -4.786  -6.686  1.00  0.00     0.002 A 
HETATM    8  C   UNL     1       4.065  -4.420  -5.470  1.00  0.00     0.032 A 
HETATM    9  C   UNL     1       4.062  -3.107  -5.017  1.00  0.00     0.072 A 
HETATM   10  N   UNL     1       4.657  -2.839  -3.853  1.00  0.00    -0.228 NA
ENDROOT
BRANCH   3  11
HETATM   11  N   UNL     1       2.827   0.239  -5.969  1.00  0.00    -0.243 NA
HETATM   12  H   UNL     1       1.926  -0.106  -6.294  1.00  0.00     0.135 HD
BRANCH  11  13
HETATM   13  C   UNL     1       2.591   1.548  -5.463  1.00  0.00     0.015 A 
HETATM   14  C   UNL     1       2.201   1.780  -4.137  1.00  0.00     0.026 A 
HETATM   15  C   UNL     1       1.880   3.061  -3.670  1.00  0.00     0.034 A 
HETATM   16  C   UNL     1       1.932   4.103  -4.596  1.00  0.00     0.061 A 
HETATM   17  N   UNL     1       1.690   5.445  -4.472  1.00  0.00    -0.278 N 
HETATM   18  C   UNL     1       2.273   3.911  -5.929  1.00  0.00     0.013 A 
HETATM   19  H   UNL     1       1.419   5.948  -3.635  1.00  0.00     0.189 HD
HETATM   20  N   UNL     1       1.836   6.137  -5.617  1.00  0.00    -0.186 NA
HETATM   21  C   UNL     1       2.194   5.200  -6.500  1.00  0.00     0.152 A 
HETATM   22  C   UNL     1       2.587   2.616  -6.378  1.00  0.00     0.039 A 
ENDBRANCH  11  13
ENDBRANCH   3  11
BRANCH   1  23
HETATM   23  C   UNL     1       5.362  -1.257  -2.185  1.00  0.00     0.046 A 
HETATM   24  C   UNL     1       6.128  -0.095  -1.981  1.00  0.00     0.093 A 
HETATM   25  C   UNL     1       6.785   0.162  -0.771  1.00  0.00     0.038 A 
HETATM   26  C   UNL     1       6.655  -0.734   0.286  1.00  0.00     0.003 A 
HETATM   27  C   UNL     1       5.895  -1.890   0.124  1.00  0.00     0.001 A 
HETATM   28  C   UNL     1       5.263  -2.149  -1.098  1.00  0.00     0.018 A 
BRANCH  24  29
HETATM   29  O   UNL     1       6.356   0.782  -3.054  1.00  0.00    -0.278 OA
BRANCH  29  30
HETATM   30  C   UNL     1       5.690   1.999  -2.954  1.00  0.00     0.260 C 
HETATM   31  C   UNL     1       5.953   2.790  -4.201  1.00  0.00     0.126 C 
HETATM   32  O   UNL     1       5.041   2.408  -1.999  1.00  0.00    -0.265 OA
ENDBRANCH  29  30
ENDBRANCH  24  29
ENDBRANCH   1  23
TORSDOF 5
