REMARK  6 active torsions:
REMARK  status: ('A' for Active; 'I' for Inactive)
REMARK    1  A    between atoms: C_4  and  C_5 
REMARK    2  A    between atoms: C_5  and  O_6 
REMARK    3  A    between atoms: O_6  and  C_7 
REMARK    4  A    between atoms: C_10  and  C_11 
REMARK    5  A    between atoms: C_17  and  C_18 
REMARK    6  A    between atoms: C_26  and  N_27 
ROOT
HETATM    1  C   UNL     1       8.857  -1.933  -1.202  1.00  0.00     0.072 A 
HETATM    2  N   UNL     1       9.920  -1.054  -1.226  1.00  0.00    -0.274 N 
HETATM    3  H   UNL     1       9.924  -0.082  -0.937  1.00  0.00     0.189 HD
HETATM    4  N   UNL     1      11.064  -1.585  -1.705  1.00  0.00    -0.148 NA
HETATM    5  C   UNL     1      10.708  -2.835  -1.966  1.00  0.00     0.199 A 
HETATM    6  C   UNL     1       9.375  -3.126  -1.678  1.00  0.00     0.040 A 
HETATM    7  C   UNL     1       8.806  -4.476  -1.949  1.00  0.00     0.108 A 
HETATM    8  C   UNL     1       9.889  -5.410  -2.494  1.00  0.00     0.081 A 
HETATM    9  C   UNL     1       9.517  -6.774  -2.693  1.00  0.00     0.100 C 
HETATM   10  N   UNL     1       9.209  -7.881  -2.854  1.00  0.00    -0.191 NA
HETATM   11  C   UNL     1      11.165  -5.008  -2.735  1.00  0.00     0.140 A 
HETATM   12  O   UNL     1      11.595  -3.696  -2.494  1.00  0.00    -0.277 OA
ENDROOT
BRANCH   7  13
HETATM   13  C   UNL     1       7.615  -4.405  -2.869  1.00  0.00    -0.020 A 
HETATM   14  C   UNL     1       7.533  -3.814  -4.116  1.00  0.00     0.149 A 
HETATM   15  O   UNL     1       6.288  -3.949  -4.637  1.00  0.00    -0.334 OA
HETATM   16  C   UNL     1       5.551  -4.633  -3.727  1.00  0.00     0.142 A 
HETATM   17  C   UNL     1       6.314  -4.940  -2.625  1.00  0.00     0.034 A 
ENDBRANCH   7  13
BRANCH  11  18
HETATM   18  N   UNL     1      12.173  -5.812  -3.224  1.00  0.00    -0.282 NA
HETATM   19  H   UNL     1      11.874  -6.601  -3.792  1.00  0.00     0.126 HD
HETATM   20  H   UNL     1      12.916  -5.267  -3.659  1.00  0.00     0.126 HD
ENDBRANCH  11  18
BRANCH   1  21
HETATM   21  C   UNL     1       7.511  -1.551  -0.798  1.00  0.00    -0.007 A 
HETATM   22  C   UNL     1       6.906  -0.413  -1.344  1.00  0.00     0.016 A 
HETATM   23  C   UNL     1       5.585  -0.081  -1.022  1.00  0.00     0.037 A 
HETATM   24  C   UNL     1       4.853  -0.891  -0.155  1.00  0.00     0.069 A 
HETATM   25  C   UNL     1       5.466  -2.003   0.424  1.00  0.00     0.037 A 
HETATM   26  C   UNL     1       6.785  -2.336   0.102  1.00  0.00     0.016 A 
BRANCH  24  27
HETATM   27  O   UNL     1       3.548  -0.695   0.204  1.00  0.00    -0.347 OA
BRANCH  27  28
HETATM   28  C   UNL     1       2.775   0.139  -0.664  1.00  0.00     0.214 C 
BRANCH  28  29
HETATM   29  C   UNL     1       1.298  -0.047  -0.400  1.00  0.00    -0.034 A 
HETATM   30  C   UNL     1       0.417   1.035  -0.554  1.00  0.00     0.009 A 
HETATM   31  C   UNL     1      -0.957   0.864  -0.375  1.00  0.00     0.001 A 
HETATM   32  C   UNL     1      -1.468  -0.391  -0.049  1.00  0.00     0.000 A 
HETATM   33  C   UNL     1      -0.606  -1.476   0.095  1.00  0.00     0.001 A 
HETATM   34  C   UNL     1       0.768  -1.307  -0.086  1.00  0.00     0.009 A 
ENDBRANCH  28  29
ENDBRANCH  27  28
ENDBRANCH  24  27
ENDBRANCH   1  21
TORSDOF 6
