REMARK  3 active torsions:
REMARK  status: ('A' for Active; 'I' for Inactive)
REMARK    1  A    between atoms: N_3  and  C_4 
REMARK    2  A    between atoms: C_8  and  C_9 
REMARK       I    between atoms: C_9  and  N_10 
REMARK    3  A    between atoms: C_17  and  O_18 
ROOT
HETATM    1  C   UNL     1       5.568   3.797  -0.746  1.00  0.00     0.254 C 
HETATM    2  N   UNL     1       6.661   3.048  -1.171  1.00  0.00    -0.343 N 
HETATM    3  C   UNL     1       7.569   3.683  -2.118  1.00  0.00     0.165 C 
HETATM    4  C   UNL     1       8.410   2.687  -2.887  1.00  0.00    -0.031 A 
HETATM    5  C   UNL     1       8.515   1.342  -2.479  1.00  0.00    -0.049 A 
HETATM    6  C   UNL     1       7.726   0.834  -1.296  1.00  0.00     0.059 C 
HETATM    7  C   UNL     1       7.256   1.967  -0.386  1.00  0.00     0.131 C 
HETATM    8  C   UNL     1       9.122   3.122  -4.016  1.00  0.00     0.046 A 
HETATM    9  C   UNL     1       9.902   2.222  -4.735  1.00  0.00     0.066 A 
HETATM   10  C   UNL     1       9.997   0.892  -4.347  1.00  0.00     0.037 A 
HETATM   11  C   UNL     1       9.303   0.450  -3.221  1.00  0.00     0.010 A 
HETATM   12  O   UNL     1       5.419   4.985  -1.024  1.00  0.00    -0.267 OA
ENDROOT
BRANCH   1  13
HETATM   13  C   UNL     1       4.489   3.128   0.020  1.00  0.00     0.035 A 
HETATM   14  C   UNL     1       3.861   3.827   1.052  1.00  0.00     0.061 A 
HETATM   15  C   UNL     1       2.790   3.249   1.734  1.00  0.00     0.146 A 
HETATM   16  C   UNL     1       2.323   1.976   1.393  1.00  0.00     0.096 A 
HETATM   17  F   UNL     1       2.238   3.967   2.721  1.00  0.00    -0.204 F 
HETATM   18  C   UNL     1       2.954   1.283   0.344  1.00  0.00     0.036 A 
HETATM   19  C   UNL     1       4.022   1.862  -0.348  1.00  0.00     0.019 A 
BRANCH  16  20
HETATM   20  N   UNL     1       1.222   1.369   2.056  1.00  0.00    -0.242 N 
HETATM   21  C   UNL     1       0.413   1.875   3.052  1.00  0.00     0.120 A 
HETATM   22  C   UNL     1      -0.521   0.913   3.354  1.00  0.00     0.040 A 
HETATM   23  C   UNL     1      -0.213  -0.153   2.502  1.00  0.00     0.140 A 
HETATM   24  N   UNL     1       0.831   0.107   1.716  1.00  0.00    -0.180 NA
ENDBRANCH  16  20
ENDBRANCH   1  13
BRANCH   9  25
HETATM   25  O   UNL     1      10.593   2.609  -5.845  1.00  0.00    -0.361 OA
HETATM   26  H   UNL     1      10.404   3.546  -6.017  1.00  0.00     0.217 HD
ENDBRANCH   9  25
TORSDOF 3
