REMARK  7 active torsions:
REMARK  status: ('A' for Active; 'I' for Inactive)
REMARK    1  A    between atoms: O_2  and  C_3 
REMARK    2  A    between atoms: C_5  and  C_6 
REMARK    3  A    between atoms: C_6  and  O_7 
REMARK    4  A    between atoms: C_6  and  C_8 
REMARK    5  A    between atoms: C_8  and  N_9 
REMARK       I    between atoms: N_9  and  C_10 
REMARK    6  A    between atoms: C_10  and  C_11 
REMARK    7  A    between atoms: C_12  and  C_13 
ROOT
HETATM    1  C   UNL     1       0.815   5.811   2.224  1.00  0.00     0.089 C 
HETATM    2  C   UNL     1      -0.737   5.967   2.228  1.00  0.00     0.068 C 
HETATM    3  C   UNL     1      -1.415   5.366   0.976  1.00  0.00     0.013 C 
HETATM    4  C   UNL     1      -0.944   3.960   0.648  1.00  0.00     0.001 C 
HETATM    5  C   UNL     1       0.562   3.951   0.466  1.00  0.00     0.001 C 
HETATM    6  C   UNL     1       1.251   4.411   1.741  1.00  0.00     0.015 C 
ENDROOT
BRANCH   1   7
HETATM    7  C   UNL     1       1.392   6.154   3.623  1.00  0.00     0.222 C 
HETATM    8  N   UNL     1       2.385   5.353   4.131  1.00  0.00    -0.358 N 
HETATM    9  H   UNL     1       2.803   4.639   3.553  1.00  0.00     0.162 HD
HETATM   10  O   UNL     1       0.998   7.125   4.268  1.00  0.00    -0.273 OA
BRANCH   8  11
HETATM   11  C   UNL     1       3.106   5.675   5.357  1.00  0.00     0.159 C 
BRANCH  11  12
HETATM   12  C   UNL     1       2.270   5.983   6.621  1.00  0.00     0.169 C 
BRANCH  12  13
HETATM   13  C   UNL     1       1.283   4.895   6.994  1.00  0.00    -0.025 A 
HETATM   14  C   UNL     1       1.726   3.661   7.504  1.00  0.00     0.046 A 
HETATM   15  C   UNL     1       0.813   2.671   7.869  1.00  0.00     0.068 A 
HETATM   16  C   UNL     1      -0.554   2.909   7.710  1.00  0.00     0.037 A 
HETATM   17  C   UNL     1      -1.009   4.126   7.202  1.00  0.00     0.003 A 
HETATM   18  C   UNL     1      -0.094   5.115   6.849  1.00  0.00     0.010 A 
BRANCH  15  19
HETATM   19  O   UNL     1       1.123   1.444   8.387  1.00  0.00    -0.356 OA
HETATM   20  C   UNL     1       2.494   1.198   8.676  1.00  0.00     0.210 C 
ENDBRANCH  15  19
ENDBRANCH  12  13
BRANCH  12  21
HETATM   21  O   UNL     1       3.168   6.179   7.723  1.00  0.00    -0.389 OA
HETATM   22  H   UNL     1       2.615   6.217   8.524  1.00  0.00     0.210 HD
ENDBRANCH  12  21
ENDBRANCH  11  12
ENDBRANCH   8  11
ENDBRANCH   1   7
BRANCH   2  23
HETATM   23  C   UNL     1      -1.188   7.408   2.351  1.00  0.00     0.110 A 
HETATM   24  N   UNL     1      -1.525   8.228   1.374  1.00  0.00    -0.233 NA
HETATM   25  C   UNL     1      -1.893   9.406   1.982  1.00  0.00     0.087 A 
HETATM   26  C   UNL     1      -1.784   9.306   3.362  1.00  0.00     0.062 A 
HETATM   27  C   UNL     1      -2.325  10.612   1.413  1.00  0.00     0.057 A 
HETATM   28  N   UNL     1      -1.335   8.030   3.568  1.00  0.00    -0.342 N 
HETATM   29  C   UNL     1      -2.073  10.352   4.241  1.00  0.00     0.034 A 
HETATM   30  H   UNL     1      -1.022   7.645   4.449  1.00  0.00     0.167 HD
HETATM   31  C   UNL     1      -2.504  11.548   3.660  1.00  0.00     0.026 A 
HETATM   32  C   UNL     1      -2.626  11.673   2.273  1.00  0.00     0.036 A 
HETATM   33 CL   UNL     1      -3.155  13.172   1.607  1.00  0.00    -0.084 Cl
ENDBRANCH   2  23
TORSDOF 7
