REMARK  7 active torsions:
REMARK  status: ('A' for Active; 'I' for Inactive)
REMARK    1  A    between atoms: C_2  and  O_3 
REMARK    2  A    between atoms: O_3  and  C_4 
REMARK    3  A    between atoms: C_4  and  C_5 
REMARK    4  A    between atoms: C_12  and  C_13 
REMARK    5  A    between atoms: C_13  and  N_14 
REMARK    6  A    between atoms: C_19  and  N_20 
REMARK    7  A    between atoms: N_23  and  C_25 
ROOT
HETATM    1  C   UNL     1       5.681   0.614  -0.294  1.00  0.00     0.089 C 
HETATM    2  S   UNL     1       6.909   0.501   0.891  1.00  0.00    -0.063 SA
HETATM    3  C   UNL     1       6.868  -1.192   0.878  1.00  0.00     0.115 C 
HETATM    4  C   UNL     1       5.886  -1.713   0.055  1.00  0.00     0.053 C 
HETATM    5  C   UNL     1       5.330  -0.650  -0.774  1.00  0.00    -0.022 C 
HETATM    6  C   UNL     1       4.463  -0.856  -1.984  1.00  0.00     0.051 C 
HETATM    7  N   UNL     1       7.732  -1.880   1.639  1.00  0.00    -0.224 NA
HETATM    8  C   UNL     1       7.558  -3.204   1.560  1.00  0.00     0.155 C 
HETATM    9  N   UNL     1       6.562  -3.837   0.905  1.00  0.00    -0.213 NA
HETATM   10  C   UNL     1       5.682  -3.119   0.149  1.00  0.00     0.141 C 
ENDROOT
BRANCH  10  11
HETATM   11  N   UNL     1       4.647  -3.795  -0.495  1.00  0.00    -0.362 N 
HETATM   12  C   UNL     1       3.275  -3.304  -0.254  1.00  0.00     0.152 C 
HETATM   13  C   UNL     1       2.566  -4.072   0.878  1.00  0.00     0.255 C 
HETATM   14  N   UNL     1       2.604  -5.580   0.623  1.00  0.00    -0.064 N 
HETATM   15  H   UNL     1       2.154  -5.743  -0.289  1.00  0.00     0.280 HD
HETATM   16  C   UNL     1       4.069  -6.027   0.487  1.00  0.00     0.255 C 
HETATM   17  C   UNL     1       4.767  -5.254  -0.653  1.00  0.00     0.152 C 
BRANCH  14  18
HETATM   18  C   UNL     1       1.826  -6.364   1.656  1.00  0.00     0.188 C 
HETATM   19  C   UNL     1       0.351  -5.971   1.671  1.00  0.00     0.033 C 
HETATM   20  C   UNL     1      -0.311  -7.137   2.387  1.00  0.00     0.002 C 
HETATM   21  C   UNL     1       0.492  -8.369   1.980  1.00  0.00     0.002 C 
HETATM   22  C   UNL     1       1.767  -7.851   1.313  1.00  0.00     0.033 C 
ENDBRANCH  14  18
ENDBRANCH  10  11
BRANCH   8  23
HETATM   23  C   UNL     1       8.650  -4.040   2.220  1.00  0.00     0.314 C 
BRANCH  23  24
HETATM   24  N   UNL     1       9.640  -3.223   3.056  1.00  0.00    -0.072 N 
HETATM   25  H   UNL     1       9.673  -2.304   2.582  1.00  0.00     0.279 HD
HETATM   26  C   UNL     1       9.143  -2.946   4.444  1.00  0.00     0.269 C 
HETATM   27  C   UNL     1      11.027  -3.785   3.047  1.00  0.00     0.269 C 
ENDBRANCH  23  24
ENDBRANCH   8  23
BRANCH   1  28
HETATM   28  C   UNL     1       5.134   1.903  -0.713  1.00  0.00     0.300 C 
HETATM   29  O   UNL     1       4.283   2.038  -1.583  1.00  0.00    -0.259 OA
BRANCH  28  30
HETATM   30  O   UNL     1       5.617   2.922   0.052  1.00  0.00    -0.317 OA
BRANCH  30  31
HETATM   31  C   UNL     1       5.028   4.213  -0.175  1.00  0.00     0.174 C 
HETATM   32  C   UNL     1       3.755   4.350   0.640  1.00  0.00     0.034 C 
ENDBRANCH  30  31
ENDBRANCH  28  30
ENDBRANCH   1  28
TORSDOF 7
