REMARK  9 active torsions:
REMARK  status: ('A' for Active; 'I' for Inactive)
REMARK    1  A    between atoms: C_4  and  S_5 
REMARK    2  A    between atoms: S_5  and  C_6 
REMARK    3  A    between atoms: C_6  and  C_7 
REMARK       I    between atoms: C_7  and  N_8 
REMARK    4  A    between atoms: N_8  and  C_9 
REMARK    5  A    between atoms: C_9  and  C_10 
REMARK    6  A    between atoms: C_20  and  C_21 
REMARK    7  A    between atoms: C_26  and  C_27 
REMARK       I    between atoms: C_27  and  N_28 
REMARK    8  A    between atoms: N_28  and  C_29 
REMARK    9  A    between atoms: C_31  and  C_32 
ROOT
HETATM    1  C   UNL     1       0.998  -0.310   0.626  1.00  0.00     0.069 C 
HETATM    2  C   UNL     1       2.461  -0.333   0.247  1.00  0.00     0.019 C 
HETATM    3  N   UNL     1       3.018   0.903  -0.029  1.00  0.00    -0.353 N 
HETATM    4  C   UNL     1       4.360   1.164  -0.242  1.00  0.00     0.087 C 
HETATM    5  C   UNL     1       5.189   0.106  -0.406  1.00  0.00     0.057 C 
HETATM    6  C   UNL     1       6.652   0.225  -0.802  1.00  0.00     0.019 C 
HETATM    7  N   UNL     1       7.866   0.323  -1.129  1.00  0.00    -0.096 N 
HETATM    8  C   UNL     1       4.650  -1.333  -0.380  1.00  0.00     0.129 C 
HETATM    9  C   UNL     1       3.223  -1.450   0.153  1.00  0.00     0.048 C 
HETATM   10  H   UNL     1       2.386   1.697  -0.050  1.00  0.00     0.166 HD
ENDROOT
BRANCH   4  11
HETATM   11  S   UNL     1       4.963   2.815  -0.365  1.00  0.00    -0.102 SA
BRANCH  11  12
HETATM   12  C   UNL     1       3.946   3.650   0.892  1.00  0.00     0.183 C 
BRANCH  12  13
HETATM   13  C   UNL     1       4.170   5.148   0.969  1.00  0.00     0.227 C 
HETATM   14  N   UNL     1       5.469   5.590   0.912  1.00  0.00    -0.356 N 
HETATM   15  H   UNL     1       6.226   4.919   0.857  1.00  0.00     0.162 HD
HETATM   16  O   UNL     1       3.224   5.911   1.167  1.00  0.00    -0.273 OA
BRANCH  14  17
HETATM   17  C   UNL     1       5.775   6.981   1.161  1.00  0.00     0.161 C 
BRANCH  17  18
HETATM   18  C   UNL     1       7.157   7.372   0.711  1.00  0.00    -0.041 A 
HETATM   19  C   UNL     1       7.620   7.049  -0.573  1.00  0.00     0.009 A 
HETATM   20  C   UNL     1       8.878   7.475  -1.002  1.00  0.00     0.001 A 
HETATM   21  C   UNL     1       9.682   8.240  -0.159  1.00  0.00     0.000 A 
HETATM   22  C   UNL     1       9.230   8.578   1.115  1.00  0.00     0.001 A 
HETATM   23  C   UNL     1       7.974   8.149   1.547  1.00  0.00     0.009 A 
ENDBRANCH  17  18
ENDBRANCH  14  17
ENDBRANCH  12  13
ENDBRANCH  11  12
ENDBRANCH   4  11
BRANCH   8  24
HETATM   24  C   UNL     1       4.793  -1.976  -1.742  1.00  0.00     0.066 A 
HETATM   25  O   UNL     1       5.458  -3.168  -1.778  1.00  0.00    -0.326 OA
HETATM   26  C   UNL     1       5.482  -3.569  -3.075  1.00  0.00     0.142 A 
HETATM   27  C   UNL     1       4.819  -2.665  -3.871  1.00  0.00     0.027 A 
HETATM   28  C   UNL     1       4.367  -1.636  -3.010  1.00  0.00     0.035 A 
ENDBRANCH   8  24
BRANCH   9  29
HETATM   29  C   UNL     1       2.698  -2.774   0.654  1.00  0.00     0.255 C 
HETATM   30  N   UNL     1       3.306  -3.901   0.146  1.00  0.00    -0.323 N 
HETATM   31  H   UNL     1       4.095  -3.795  -0.478  1.00  0.00     0.169 HD
HETATM   32  O   UNL     1       1.824  -2.791   1.516  1.00  0.00    -0.268 OA
BRANCH  30  33
HETATM   33  C   UNL     1       2.950  -5.248   0.388  1.00  0.00     0.035 A 
HETATM   34  C   UNL     1       1.796  -5.647   1.065  1.00  0.00     0.045 A 
HETATM   35  C   UNL     1       1.491  -7.010   1.236  1.00  0.00     0.050 A 
HETATM   36  C   UNL     1       2.380  -7.976   0.742  1.00  0.00     0.016 A 
HETATM   37  C   UNL     1       3.534  -7.587   0.067  1.00  0.00     0.003 A 
HETATM   38  C   UNL     1       3.811  -6.232  -0.117  1.00  0.00     0.029 A 
BRANCH  35  39
HETATM   39  C   UNL     1       0.238  -7.426   1.965  1.00  0.00     0.417 C 
HETATM   40  F   UNL     1      -0.784  -6.533   1.841  1.00  0.00    -0.166 F 
HETATM   41  F   UNL     1      -0.261  -8.616   1.523  1.00  0.00    -0.166 F 
HETATM   42  F   UNL     1       0.441  -7.583   3.302  1.00  0.00    -0.166 F 
ENDBRANCH  35  39
ENDBRANCH  30  33
ENDBRANCH   9  29
TORSDOF 9
