REMARK  6 active torsions:
REMARK  status: ('A' for Active; 'I' for Inactive)
REMARK    1  A    between atoms: O_2  and  C_3 
REMARK    2  A    between atoms: C_3  and  C_4 
REMARK    3  A    between atoms: C_11  and  C_12 
REMARK    4  A    between atoms: C_12  and  S_13 
REMARK    5  A    between atoms: S_13  and  C_14 
REMARK    6  A    between atoms: C_16  and  C_17 
ROOT
HETATM    1  C   UNL     1       2.526   2.396  -0.213  1.00  0.00     0.041 A 
HETATM    2  C   UNL     1       3.180   3.637  -0.151  1.00  0.00     0.050 A 
HETATM    3  C   UNL     1       2.457   4.828  -0.265  1.00  0.00     0.075 A 
HETATM    4  C   UNL     1       1.072   4.759  -0.438  1.00  0.00     0.061 A 
HETATM    5  C   UNL     1       0.343   6.029  -0.588  1.00  0.00     0.259 A 
HETATM    6  O   UNL     1      -0.869   6.073  -0.761  1.00  0.00    -0.267 OA
HETATM    7  N   UNL     1       1.115   7.159  -0.533  1.00  0.00    -0.310 N 
HETATM    8  C   UNL     1       2.479   7.141  -0.386  1.00  0.00     0.117 A 
HETATM    9  N   UNL     1       3.156   6.047  -0.225  1.00  0.00    -0.234 NA
HETATM   10  C   UNL     1       0.402   3.535  -0.495  1.00  0.00     0.020 A 
HETATM   11  C   UNL     1       1.134   2.352  -0.382  1.00  0.00     0.019 A 
HETATM   12  H   UNL     1       0.635   8.022  -0.750  1.00  0.00     0.170 HD
ENDROOT
BRANCH   8  13
HETATM   13  C   UNL     1       3.155   8.497  -0.391  1.00  0.00     0.161 C 
BRANCH  13  14
HETATM   14  S   UNL     1       4.282   8.678  -1.800  1.00  0.00    -0.083 SA
BRANCH  14  15
HETATM   15  C   UNL     1       3.227   8.432  -3.134  1.00  0.00     0.185 A 
HETATM   16  N   UNL     1       1.926   8.297  -3.142  1.00  0.00    -0.201 NA
HETATM   17  C   UNL     1       1.648   8.031  -4.473  1.00  0.00     0.182 A 
HETATM   18  N   UNL     1       2.732   8.056  -5.269  1.00  0.00    -0.152 NA
HETATM   19  N   UNL     1       3.716   8.307  -4.392  1.00  0.00    -0.253 N 
HETATM   20  H   UNL     1       4.677   8.356  -4.706  1.00  0.00     0.191 HD
BRANCH  17  21
HETATM   21  C   UNL     1       0.302   7.712  -4.945  1.00  0.00     0.013 A 
HETATM   22  C   UNL     1      -0.768   7.623  -4.044  1.00  0.00     0.015 A 
HETATM   23  C   UNL     1      -2.049   7.284  -4.487  1.00  0.00     0.001 A 
HETATM   24  C   UNL     1      -2.277   7.036  -5.838  1.00  0.00     0.000 A 
HETATM   25  C   UNL     1      -1.226   7.126  -6.748  1.00  0.00     0.001 A 
HETATM   26  C   UNL     1       0.057   7.461  -6.304  1.00  0.00     0.015 A 
ENDBRANCH  17  21
ENDBRANCH  14  15
ENDBRANCH  13  14
ENDBRANCH   8  13
BRANCH   1  27
HETATM   27  C   UNL     1       3.260   1.105  -0.121  1.00  0.00     0.293 C 
HETATM   28  O   UNL     1       2.714   0.016  -0.196  1.00  0.00    -0.259 OA
BRANCH  27  29
HETATM   29  O   UNL     1       4.588   1.317   0.050  1.00  0.00    -0.323 OA
HETATM   30  C   UNL     1       5.361   0.119   0.131  1.00  0.00     0.213 C 
ENDBRANCH  27  29
ENDBRANCH   1  27
TORSDOF 6
