REMARK  8 active torsions:
REMARK  status: ('A' for Active; 'I' for Inactive)
REMARK    1  A    between atoms: C_4  and  S_5 
REMARK    2  A    between atoms: S_5  and  C_6 
REMARK    3  A    between atoms: C_6  and  C_7 
REMARK       I    between atoms: C_7  and  N_8 
REMARK    4  A    between atoms: N_8  and  C_9 
REMARK    5  A    between atoms: C_20  and  C_21 
REMARK    6  A    between atoms: C_27  and  C_28 
REMARK       I    between atoms: C_28  and  N_29 
REMARK    7  A    between atoms: N_29  and  C_30 
REMARK    8  A    between atoms: C_31  and  O_32 
ROOT
HETATM    1  C   UNL     1       1.022   0.027   0.337  1.00  0.00     0.069 C 
HETATM    2  C   UNL     1       2.495  -0.039   0.022  1.00  0.00     0.019 C 
HETATM    3  N   UNL     1       3.153   1.178  -0.055  1.00  0.00    -0.353 N 
HETATM    4  C   UNL     1       4.523   1.329  -0.169  1.00  0.00     0.087 C 
HETATM    5  C   UNL     1       5.289   0.239  -0.408  1.00  0.00     0.055 C 
HETATM    6  C   UNL     1       6.752   0.357  -0.803  1.00  0.00     0.019 C 
HETATM    7  N   UNL     1       7.965   0.456  -1.131  1.00  0.00    -0.096 N 
HETATM    8  C   UNL     1       4.681  -1.168  -0.450  1.00  0.00     0.104 C 
HETATM    9  C   UNL     1       3.192  -1.185  -0.146  1.00  0.00     0.046 C 
HETATM   10  H   UNL     1       2.657   1.996   0.291  1.00  0.00     0.166 HD
ENDROOT
BRANCH   4  11
HETATM   11  S   UNL     1       5.234   2.896   0.143  1.00  0.00    -0.102 SA
BRANCH  11  12
HETATM   12  C   UNL     1       5.531   3.541  -1.533  1.00  0.00     0.184 C 
BRANCH  12  13
HETATM   13  C   UNL     1       6.073   4.975  -1.514  1.00  0.00     0.231 C 
HETATM   14  N   UNL     1       6.705   5.339  -0.339  1.00  0.00    -0.326 N 
HETATM   15  H   UNL     1       6.679   4.638   0.396  1.00  0.00     0.169 HD
HETATM   16  O   UNL     1       5.959   5.683  -2.512  1.00  0.00    -0.272 OA
BRANCH  14  17
HETATM   17  C   UNL     1       7.296   6.570   0.002  1.00  0.00     0.036 A 
HETATM   18  C   UNL     1       7.431   7.646  -0.876  1.00  0.00     0.053 A 
HETATM   19  C   UNL     1       8.027   8.832  -0.439  1.00  0.00     0.036 A 
HETATM   20 CL   UNL     1       8.197  10.156  -1.528  1.00  0.00    -0.084 Cl
HETATM   21  C   UNL     1       8.489   8.961   0.870  1.00  0.00     0.024 A 
HETATM   22  C   UNL     1       8.358   7.891   1.751  1.00  0.00     0.004 A 
HETATM   23  C   UNL     1       7.768   6.702   1.317  1.00  0.00     0.029 A 
ENDBRANCH  14  17
ENDBRANCH  12  13
ENDBRANCH  11  12
ENDBRANCH   4  11
BRANCH   8  24
HETATM   24  C   UNL     1       5.028  -1.874  -1.761  1.00  0.00    -0.044 A 
HETATM   25  C   UNL     1       5.877  -2.993  -1.740  1.00  0.00     0.008 A 
HETATM   26  C   UNL     1       6.257  -3.619  -2.927  1.00  0.00     0.001 A 
HETATM   27  C   UNL     1       5.791  -3.138  -4.147  1.00  0.00     0.000 A 
HETATM   28  C   UNL     1       4.939  -2.035  -4.183  1.00  0.00     0.001 A 
HETATM   29  C   UNL     1       4.557  -1.404  -2.998  1.00  0.00     0.008 A 
ENDBRANCH   8  24
BRANCH   9  30
HETATM   30  C   UNL     1       2.587  -2.483   0.270  1.00  0.00     0.255 C 
HETATM   31  N   UNL     1       2.563  -3.427  -0.733  1.00  0.00    -0.321 N 
HETATM   32  H   UNL     1       2.686  -3.098  -1.681  1.00  0.00     0.169 HD
HETATM   33  O   UNL     1       2.101  -2.577   1.392  1.00  0.00    -0.268 OA
BRANCH  31  34
HETATM   34  C   UNL     1       2.149  -4.771  -0.580  1.00  0.00     0.068 A 
HETATM   35  C   UNL     1       2.325  -5.528   0.596  1.00  0.00     0.095 A 
HETATM   36  C   UNL     1       1.796  -6.824   0.662  1.00  0.00     0.039 A 
HETATM   37  C   UNL     1       1.146  -7.382  -0.441  1.00  0.00     0.003 A 
HETATM   38  C   UNL     1       1.045  -6.664  -1.628  1.00  0.00     0.002 A 
HETATM   39  C   UNL     1       1.554  -5.368  -1.701  1.00  0.00     0.032 A 
BRANCH  35  40
HETATM   40  O   UNL     1       3.134  -4.999   1.570  1.00  0.00    -0.354 OA
HETATM   41  C   UNL     1       3.110  -5.611   2.851  1.00  0.00     0.210 C 
ENDBRANCH  35  40
ENDBRANCH  31  34
ENDBRANCH   9  30
TORSDOF 8
