REMARK  3 active torsions:
REMARK  status: ('A' for Active; 'I' for Inactive)
REMARK       I    between atoms: N_2  and  C_3 
REMARK    1  A    between atoms: C_3  and  C_4 
REMARK    2  A    between atoms: C_6  and  N_7 
REMARK       I    between atoms: N_7  and  C_8 
REMARK    3  A    between atoms: C_8  and  C_9 
ROOT
HETATM    1  N   UNL     1      -0.183   1.256   4.554  1.00  0.00    -0.321 N 
HETATM    2  C   UNL     1      -0.431  -0.106   4.563  1.00  0.00     0.280 C 
HETATM    3  O   UNL     1       0.104  -0.930   3.828  1.00  0.00    -0.265 OA
HETATM    4  H   UNL     1      -0.748   1.791   5.206  1.00  0.00     0.169 HD
ENDROOT
BRANCH   1   5
HETATM    5  C   UNL     1       0.687   1.976   3.714  1.00  0.00     0.036 A 
HETATM    6  C   UNL     1       1.553   1.378   2.797  1.00  0.00     0.046 A 
HETATM    7  C   UNL     1       2.342   2.167   1.950  1.00  0.00     0.034 A 
HETATM    8  C   UNL     1       2.317   3.560   2.066  1.00  0.00     0.017 A 
HETATM    9  C   UNL     1       1.476   4.163   2.998  1.00  0.00     0.003 A 
HETATM   10  C   UNL     1       0.661   3.374   3.814  1.00  0.00     0.029 A 
BRANCH   7  11
HETATM   11  C   UNL     1       3.270   1.562   0.964  1.00  0.00     0.251 C 
HETATM   12  N   UNL     1       2.883   0.493   0.197  1.00  0.00    -0.361 N 
HETATM   13  C   UNL     1       1.563  -0.072   0.025  1.00  0.00     0.149 C 
HETATM   14  H   UNL     1       3.620   0.160  -0.413  1.00  0.00     0.162 HD
HETATM   15  O   UNL     1       4.393   2.041   0.820  1.00  0.00    -0.268 OA
ENDBRANCH   7  11
ENDBRANCH   1   5
BRANCH   2  16
HETATM   16  C   UNL     1      -1.440  -0.487   5.533  1.00  0.00     0.144 A 
HETATM   17  O   UNL     1      -2.027   0.480   6.311  1.00  0.00    -0.304 OA
HETATM   18  C   UNL     1      -2.941  -0.144   7.104  1.00  0.00     0.086 A 
HETATM   19  C   UNL     1      -2.951  -1.511   6.850  1.00  0.00     0.001 A 
HETATM   20  C   UNL     1      -3.762   0.482   8.039  1.00  0.00     0.038 A 
HETATM   21  C   UNL     1      -1.978  -1.722   5.841  1.00  0.00     0.057 A 
HETATM   22  C   UNL     1      -3.842  -2.323   7.573  1.00  0.00     0.014 A 
HETATM   23  C   UNL     1      -4.683  -1.721   8.520  1.00  0.00     0.001 A 
HETATM   24  C   UNL     1      -4.641  -0.343   8.748  1.00  0.00     0.003 A 
ENDBRANCH   2  16
TORSDOF 3
