REMARK  6 active torsions:
REMARK  status: ('A' for Active; 'I' for Inactive)
REMARK    1  A    between atoms: O_2  and  C_3 
REMARK    2  A    between atoms: C_6  and  C_7 
REMARK    3  A    between atoms: C_7  and  N_8 
REMARK       I    between atoms: N_8  and  C_9 
REMARK    4  A    between atoms: C_9  and  C_10 
REMARK    5  A    between atoms: C_10  and  O_11 
REMARK    6  A    between atoms: N_12  and  C_13 
ROOT
HETATM    1  C   UNL     1       6.007   7.341  -3.870  1.00  0.00     0.256 C 
HETATM    2  N   UNL     1       5.039   7.246  -4.969  1.00  0.00    -0.248 N 
HETATM    3  C   UNL     1       5.017   8.215  -5.959  1.00  0.00     0.330 C 
HETATM    4  O   UNL     1       4.538   8.056  -7.082  1.00  0.00    -0.246 OA
HETATM    5  N   UNL     1       5.562   9.427  -5.657  1.00  0.00    -0.308 N 
HETATM    6  C   UNL     1       6.079   9.777  -4.417  1.00  0.00     0.048 A 
HETATM    7  C   UNL     1       6.274   8.783  -3.461  1.00  0.00     0.034 A 
HETATM    8  C   UNL     1       6.390  11.114  -4.158  1.00  0.00     0.030 A 
HETATM    9  C   UNL     1       6.884  11.477  -2.908  1.00  0.00     0.002 A 
HETATM   10  C   UNL     1       7.083  10.503  -1.934  1.00  0.00     0.001 A 
HETATM   11  C   UNL     1       6.794   9.163  -2.210  1.00  0.00     0.015 A 
HETATM   12  H   UNL     1       5.457  10.124  -6.381  1.00  0.00     0.170 HD
ENDROOT
BRANCH   1  13
HETATM   13  C   UNL     1       5.570   6.500  -2.588  1.00  0.00     0.279 C 
HETATM   14  N   UNL     1       6.611   5.762  -2.042  1.00  0.00    -0.352 N 
HETATM   15  H   UNL     1       7.534   5.898  -2.445  1.00  0.00     0.162 HD
HETATM   16  O   UNL     1       4.435   6.495  -2.115  1.00  0.00    -0.268 OA
BRANCH  14  17
HETATM   17  C   UNL     1       6.463   4.925  -0.880  1.00  0.00     0.161 C 
BRANCH  17  18
HETATM   18  C   UNL     1       7.005   5.597   0.352  1.00  0.00    -0.040 A 
HETATM   19  C   UNL     1       6.187   6.442   1.115  1.00  0.00     0.011 A 
HETATM   20  C   UNL     1       6.674   7.050   2.277  1.00  0.00     0.037 A 
HETATM   21  C   UNL     1       7.987   6.826   2.688  1.00  0.00     0.068 A 
HETATM   22  C   UNL     1       8.817   6.018   1.909  1.00  0.00     0.037 A 
HETATM   23  C   UNL     1       8.334   5.406   0.750  1.00  0.00     0.011 A 
BRANCH  21  24
HETATM   24  O   UNL     1       8.575   7.343   3.810  1.00  0.00    -0.356 OA
HETATM   25  C   UNL     1       7.701   7.908   4.780  1.00  0.00     0.210 C 
ENDBRANCH  21  24
ENDBRANCH  17  18
ENDBRANCH  14  17
ENDBRANCH   1  13
BRANCH   1  26
HETATM   26  O   UNL     1       7.260   6.844  -4.362  1.00  0.00    -0.359 OA
HETATM   27  H   UNL     1       7.016   6.054  -4.875  1.00  0.00     0.213 HD
ENDBRANCH   1  26
BRANCH   2  28
HETATM   28  C   UNL     1       4.221   6.079  -5.157  1.00  0.00     0.120 A 
HETATM   29  C   UNL     1       4.704   4.778  -4.981  1.00  0.00     0.146 A 
HETATM   30  F   UNL     1       5.999   4.571  -4.696  1.00  0.00    -0.204 F 
HETATM   31  C   UNL     1       3.887   3.659  -5.155  1.00  0.00     0.045 A 
HETATM   32  C   UNL     1       2.551   3.823  -5.515  1.00  0.00     0.006 A 
HETATM   33  C   UNL     1       2.043   5.106  -5.699  1.00  0.00     0.045 A 
HETATM   34  C   UNL     1       2.872   6.215  -5.520  1.00  0.00     0.146 A 
HETATM   35  F   UNL     1       2.315   7.432  -5.631  1.00  0.00    -0.204 F 
ENDBRANCH   2  28
TORSDOF 6
