REMARK  8 active torsions:
REMARK  status: ('A' for Active; 'I' for Inactive)
REMARK    1  A    between atoms: O_2  and  C_3 
REMARK    2  A    between atoms: C_5  and  C_6 
REMARK    3  A    between atoms: C_10  and  C_11 
REMARK       I    between atoms: C_11  and  N_12 
REMARK    4  A    between atoms: N_12  and  C_13 
REMARK    5  A    between atoms: C_13  and  C_14 
REMARK    6  A    between atoms: C_15  and  C_16 
REMARK    7  A    between atoms: C_16  and  O_17 
REMARK    8  A    between atoms: O_17  and  C_18 
ROOT
HETATM    1  C   UNL     1       9.471  -4.265  -2.631  1.00  0.00     0.270 C 
HETATM    2  N   UNL     1       9.242  -5.616  -2.616  1.00  0.00    -0.345 N 
HETATM    3  O   UNL     1       8.652  -3.452  -2.215  1.00  0.00    -0.266 OA
HETATM    4  H   UNL     1       9.925  -6.249  -3.003  1.00  0.00     0.163 HD
ENDROOT
BRANCH   1   5
HETATM    5  C   UNL     1      10.747  -3.869  -3.162  1.00  0.00     0.120 A 
HETATM    6  N   UNL     1      11.139  -2.560  -3.194  1.00  0.00    -0.272 N 
HETATM    7  N   UNL     1      12.372  -2.366  -3.686  1.00  0.00    -0.174 NA
HETATM    8  H   UNL     1      10.604  -1.757  -2.877  1.00  0.00     0.189 HD
HETATM    9  C   UNL     1      12.803  -3.593  -4.015  1.00  0.00     0.089 A 
HETATM   10  C   UNL     1      11.810  -4.563  -3.705  1.00  0.00     0.071 A 
BRANCH   9  11
HETATM   11  C   UNL     1      14.131  -3.822  -4.588  1.00  0.00    -0.003 A 
HETATM   12  C   UNL     1      15.184  -2.936  -4.317  1.00  0.00     0.050 A 
HETATM   13  C   UNL     1      16.468  -3.160  -4.825  1.00  0.00     0.069 A 
HETATM   14  C   UNL     1      16.700  -4.274  -5.632  1.00  0.00     0.037 A 
HETATM   15  C   UNL     1      15.658  -5.157  -5.922  1.00  0.00     0.004 A 
HETATM   16  C   UNL     1      14.381  -4.935  -5.402  1.00  0.00     0.014 A 
BRANCH  13  17
HETATM   17  O   UNL     1      17.399  -2.226  -4.461  1.00  0.00    -0.356 OA
HETATM   18  C   UNL     1      18.741  -2.461  -4.869  1.00  0.00     0.210 C 
ENDBRANCH  13  17
ENDBRANCH   9  11
ENDBRANCH   1   5
BRANCH   2  19
HETATM   19  C   UNL     1       8.008  -6.164  -2.116  1.00  0.00     0.217 C 
BRANCH  19  20
HETATM   20  C   UNL     1       8.102  -7.626  -2.095  1.00  0.00    -0.085 C 
HETATM   21  C   UNL     1       8.209  -8.823  -2.088  1.00  0.00    -0.078 C 
BRANCH  21  22
HETATM   22  C   UNL     1       8.366 -10.284  -2.087  1.00  0.00     0.269 C 
BRANCH  22  23
HETATM   23  O   UNL     1       7.096 -10.890  -2.313  1.00  0.00    -0.339 OA
BRANCH  23  24
HETATM   24  C   UNL     1       7.061 -12.259  -2.359  1.00  0.00     0.072 A 
HETATM   25  C   UNL     1       8.162 -13.111  -2.230  1.00  0.00     0.076 A 
HETATM   26  C   UNL     1       7.934 -14.471  -2.308  1.00  0.00     0.107 A 
HETATM   27  C   UNL     1       6.677 -14.992  -2.503  1.00  0.00     0.105 A 
HETATM   28  O   UNL     1       8.885 -15.438  -2.207  1.00  0.00    -0.323 OA
HETATM   29  O   UNL     1       6.678 -16.350  -2.548  1.00  0.00    -0.323 OA
HETATM   30  C   UNL     1       5.572 -14.181  -2.633  1.00  0.00     0.042 A 
HETATM   31  C   UNL     1       8.081 -16.627  -2.360  1.00  0.00     0.352 A 
HETATM   32  C   UNL     1       5.774 -12.799  -2.560  1.00  0.00     0.040 A 
ENDBRANCH  23  24
ENDBRANCH  22  23
ENDBRANCH  21  22
ENDBRANCH  19  20
ENDBRANCH   2  19
TORSDOF 8
