REMARK  10 active torsions:
REMARK  status: ('A' for Active; 'I' for Inactive)
REMARK    1  A    between atoms: C_6  and  C_7 
REMARK    2  A    between atoms: C_7  and  C_8 
REMARK       I    between atoms: C_8  and  N_9 
REMARK    3  A    between atoms: N_9  and  C_10 
REMARK    4  A    between atoms: C_10  and  C_11 
REMARK    5  A    between atoms: C_11  and  N_12 
REMARK    6  A    between atoms: C_19  and  C_20 
REMARK    7  A    between atoms: C_29  and  C_30 
REMARK    8  A    between atoms: C_30  and  O_31 
REMARK    9  A    between atoms: O_31  and  C_32 
REMARK   10  A    between atoms: C_32  and  C_33 
ROOT
HETATM    1  C   UNL     1       0.491   1.400   0.825  1.00  0.00     0.071 C 
HETATM    2  C   UNL     1       1.853   0.783   1.020  1.00  0.00     0.048 C 
HETATM    3  N   UNL     1       2.614   1.387   2.013  1.00  0.00    -0.229 NA
HETATM    4  C   UNL     1       3.592   0.700   2.497  1.00  0.00     0.170 C 
HETATM    5  N   UNL     1       3.949  -0.719   1.991  1.00  0.00    -0.319 N 
HETATM    6  C   UNL     1       4.265  -1.467   2.993  1.00  0.00     0.011 C 
HETATM    7  C   UNL     1       3.664  -0.867   0.549  1.00  0.00     0.166 C 
HETATM    8  S   UNL     1       4.428   1.070   3.960  1.00  0.00    -0.086 SA
HETATM    9  C   UNL     1       4.715  -0.714   4.237  1.00  0.00     0.135 C 
HETATM   10  C   UNL     1       2.301  -0.288   0.329  1.00  0.00     0.069 C 
ENDROOT
BRANCH   6  11
HETATM   11  C   UNL     1       4.123  -2.961   2.923  1.00  0.00     0.156 C 
BRANCH  11  12
HETATM   12  C   UNL     1       3.737  -3.532   4.277  1.00  0.00     0.223 C 
HETATM   13  N   UNL     1       2.397  -3.817   4.466  1.00  0.00    -0.359 N 
HETATM   14  H   UNL     1       1.861  -4.079   3.643  1.00  0.00     0.162 HD
HETATM   15  O   UNL     1       4.559  -3.577   5.184  1.00  0.00    -0.273 OA
BRANCH  13  16
HETATM   16  C   UNL     1       1.957  -4.387   5.747  1.00  0.00     0.150 C 
BRANCH  16  17
HETATM   17  C   UNL     1       0.547  -3.932   6.181  1.00  0.00     0.254 C 
BRANCH  17  18
HETATM   18  N   UNL     1       0.113  -4.576   7.479  1.00  0.00    -0.070 N 
HETATM   19  H   UNL     1       0.878  -4.485   8.165  1.00  0.00     0.279 HD
HETATM   20  C   UNL     1      -0.227  -6.059   7.382  1.00  0.00     0.235 C 
HETATM   21  C   UNL     1      -1.722  -6.125   7.617  1.00  0.00     0.029 C 
HETATM   22  C   UNL     1      -1.955  -5.029   8.633  1.00  0.00     0.029 C 
HETATM   23  C   UNL     1      -1.102  -3.891   8.108  1.00  0.00     0.235 C 
ENDBRANCH  17  18
ENDBRANCH  16  17
ENDBRANCH  13  16
ENDBRANCH  11  12
ENDBRANCH   6  11
BRANCH   7  24
HETATM   24  C   UNL     1       4.781  -0.180  -0.262  1.00  0.00    -0.030 A 
HETATM   25  C   UNL     1       6.133  -0.522  -0.054  1.00  0.00     0.011 A 
HETATM   26  C   UNL     1       7.163   0.166  -0.710  1.00  0.00     0.024 A 
HETATM   27  C   UNL     1       6.863   1.188  -1.605  1.00  0.00     0.034 A 
HETATM   28 CL   UNL     1       8.128   2.053  -2.380  1.00  0.00    -0.084 Cl
HETATM   29  C   UNL     1       5.540   1.514  -1.867  1.00  0.00     0.024 A 
HETATM   30  C   UNL     1       4.509   0.833  -1.208  1.00  0.00     0.011 A 
ENDBRANCH   7  24
BRANCH  10  31
HETATM   31  C   UNL     1       1.477  -1.008  -0.650  1.00  0.00     0.294 C 
HETATM   32  O   UNL     1       1.377  -0.696  -1.818  1.00  0.00    -0.259 OA
BRANCH  31  33
HETATM   33  O   UNL     1       0.958  -2.086  -0.020  1.00  0.00    -0.314 OA
BRANCH  33  34
HETATM   34  C   UNL     1       0.173  -2.920  -0.886  1.00  0.00     0.206 C 
BRANCH  34  35
HETATM   35  C   UNL     1      -0.310  -4.126  -0.131  1.00  0.00    -0.011 C 
HETATM   36  C   UNL     1      -0.253  -4.337   1.192  1.00  0.00     0.009 C 
ENDBRANCH  34  35
ENDBRANCH  33  34
ENDBRANCH  31  33
ENDBRANCH  10  31
TORSDOF 10
