REMARK  7 active torsions:
REMARK  status: ('A' for Active; 'I' for Inactive)
REMARK    1  A    between atoms: C_3  and  C_4 
REMARK    2  A    between atoms: C_9  and  N_10 
REMARK       I    between atoms: N_10  and  C_11 
REMARK       I    between atoms: C_11  and  N_15 
REMARK    3  A    between atoms: N_15  and  CA_16 
REMARK    4  A    between atoms: CA_16  and  C_17 
REMARK    5  A    between atoms: CA_16  and  CB_19 
REMARK    6  A    between atoms: C_17  and  O_18 
REMARK    7  A    between atoms: CB_19  and  CG_20 
ROOT
HETATM    1  N   UNK A   0       3.943   0.399   3.143  1.00  0.00    -0.309 N 
HETATM    2  C   UNK A   0       3.657  -0.872   2.757  1.00  0.00     0.321 C 
HETATM    3  O   UNK A   0       3.596  -1.751   3.617  1.00  0.00    -0.247 OA
HETATM    4  H   UNK A   0       3.919   0.465   4.153  1.00  0.00     0.170 HD
ATOM      5  N   TRP A   1       3.384  -1.108   1.450  1.00  0.00    -0.336 N 
ATOM      6  H   TRP A   1       3.085  -0.327   0.885  1.00  0.00     0.164 HD
ENDROOT
BRANCH   5   7
ATOM      7  CA  TRP A   1       2.804  -2.376   1.009  1.00  0.00     0.114 C 
BRANCH   7   8
ATOM      8  C   TRP A   1       3.210  -2.667  -0.446  1.00  0.00     0.189 C 
BRANCH   8   9
ATOM      9  O   TRP A   1       3.048  -1.516  -1.275  1.00  0.00    -0.399 OA
ATOM     10  H   TRP A   1       3.100  -1.819  -2.197  1.00  0.00     0.209 HD
ENDBRANCH   8   9
ENDBRANCH   7   8
BRANCH   7  11
ATOM     11  CB  TRP A   1       1.278  -2.431   1.273  1.00  0.00     0.068 C 
BRANCH  11  12
ATOM     12  CG  TRP A   1       0.399  -1.706   0.292  1.00  0.00    -0.028 A 
ATOM     13  CD2 TRP A   1       0.150  -0.296   0.195  1.00  0.00    -0.002 A 
ATOM     14  CE2 TRP A   1      -0.708  -0.097  -0.888  1.00  0.00     0.042 A 
ATOM     15  CE3 TRP A   1       0.575   0.838   0.918  1.00  0.00     0.014 A 
ATOM     16  CZ2 TRP A   1      -1.135   1.171  -1.300  1.00  0.00     0.030 A 
ATOM     17  NE1 TRP A   1      -1.011  -1.336  -1.399  1.00  0.00    -0.365 N 
ATOM     18  CH2 TRP A   1      -0.669   2.277  -0.585  1.00  0.00     0.002 A 
ATOM     19  CZ3 TRP A   1       0.172   2.116   0.512  1.00  0.00     0.001 A 
ATOM     20  HE1 TRP A   1      -1.633  -1.496  -2.178  1.00  0.00     0.165 HD
ATOM     21  CD1 TRP A   1      -0.356  -2.310  -0.698  1.00  0.00     0.096 A 
ENDBRANCH  11  12
ENDBRANCH   7  11
ENDBRANCH   5   7
BRANCH   1  22
HETATM   22  C   UNK A   0       4.171   1.593   2.441  1.00  0.00     0.036 A 
HETATM   23  C   UNK A   0       4.546   1.666   1.102  1.00  0.00     0.030 A 
HETATM   24  C   UNK A   0       4.689   2.910   0.476  1.00  0.00     0.018 A 
HETATM   25  C   UNK A   0       4.485   4.101   1.188  1.00  0.00     0.015 A 
HETATM   26  C   UNK A   0       4.170   4.044   2.558  1.00  0.00    -0.046 A 
HETATM   27  C   UNK A   0       3.953   5.275   3.397  1.00  0.00     0.049 C 
HETATM   28  C   UNK A   0       4.019   2.783   3.165  1.00  0.00     0.037 A 
BRANCH  25  29
HETATM   29  C   UNK A   0       4.585   5.405   0.465  1.00  0.00     0.156 C 
HETATM   30  C   UNK A   0       5.570   5.522  -0.669  1.00  0.00     0.097 C 
HETATM   31  O   UNK A   0       3.856   6.345   0.770  1.00  0.00    -0.293 OA
ENDBRANCH  25  29
ENDBRANCH   1  22
TORSDOF 7
