REMARK  6 active torsions:
REMARK  status: ('A' for Active; 'I' for Inactive)
REMARK    1  A    between atoms: C_2  and  C_3 
REMARK    2  A    between atoms: C_3  and  C_4 
REMARK    3  A    between atoms: C_3  and  C_11 
REMARK    4  A    between atoms: C_11  and  C_12 
REMARK       I    between atoms: C_12  and  N_13 
REMARK    5  A    between atoms: N_13  and  C_14 
REMARK    6  A    between atoms: C_21  and  C_22 
REMARK       I    between atoms: C_22  and  N_23 
ROOT
HETATM    1  C   UNL     1       5.434  -2.268   4.785  1.00  0.00     0.035 A 
HETATM    2  C   UNL     1       4.610  -3.250   5.353  1.00  0.00     0.046 A 
HETATM    3  C   UNL     1       4.869  -3.710   6.662  1.00  0.00     0.030 A 
HETATM    4  C   UNL     1       5.946  -3.177   7.359  1.00  0.00     0.063 A 
HETATM    5  N   UNL     1       5.943  -3.811   8.570  1.00  0.00    -0.277 N 
HETATM    6  H   UNL     1       6.592  -3.674   9.336  1.00  0.00     0.189 HD
HETATM    7  N   UNL     1       4.953  -4.704   8.729  1.00  0.00    -0.168 NA
HETATM    8  C   UNL     1       4.277  -4.651   7.558  1.00  0.00     0.156 A 
HETATM    9  C   UNL     1       6.788  -2.198   6.827  1.00  0.00     0.034 A 
HETATM   10  C   UNL     1       6.505  -1.753   5.529  1.00  0.00     0.032 A 
ENDROOT
BRANCH   1  11
HETATM   11  N   UNL     1       5.239  -1.734   3.493  1.00  0.00    -0.327 N 
HETATM   12  C   UNL     1       4.312  -2.145   2.547  1.00  0.00     0.222 C 
HETATM   13  O   UNL     1       3.577  -3.120   2.634  1.00  0.00    -0.273 OA
HETATM   14  H   UNL     1       5.866  -0.988   3.219  1.00  0.00     0.169 HD
BRANCH  12  15
HETATM   15  C   UNL     1       4.332  -1.256   1.311  1.00  0.00     0.112 C 
BRANCH  15  16
HETATM   16  C   UNL     1       3.104  -1.471   0.404  1.00  0.00     0.027 C 
BRANCH  16  17
HETATM   17  C   UNL     1       1.763  -1.032   1.043  1.00  0.00     0.005 C 
HETATM   18  C   UNL     1       1.678   0.422   1.490  1.00  0.00     0.006 C 
ENDBRANCH  16  17
BRANCH  16  19
HETATM   19  C   UNL     1       3.277  -0.862  -0.984  1.00  0.00    -0.053 A 
HETATM   20  C   UNL     1       3.844   0.402  -1.193  1.00  0.00     0.008 A 
HETATM   21  C   UNL     1       3.960   0.929  -2.484  1.00  0.00     0.007 A 
HETATM   22  C   UNL     1       3.519   0.201  -3.593  1.00  0.00    -0.062 A 
HETATM   23  C   UNL     1       3.611   0.771  -4.977  1.00  0.00     0.048 C 
HETATM   24  C   UNL     1       2.943  -1.055  -3.390  1.00  0.00     0.007 A 
HETATM   25  C   UNL     1       2.823  -1.580  -2.102  1.00  0.00     0.008 A 
ENDBRANCH  16  19
ENDBRANCH  15  16
ENDBRANCH  12  15
ENDBRANCH   1  11
BRANCH   8  26
HETATM   26  C   UNL     1       3.091  -5.487   7.324  1.00  0.00     0.270 C 
HETATM   27  N   UNL     1       2.769  -6.306   8.372  1.00  0.00    -0.365 N 
HETATM   28  H   UNL     1       3.344  -6.277   9.206  1.00  0.00     0.159 HD
HETATM   29  H   UNL     1       1.965  -6.909   8.304  1.00  0.00     0.159 HD
HETATM   30  O   UNL     1       2.418  -5.478   6.299  1.00  0.00    -0.266 OA
ENDBRANCH   8  26
TORSDOF 6
