REMARK  7 active torsions:
REMARK  status: ('A' for Active; 'I' for Inactive)
REMARK       I    between atoms: N_2  and  C_3 
REMARK    1  A    between atoms: N_2  and  C_22 
REMARK    2  A    between atoms: C_3  and  C_4 
REMARK    3  A    between atoms: C_4  and  N_5 
REMARK    4  A    between atoms: N_5  and  C_6 
REMARK    5  A    between atoms: C_7  and  O_8 
REMARK    6  A    between atoms: C_22  and  C_23 
REMARK       I    between atoms: C_23  and  N_24 
REMARK    7  A    between atoms: N_24  and  C_25 
ROOT
HETATM    1  C   UNL     1       4.549   1.144   1.083  1.00  0.00     0.195 C 
ENDROOT
BRANCH   1   2
HETATM    2  C   UNL     1       3.046   0.896   0.837  1.00  0.00     0.233 C 
HETATM    3  N   UNL     1       2.573  -0.411   0.965  1.00  0.00    -0.347 N 
HETATM    4  C   UNL     1       1.215  -0.689   0.530  1.00  0.00     0.153 C 
HETATM    5  O   UNL     1       2.344   1.804   0.380  1.00  0.00    -0.272 OA
BRANCH   3   6
HETATM    6  C   UNL     1       3.177  -1.389   1.880  1.00  0.00     0.228 C 
BRANCH   6   7
HETATM    7  C   UNL     1       4.351  -2.226   1.349  1.00  0.00     0.240 C 
HETATM    8  N   UNL     1       4.540  -2.156  -0.019  1.00  0.00    -0.324 N 
HETATM    9  H   UNL     1       4.287  -1.252  -0.414  1.00  0.00     0.169 HD
HETATM   10  O   UNL     1       5.028  -2.887   2.134  1.00  0.00    -0.271 OA
BRANCH   8  11
HETATM   11  C   UNL     1       5.532  -2.887  -0.721  1.00  0.00     0.056 A 
HETATM   12  C   UNL     1       5.858  -4.237  -0.504  1.00  0.00     0.060 A 
HETATM   13 CL   UNL     1       4.893  -5.308   0.457  1.00  0.00    -0.082 Cl
HETATM   14  C   UNL     1       6.923  -4.824  -1.202  1.00  0.00     0.026 A 
HETATM   15  C   UNL     1       7.644  -4.089  -2.143  1.00  0.00     0.002 A 
HETATM   16  C   UNL     1       7.279  -2.776  -2.417  1.00  0.00     0.002 A 
HETATM   17  C   UNL     1       6.219  -2.188  -1.724  1.00  0.00     0.031 A 
ENDBRANCH   8  11
ENDBRANCH   6   7
ENDBRANCH   3   6
ENDBRANCH   1   2
BRANCH   1  18
HETATM   18  N   UNL     1       5.210   0.975  -0.222  1.00  0.00    -0.282 NA
HETATM   19  H   UNL     1       4.698   1.530  -0.913  1.00  0.00     0.128 HD
BRANCH  18  20
HETATM   20  C   UNL     1       6.592   1.230  -0.347  1.00  0.00     0.045 A 
HETATM   21  C   UNL     1       7.571   0.963   0.635  1.00  0.00     0.090 A 
HETATM   22  C   UNL     1       8.947   1.169   0.399  1.00  0.00     0.053 A 
HETATM   23  C   UNL     1       9.368   1.568  -0.880  1.00  0.00     0.014 A 
HETATM   24  C   UNL     1       8.398   1.766  -1.852  1.00  0.00     0.089 A 
HETATM   25  C   UNL     1      10.616   1.837  -1.513  1.00  0.00     0.011 A 
HETATM   26  O   UNL     1       8.966   2.128  -3.034  1.00  0.00    -0.309 OA
HETATM   27  C   UNL     1       7.031   1.607  -1.634  1.00  0.00     0.064 A 
HETATM   28  C   UNL     1      10.311   2.171  -2.829  1.00  0.00     0.087 A 
HETATM   29  C   UNL     1      11.261   2.499  -3.794  1.00  0.00     0.038 A 
HETATM   30  C   UNL     1      12.598   2.482  -3.385  1.00  0.00     0.003 A 
HETATM   31  C   UNL     1      12.948   2.152  -2.073  1.00  0.00     0.001 A 
HETATM   32  C   UNL     1      11.969   1.825  -1.123  1.00  0.00     0.015 A 
BRANCH  21  33
HETATM   33  O   UNL     1       7.195   0.539   1.888  1.00  0.00    -0.354 OA
HETATM   34  C   UNL     1       7.667  -0.786   2.153  1.00  0.00     0.210 C 
ENDBRANCH  21  33
ENDBRANCH  18  20
ENDBRANCH   1  18
TORSDOF 7
