REMARK  4 active torsions:
REMARK  status: ('A' for Active; 'I' for Inactive)
REMARK    1  A    between atoms: C_6  and  C_7 
REMARK    2  A    between atoms: C_7  and  N_8 
REMARK    3  A    between atoms: C_12  and  C_13 
REMARK    4  A    between atoms: C_15  and  C_16 
ROOT
HETATM    1  N   UNL     1       6.372   5.253   0.087  1.00  0.00    -0.067 N 
HETATM    2  H   UNL     1       5.451   5.389  -0.344  1.00  0.00     0.280 HD
HETATM    3  C   UNL     1       6.223   5.533   1.567  1.00  0.00     0.236 C 
HETATM    4  C   UNL     1       5.800   6.982   1.783  1.00  0.00     0.040 C 
HETATM    5  C   UNL     1       6.739   7.992   1.116  1.00  0.00     0.058 C 
HETATM    6  C   UNL     1       6.939   7.635  -0.360  1.00  0.00     0.040 C 
HETATM    7  C   UNL     1       7.355   6.185  -0.576  1.00  0.00     0.236 C 
ENDROOT
BRANCH   1   8
HETATM    8  C   UNL     1       6.753   3.807  -0.183  1.00  0.00     0.273 C 
BRANCH   8   9
HETATM    9  C   UNL     1       5.709   2.823   0.271  1.00  0.00    -0.032 A 
HETATM   10  C   UNL     1       5.952   2.004   1.384  1.00  0.00     0.017 A 
HETATM   11  C   UNL     1       4.944   1.153   1.811  1.00  0.00    -0.035 A 
HETATM   12  C   UNL     1       3.699   1.094   1.178  1.00  0.00     0.016 A 
HETATM   13  C   UNL     1       4.947   0.225   2.981  1.00  0.00     0.055 C 
HETATM   14  N   UNL     1       2.817   0.217   1.826  1.00  0.00    -0.287 NA
HETATM   15  C   UNL     1       3.453   1.894   0.076  1.00  0.00     0.025 A 
HETATM   16  C   UNL     1       1.797  -0.456   1.040  1.00  0.00     0.116 C 
HETATM   17  C   UNL     1       3.693  -0.613   2.674  1.00  0.00     0.100 C 
HETATM   18  C   UNL     1       4.460   2.751  -0.384  1.00  0.00     0.011 A 
ENDBRANCH   8   9
ENDBRANCH   1   8
BRANCH   5  19
HETATM   19  C   UNL     1       8.050   8.057   1.839  1.00  0.00     0.108 A 
HETATM   20  N   UNL     1       8.898   7.061   1.981  1.00  0.00    -0.229 NA
HETATM   21  C   UNL     1       9.961   7.551   2.735  1.00  0.00     0.157 A 
HETATM   22  C   UNL     1       9.721   8.880   3.033  1.00  0.00     0.126 A 
HETATM   23  N   UNL     1       8.517   9.188   2.462  1.00  0.00    -0.352 N 
HETATM   24  H   UNL     1       8.053  10.088   2.502  1.00  0.00     0.166 HD
BRANCH  21  25
HETATM   25  C   UNL     1      11.141   6.702   3.127  1.00  0.00     0.436 C 
HETATM   26  F   UNL     1      11.018   5.421   2.688  1.00  0.00    -0.165 F 
HETATM   27  F   UNL     1      12.301   7.186   2.614  1.00  0.00    -0.165 F 
HETATM   28  F   UNL     1      11.294   6.644   4.475  1.00  0.00    -0.165 F 
ENDBRANCH  21  25
ENDBRANCH   5  19
TORSDOF 4
