REMARK  9 active torsions:
REMARK  status: ('A' for Active; 'I' for Inactive)
REMARK    1  A    between atoms: C_2  and  C_3 
REMARK    2  A    between atoms: C_3  and  C_4 
REMARK    3  A    between atoms: C_7  and  C_8 
REMARK       I    between atoms: C_8  and  N_9 
REMARK    4  A    between atoms: C_13  and  O_14 
REMARK    5  A    between atoms: O_14  and  C_15 
REMARK    6  A    between atoms: C_15  and  C_16 
REMARK    7  A    between atoms: C_16  and  O_17 
REMARK    8  A    between atoms: C_19  and  N_20 
REMARK       I    between atoms: N_20  and  C_21 
REMARK    9  A    between atoms: C_21  and  C_22 
ROOT
HETATM    1  C   UNL     1       0.444  -4.894  -1.534  1.00  0.00     0.274 C 
HETATM    2  N   UNL     1       0.328  -6.296  -1.548  1.00  0.00    -0.347 N 
HETATM    3  C   UNL     1       0.347  -7.111  -2.765  1.00  0.00     0.127 C 
HETATM    4  C   UNL     1       1.766  -7.629  -2.994  1.00  0.00     0.037 C 
HETATM    5  C   UNL     1       2.264  -8.461  -1.788  1.00  0.00     0.019 C 
HETATM    6  C   UNL     1       1.541  -9.860  -1.654  1.00  0.00     0.162 C 
HETATM    7  C   UNL     1       2.636 -10.903  -1.257  1.00  0.00     0.148 C 
HETATM    8  C   UNL     1       3.905 -10.229  -1.689  1.00  0.00    -0.026 A 
HETATM    9  C   UNL     1       3.713  -8.874  -1.966  1.00  0.00    -0.038 A 
HETATM   10  C   UNL     1       5.163 -10.813  -1.785  1.00  0.00     0.010 A 
HETATM   11  C   UNL     1       6.245 -10.017  -2.162  1.00  0.00     0.001 A 
HETATM   12  C   UNL     1       6.061  -8.655  -2.428  1.00  0.00     0.001 A 
HETATM   13  C   UNL     1       4.793  -8.076  -2.328  1.00  0.00     0.009 A 
HETATM   14  C   UNL     1       2.112  -7.627  -0.487  1.00  0.00     0.037 C 
HETATM   15  C   UNL     1       0.705  -7.033  -0.346  1.00  0.00     0.127 C 
HETATM   16  O   UNL     1       0.899  -4.307  -0.550  1.00  0.00    -0.266 OA
ENDROOT
BRANCH   6  17
HETATM   17  O   UNL     1       0.926 -10.220  -2.909  1.00  0.00    -0.380 OA
BRANCH  17  18
HETATM   18  C   UNL     1      -0.063 -11.245  -2.776  1.00  0.00     0.194 C 
BRANCH  18  19
HETATM   19  C   UNL     1      -0.770 -11.430  -4.115  1.00  0.00     0.193 C 
BRANCH  19  20
HETATM   20  O   UNL     1      -1.750 -12.459  -4.000  1.00  0.00    -0.394 OA
HETATM   21  C   UNL     1      -2.444 -12.661  -5.224  1.00  0.00     0.201 C 
ENDBRANCH  19  20
ENDBRANCH  18  19
ENDBRANCH  17  18
ENDBRANCH   6  17
BRANCH   7  22
HETATM   22  N   UNL     1       2.687 -11.200   0.163  1.00  0.00    -0.350 N 
HETATM   23  C   UNL     1       1.720 -11.967   0.768  1.00  0.00     0.221 C 
HETATM   24  O   UNL     1       0.692 -12.306   0.192  1.00  0.00    -0.273 OA
HETATM   25  H   UNL     1       3.537 -10.977   0.665  1.00  0.00     0.163 HD
BRANCH  23  26
HETATM   26  C   UNL     1       2.046 -12.355   2.207  1.00  0.00     0.070 C 
HETATM   27  C   UNL     1       0.837 -12.993   2.888  1.00  0.00     0.019 C 
HETATM   28  C   UNL     1       3.236 -13.314   2.240  1.00  0.00     0.019 C 
ENDBRANCH  23  26
ENDBRANCH   7  22
BRANCH   1  29
HETATM   29  C   UNL     1       0.051  -4.113  -2.718  1.00  0.00     0.154 A 
HETATM   30  N   UNL     1      -0.912  -4.487  -3.578  1.00  0.00    -0.123 NA
HETATM   31  O   UNL     1      -0.942  -3.528  -4.569  1.00  0.00    -0.217 OA
HETATM   32  C   UNL     1      -0.063  -2.536  -4.271  1.00  0.00     0.081 A 
HETATM   33  C   UNL     1       0.570  -2.843  -3.093  1.00  0.00     0.074 A 
BRANCH  32  34
HETATM   34  C   UNL     1       0.061  -1.430  -5.254  1.00  0.00     0.071 C 
BRANCH  34  35
HETATM   35  C   UNL     1      -1.140  -0.467  -5.265  1.00  0.00    -0.017 C 
HETATM   36  C   UNL     1      -2.389  -1.099  -5.887  1.00  0.00     0.010 C 
HETATM   37  C   UNL     1      -0.774   0.799  -6.048  1.00  0.00     0.010 C 
ENDBRANCH  34  35
ENDBRANCH  32  34
ENDBRANCH   1  29
TORSDOF 9
