REMARK  5 active torsions:
REMARK  status: ('A' for Active; 'I' for Inactive)
REMARK    1  A    between atoms: C_4  and  C_5 
REMARK    2  A    between atoms: C_5  and  N_6 
REMARK    3  A    between atoms: C_8  and  C_9 
REMARK       I    between atoms: C_9  and  N_10 
REMARK    4  A    between atoms: N_10  and  N_11 
REMARK       I    between atoms: N_11  and  C_12 
REMARK    5  A    between atoms: C_12  and  C_13 
ROOT
HETATM    1  N   UNL     1       3.315  -1.156  -0.255  1.00  0.00    -0.229 N 
HETATM    2  N   UNL     1       2.540  -2.285  -0.099  1.00  0.00    -0.163 NA
HETATM    3  C   UNL     1       3.128  -3.440   0.013  1.00  0.00     0.157 A 
HETATM    4  C   UNL     1       4.586  -3.626  -0.045  1.00  0.00     0.016 A 
HETATM    5  C   UNL     1       5.360  -2.482  -0.206  1.00  0.00     0.046 A 
HETATM    6  C   UNL     1       4.706  -1.164  -0.309  1.00  0.00     0.275 A 
HETATM    7  O   UNL     1       5.399  -0.159  -0.451  1.00  0.00    -0.266 OA
HETATM    8  C   UNL     1       5.207  -4.880   0.024  1.00  0.00     0.015 A 
HETATM    9  C   UNL     1       6.600  -4.976  -0.057  1.00  0.00     0.001 A 
HETATM   10  C   UNL     1       7.374  -3.828  -0.212  1.00  0.00     0.001 A 
HETATM   11  C   UNL     1       6.756  -2.580  -0.287  1.00  0.00     0.018 A 
ENDROOT
BRANCH   3  12
HETATM   12  C   UNL     1       2.206  -4.641   0.167  1.00  0.00     0.291 C 
HETATM   13  N   UNL     1       1.188  -4.658  -0.758  1.00  0.00    -0.262 N 
HETATM   14  H   UNL     1       0.970  -3.837  -1.326  1.00  0.00     0.190 HD
HETATM   15  O   UNL     1       2.393  -5.485   1.031  1.00  0.00    -0.264 OA
BRANCH  13  16
HETATM   16  N   UNL     1       0.225  -5.668  -0.696  1.00  0.00    -0.263 N 
HETATM   17  C   UNL     1      -0.916  -5.517  -1.458  1.00  0.00     0.270 C 
HETATM   18  O   UNL     1      -1.098  -4.544  -2.188  1.00  0.00    -0.266 OA
HETATM   19  H   UNL     1       0.325  -6.352   0.051  1.00  0.00     0.190 HD
BRANCH  17  20
HETATM   20  C   UNL     1      -1.947  -6.585  -1.347  1.00  0.00     0.036 A 
HETATM   21  C   UNL     1      -1.616  -7.887  -0.937  1.00  0.00     0.051 A 
HETATM   22  C   UNL     1      -2.635  -8.848  -0.882  1.00  0.00     0.085 A 
HETATM   23  C   UNL     1      -3.933  -8.497  -1.236  1.00  0.00     0.062 A 
HETATM   24  N   UNL     1      -2.566 -10.171  -0.521  1.00  0.00    -0.242 NA
HETATM   25  N   UNL     1      -4.651  -9.656  -1.076  1.00  0.00    -0.349 N 
HETATM   26  C   UNL     1      -4.294  -7.217  -1.656  1.00  0.00     0.033 A 
HETATM   27  H   UNL     1      -5.639  -9.773  -1.250  1.00  0.00     0.167 HD
HETATM   28  C   UNL     1      -3.791 -10.628  -0.649  1.00  0.00     0.208 A 
HETATM   29  C   UNL     1      -3.267  -6.267  -1.708  1.00  0.00     0.019 A 
ENDBRANCH  17  20
ENDBRANCH  13  16
ENDBRANCH   3  12
BRANCH   1  30
HETATM   30  C   UNL     1       2.603   0.117  -0.322  1.00  0.00     0.193 C 
BRANCH  30  31
HETATM   31  C   UNL     1       2.337   0.700   1.047  1.00  0.00    -0.038 A 
HETATM   32  C   UNL     1       3.272   1.553   1.651  1.00  0.00     0.009 A 
HETATM   33  C   UNL     1       3.030   2.086   2.918  1.00  0.00     0.001 A 
HETATM   34  C   UNL     1       1.855   1.766   3.596  1.00  0.00     0.000 A 
HETATM   35  C   UNL     1       0.924   0.909   3.011  1.00  0.00     0.001 A 
HETATM   36  C   UNL     1       1.166   0.374   1.745  1.00  0.00     0.009 A 
ENDBRANCH  30  31
ENDBRANCH   1  30
TORSDOF 5
