REMARK  6 active torsions:
REMARK  status: ('A' for Active; 'I' for Inactive)
REMARK    1  A    between atoms: C_3  and  C_4 
REMARK    2  A    between atoms: C_4  and  N_5 
REMARK    3  A    between atoms: C_4  and  C_19 
REMARK    4  A    between atoms: N_9  and  C_10 
REMARK    5  A    between atoms: C_25  and  N_26 
REMARK       I    between atoms: N_26  and  C_27 
REMARK    6  A    between atoms: C_27  and  C_28 
ROOT
HETATM    1  C   UNL     1       3.283   2.631  -0.233  1.00  0.00     0.259 C 
ENDROOT
BRANCH   1   2
HETATM    2  C   UNL     1       3.487   1.117  -0.203  1.00  0.00     0.018 A 
HETATM    3  C   UNL     1       4.166   0.454   0.925  1.00  0.00    -0.038 A 
HETATM    4  C   UNL     1       4.587   1.121   2.207  1.00  0.00     0.050 C 
HETATM    5  C   UNL     1       4.403  -0.888   0.674  1.00  0.00    -0.013 A 
HETATM    6  S   UNL     1       3.814  -1.366  -0.840  1.00  0.00    -0.076 SA
HETATM    7  C   UNL     1       5.086  -1.902   1.542  1.00  0.00     0.057 C 
HETATM    8  C   UNL     1       3.168   0.168  -1.176  1.00  0.00     0.086 A 
BRANCH   8   9
HETATM    9  N   UNL     1       2.349   0.265  -2.291  1.00  0.00    -0.315 N 
HETATM   10  C   UNL     1       2.521  -0.429  -3.485  1.00  0.00     0.280 C 
HETATM   11  O   UNL     1       3.540  -1.028  -3.804  1.00  0.00    -0.265 OA
HETATM   12  H   UNL     1       1.553   0.887  -2.294  1.00  0.00     0.170 HD
BRANCH  10  13
HETATM   13  C   UNL     1       1.425  -0.202  -4.405  1.00  0.00     0.142 A 
HETATM   14  O   UNL     1       0.457   0.713  -4.067  1.00  0.00    -0.317 OA
HETATM   15  C   UNL     1      -0.454   0.717  -5.075  1.00  0.00     0.143 A 
HETATM   16  C   UNL     1      -0.065  -0.138  -6.080  1.00  0.00     0.027 A 
HETATM   17  C   UNL     1       1.151  -0.724  -5.653  1.00  0.00     0.045 A 
ENDBRANCH  10  13
ENDBRANCH   8   9
ENDBRANCH   1   2
BRANCH   1  18
HETATM   18  N   UNL     1       3.943   3.402  -1.417  1.00  0.00    -0.056 N 
HETATM   19  H   UNL     1       4.931   3.124  -1.336  1.00  0.00     0.281 HD
HETATM   20  C   UNL     1       3.524   2.998  -2.815  1.00  0.00     0.256 C 
HETATM   21  C   UNL     1       4.254   3.802  -3.923  1.00  0.00     0.152 C 
HETATM   22  N   UNL     1       4.189   5.256  -3.696  1.00  0.00    -0.364 N 
HETATM   23  C   UNL     1       4.656   5.663  -2.353  1.00  0.00     0.152 C 
HETATM   24  C   UNL     1       3.891   4.921  -1.233  1.00  0.00     0.256 C 
BRANCH  22  25
HETATM   25  C   UNL     1       3.279   6.012  -4.408  1.00  0.00     0.102 A 
HETATM   26  N   UNL     1       3.262   5.897  -5.751  1.00  0.00    -0.352 N 
HETATM   27  H   UNL     1       3.966   5.305  -6.183  1.00  0.00     0.166 HD
HETATM   28  C   UNL     1       2.432   6.580  -6.556  1.00  0.00     0.089 A 
HETATM   29  C   UNL     1       1.527   7.478  -6.018  1.00  0.00     0.017 A 
HETATM   30  C   UNL     1       1.516   7.667  -4.644  1.00  0.00     0.005 A 
HETATM   31  C   UNL     1       2.396   6.943  -3.839  1.00  0.00     0.048 A 
ENDBRANCH  22  25
ENDBRANCH   1  18
BRANCH   1  32
HETATM   32  C   UNL     1       1.871   3.014   0.172  1.00  0.00    -0.005 A 
HETATM   33  C   UNL     1       0.720   2.291  -0.115  1.00  0.00     0.125 A 
HETATM   34  N   UNL     1      -0.539   2.697   0.164  1.00  0.00    -0.273 NA
HETATM   35  C   UNL     1      -0.694   3.840   0.857  1.00  0.00     0.116 A 
HETATM   36  C   UNL     1       0.372   4.607   1.272  1.00  0.00     0.020 A 
HETATM   37  C   UNL     1       1.657   4.187   0.928  1.00  0.00     0.012 A 
ENDBRANCH   1  32
TORSDOF 6
