REMARK  3 active torsions:
REMARK  status: ('A' for Active; 'I' for Inactive)
REMARK    1  A    between atoms: C_5  and  N_6 
REMARK       I    between atoms: N_6  and  C_7 
REMARK    2  A    between atoms: C_7  and  C_8 
REMARK    3  A    between atoms: C_8  and  C_9 
ROOT
HETATM    1  C   UNL     1       5.105  -2.366   0.031  1.00  0.00     0.286 C 
HETATM    2  N   UNL     1       4.707  -1.063  -0.650  1.00  0.00    -0.056 N 
HETATM    3  H   UNL     1       3.775  -0.812  -0.255  1.00  0.00     0.278 HD
HETATM    4  H   UNL     1       5.343  -0.304  -0.381  1.00  0.00     0.278 HD
HETATM    5  C   UNL     1       4.626  -1.209  -2.149  1.00  0.00     0.209 C 
HETATM    6  C   UNL     1       3.587  -2.308  -2.497  1.00  0.00     0.115 C 
HETATM    7  N   UNL     1       3.803  -3.538  -1.732  1.00  0.00    -0.353 N 
HETATM    8  C   UNL     1       4.262  -3.572  -0.437  1.00  0.00     0.249 C 
HETATM    9  O   UNL     1       4.090  -4.571   0.252  1.00  0.00    -0.271 OA
HETATM   10  C   UNL     1       4.299   0.146  -2.774  1.00  0.00     0.035 C 
HETATM   11  C   UNL     1       2.851   0.577  -2.558  1.00  0.00     0.002 C 
HETATM   12  C   UNL     1       1.878  -0.503  -3.013  1.00  0.00     0.002 C 
HETATM   13  C   UNL     1       2.141  -1.828  -2.306  1.00  0.00     0.027 C 
HETATM   14  H   UNL     1       3.266  -4.363  -1.993  1.00  0.00     0.163 HD
ENDROOT
BRANCH   1  15
HETATM   15  C   UNL     1       5.102  -2.227   1.558  1.00  0.00     0.146 C 
BRANCH  15  16
HETATM   16  C   UNL     1       3.747  -1.799   2.060  1.00  0.00     0.224 C 
HETATM   17  N   UNL     1       3.370  -1.949   3.355  1.00  0.00    -0.327 N 
HETATM   18  H   UNL     1       2.388  -1.723   3.490  1.00  0.00     0.169 HD
HETATM   19  O   UNL     1       2.968  -1.262   1.260  1.00  0.00    -0.273 OA
BRANCH  17  20
HETATM   20  C   UNL     1       4.041  -2.374   4.520  1.00  0.00     0.034 A 
HETATM   21  C   UNL     1       5.421  -2.515   4.655  1.00  0.00     0.030 A 
HETATM   22  C   UNL     1       5.981  -2.944   5.867  1.00  0.00     0.009 A 
HETATM   23  C   UNL     1       5.171  -3.238   6.967  1.00  0.00    -0.062 A 
HETATM   24  C   UNL     1       5.784  -3.672   8.265  1.00  0.00     0.048 C 
HETATM   25  C   UNL     1       3.792  -3.060   6.849  1.00  0.00     0.009 A 
HETATM   26  C   UNL     1       3.236  -2.632   5.639  1.00  0.00     0.030 A 
ENDBRANCH  17  20
ENDBRANCH  15  16
ENDBRANCH   1  15
TORSDOF 3
