REMARK  4 active torsions:
REMARK  status: ('A' for Active; 'I' for Inactive)
REMARK    1  A    between atoms: C_4  and  C_5 
REMARK    2  A    between atoms: C_8  and  C_9 
REMARK    3  A    between atoms: C_9  and  N_10 
REMARK    4  A    between atoms: N_10  and  C_11 
ROOT
HETATM    1  C   UNL     1       6.959   0.524  -1.572  1.00  0.00     0.158 C 
ENDROOT
BRANCH   1   2
HETATM    2  C   UNL     1       5.524   0.405  -1.127  1.00  0.00    -0.041 A 
HETATM    3  C   UNL     1       4.790   1.542  -0.770  1.00  0.00     0.009 A 
HETATM    4  C   UNL     1       3.444   1.432  -0.404  1.00  0.00     0.013 A 
HETATM    5  C   UNL     1       2.794   0.187  -0.380  1.00  0.00    -0.026 A 
HETATM    6  C   UNL     1       3.552  -0.951  -0.701  1.00  0.00     0.013 A 
HETATM    7  C   UNL     1       4.900  -0.846  -1.063  1.00  0.00     0.009 A 
BRANCH   5   8
HETATM    8  C   UNL     1       1.359   0.081  -0.057  1.00  0.00    -0.026 A 
HETATM    9  C   UNL     1       0.415   0.917  -0.680  1.00  0.00     0.012 A 
HETATM   10  C   UNL     1      -0.949   0.810  -0.394  1.00  0.00     0.001 A 
HETATM   11  C   UNL     1      -1.396  -0.139   0.521  1.00  0.00     0.000 A 
HETATM   12  C   UNL     1      -0.481  -0.977   1.151  1.00  0.00     0.001 A 
HETATM   13  C   UNL     1       0.884  -0.867   0.865  1.00  0.00     0.012 A 
ENDBRANCH   5   8
ENDBRANCH   1   2
BRANCH   1  14
HETATM   14  N   UNL     1       7.850   0.362  -0.433  1.00  0.00    -0.384 N 
HETATM   15  H   UNL     1       7.451   0.799   0.400  1.00  0.00     0.160 HD
BRANCH  14  16
HETATM   16  C   UNL     1       9.230   0.516  -0.530  1.00  0.00     0.060 A 
HETATM   17  C   UNL     1      10.005   0.641  -1.692  1.00  0.00     0.106 A 
HETATM   18  C   UNL     1      11.391   0.721  -1.664  1.00  0.00     0.158 A 
HETATM   19  N   UNL     1       9.729   0.705  -3.040  1.00  0.00    -0.346 N 
HETATM   20  N   UNL     1      11.942   0.846  -2.900  1.00  0.00    -0.224 NA
HETATM   21  N   UNL     1      12.054   0.661  -0.468  1.00  0.00    -0.349 N 
HETATM   22  C   UNL     1      10.913   0.831  -3.717  1.00  0.00     0.210 A 
HETATM   23  H   UNL     1      13.069   0.719  -0.490  1.00  0.00     0.167 HD
HETATM   24  C   UNL     1      11.378   0.512   0.668  1.00  0.00     0.092 A 
HETATM   25  C   UNL     1       9.988   0.429   0.657  1.00  0.00     0.048 A 
HETATM   26  H   UNL     1       8.818   0.664  -3.476  1.00  0.00     0.167 HD
ENDBRANCH  14  16
ENDBRANCH   1  14
TORSDOF 4
