REMARK  3 active torsions:
REMARK  status: ('A' for Active; 'I' for Inactive)
REMARK    1  A    between atoms: C_2  and  N_3 
REMARK    2  A    between atoms: N_3  and  C_4 
REMARK    3  A    between atoms: C_12  and  C_13 
ROOT
HETATM    1  C   UNL     1       0.234   0.758  -1.159  1.00  0.00     0.139 A 
HETATM    2  N   UNL     1      -0.324  -0.076  -0.255  1.00  0.00    -0.224 NA
HETATM    3  C   UNL     1       0.285  -0.286   0.919  1.00  0.00     0.236 A 
HETATM    4  N   UNL     1       1.428   0.247   1.343  1.00  0.00    -0.234 NA
HETATM    5  C   UNL     1       1.962   1.086   0.442  1.00  0.00     0.113 A 
HETATM    6  C   UNL     1       1.449   1.407  -0.808  1.00  0.00     0.055 A 
HETATM    7  S   UNL     1       3.422   1.883   0.792  1.00  0.00    -0.081 SA
HETATM    8  C   UNL     1       3.407   2.692  -0.706  1.00  0.00     0.062 A 
HETATM    9  C   UNL     1       2.307   2.379  -1.488  1.00  0.00    -0.003 A 
ENDROOT
BRANCH   9  10
HETATM   10  C   UNL     1       2.017   2.956  -2.866  1.00  0.00     0.188 C 
HETATM   11  O   UNL     1       1.880   1.911  -3.851  1.00  0.00    -0.336 OA
HETATM   12  C   UNL     1       3.087   1.527  -4.373  1.00  0.00     0.103 A 
HETATM   13  C   UNL     1       4.249   2.295  -4.264  1.00  0.00     0.102 A 
HETATM   14  C   UNL     1       3.118   0.301  -5.036  1.00  0.00     0.040 A 
HETATM   15  O   UNL     1       4.292   3.516  -3.645  1.00  0.00    -0.345 OA
HETATM   16  C   UNL     1       5.450   1.817  -4.784  1.00  0.00     0.039 A 
HETATM   17  C   UNL     1       2.980   4.030  -3.384  1.00  0.00     0.213 C 
HETATM   18  C   UNL     1       5.486   0.583  -5.435  1.00  0.00     0.003 A 
HETATM   19  C   UNL     1       4.319  -0.173  -5.565  1.00  0.00     0.003 A 
ENDBRANCH   9  10
BRANCH   1  20
HETATM   20  N   UNL     1      -0.383   0.970  -2.388  1.00  0.00    -0.366 N 
HETATM   21  H   UNL     1       0.322   1.167  -3.097  1.00  0.00     0.162 HD
BRANCH  20  22
HETATM   22  C   UNL     1      -1.470   0.124  -2.906  1.00  0.00     0.021 C 
HETATM   23  C   UNL     1      -2.725   0.183  -2.024  1.00  0.00     0.037 C 
HETATM   24  C   UNL     1      -0.994  -1.320  -3.114  1.00  0.00     0.037 C 
HETATM   25  C   UNL     1      -1.847   0.710  -4.285  1.00  0.00     0.037 C 
ENDBRANCH  20  22
ENDBRANCH   1  20
TORSDOF 3
