REMARK  9 active torsions:
REMARK  status: ('A' for Active; 'I' for Inactive)
REMARK    1  A    between atoms: C_2  and  C_3 
REMARK    2  A    between atoms: C_3  and  C_4 
REMARK    3  A    between atoms: C_4  and  O_5 
REMARK    4  A    between atoms: O_5  and  C_6 
REMARK    5  A    between atoms: C_8  and  C_9 
REMARK       I    between atoms: C_9  and  N_10 
REMARK    6  A    between atoms: N_10  and  C_11 
REMARK    7  A    between atoms: N_12  and  C_13 
REMARK    8  A    between atoms: C_15  and  C_16 
REMARK    9  A    between atoms: C_25  and  O_26 
ROOT
HETATM    1  C   UNL     1      11.154   4.119   1.976  1.00  0.00     0.179 C 
HETATM    2  N   UNL     1      10.642   3.035   2.599  1.00  0.00    -0.333 N 
HETATM    3  S   UNL     1      12.814   4.195   1.751  1.00  0.00    -0.040 SA
HETATM    4  H   UNL     1      11.344   2.513   3.114  1.00  0.00     0.168 HD
ENDROOT
BRANCH   2   5
HETATM    5  C   UNL     1       9.379   2.410   2.532  1.00  0.00     0.035 A 
HETATM    6  C   UNL     1       8.401   2.722   1.588  1.00  0.00     0.048 A 
HETATM    7  C   UNL     1       7.139   2.103   1.607  1.00  0.00     0.053 A 
HETATM    8  C   UNL     1       6.910   1.078   2.542  1.00  0.00     0.086 A 
HETATM    9  C   UNL     1       7.902   0.696   3.454  1.00  0.00    -0.026 A 
HETATM   10  C   UNL     1       7.684  -0.438   4.415  1.00  0.00     0.051 C 
HETATM   11  C   UNL     1       9.132   1.370   3.437  1.00  0.00     0.039 A 
BRANCH   7  12
HETATM   12  C   UNL     1       6.082   2.542   0.701  1.00  0.00     0.183 A 
HETATM   13  O   UNL     1       6.395   3.528  -0.201  1.00  0.00    -0.289 OA
HETATM   14  C   UNL     1       5.214   3.784  -0.831  1.00  0.00     0.106 A 
HETATM   15  C   UNL     1       4.254   2.941  -0.294  1.00  0.00     0.093 A 
HETATM   16  C   UNL     1       4.977   4.722  -1.828  1.00  0.00     0.040 A 
HETATM   17  N   UNL     1       4.820   2.140   0.667  1.00  0.00    -0.221 NA
HETATM   18  C   UNL     1       2.939   3.025  -0.766  1.00  0.00     0.034 A 
HETATM   19  C   UNL     1       2.655   3.964  -1.770  1.00  0.00     0.002 A 
HETATM   20  C   UNL     1       3.658   4.793  -2.291  1.00  0.00     0.003 A 
ENDBRANCH   7  12
BRANCH   8  21
HETATM   21  O   UNL     1       5.713   0.405   2.601  1.00  0.00    -0.359 OA
HETATM   22  H   UNL     1       5.085   0.827   1.978  1.00  0.00     0.218 HD
ENDBRANCH   8  21
ENDBRANCH   2   5
BRANCH   1  23
HETATM   23  N   UNL     1      10.406   5.158   1.517  1.00  0.00    -0.299 N 
HETATM   24  C   UNL     1       9.193   5.664   1.977  1.00  0.00     0.257 C 
HETATM   25  O   UNL     1       8.713   5.437   3.080  1.00  0.00    -0.267 OA
HETATM   26  H   UNL     1      10.942   5.797   0.944  1.00  0.00     0.171 HD
BRANCH  24  27
HETATM   27  C   UNL     1       8.514   6.612   1.042  1.00  0.00     0.035 A 
HETATM   28  C   UNL     1       7.544   7.487   1.546  1.00  0.00     0.053 A 
HETATM   29  C   UNL     1       6.863   8.364   0.696  1.00  0.00     0.069 A 
HETATM   30  C   UNL     1       7.159   8.366  -0.669  1.00  0.00     0.037 A 
HETATM   31  C   UNL     1       8.114   7.486  -1.183  1.00  0.00     0.004 A 
HETATM   32  C   UNL     1       8.784   6.605  -0.334  1.00  0.00     0.017 A 
BRANCH  29  33
HETATM   33  O   UNL     1       5.939   9.164   1.312  1.00  0.00    -0.351 OA
BRANCH  33  34
HETATM   34  C   UNL     1       5.148  10.006   0.474  1.00  0.00     0.175 C 
BRANCH  34  35
HETATM   35  C   UNL     1       4.123  10.751   1.329  1.00  0.00     0.026 C 
BRANCH  35  36
HETATM   36  C   UNL     1       4.782  11.698   2.333  1.00  0.00    -0.002 C 
HETATM   37  C   UNL     1       3.742  12.488   3.112  1.00  0.00     0.005 C 
ENDBRANCH  35  36
ENDBRANCH  34  35
ENDBRANCH  33  34
ENDBRANCH  29  33
ENDBRANCH  24  27
ENDBRANCH   1  23
TORSDOF 9
