REMARK  6 active torsions:
REMARK  status: ('A' for Active; 'I' for Inactive)
REMARK    1  A    between atoms: O_2  and  C_3 
REMARK    2  A    between atoms: C_6  and  C_7 
REMARK    3  A    between atoms: C_13  and  C_14 
REMARK       I    between atoms: C_14  and  N_15 
REMARK    4  A    between atoms: N_15  and  C_16 
REMARK    5  A    between atoms: C_16  and  C_17 
REMARK    6  A    between atoms: C_24  and  C_25 
ROOT
HETATM    1  C   UNL     1       4.461  -4.221  -3.353  1.00  0.00     0.118 C 
HETATM    2  N   UNL     1       4.306  -5.564  -2.779  1.00  0.00    -0.365 N 
HETATM    3  C   UNL     1       4.219  -6.650  -3.601  1.00  0.00     0.138 A 
HETATM    4  N   UNL     1       4.088  -6.491  -4.962  1.00  0.00    -0.240 N 
HETATM    5  N   UNL     1       3.964  -7.637  -5.643  1.00  0.00    -0.181 NA
HETATM    6  C   UNL     1       4.087  -8.566  -4.694  1.00  0.00     0.160 A 
HETATM    7  C   UNL     1       4.230  -8.020  -3.391  1.00  0.00     0.096 A 
HETATM    8  C   UNL     1       4.072  -5.215  -5.650  1.00  0.00     0.221 C 
HETATM    9  C   UNL     1       3.669  -4.109  -4.668  1.00  0.00     0.066 C 
HETATM   10  H   UNL     1       4.811  -5.659  -1.895  1.00  0.00     0.161 HD
ENDROOT
BRANCH   7  11
HETATM   11  C   UNL     1       4.341  -8.802  -2.175  1.00  0.00     0.257 C 
HETATM   12  N   UNL     1       4.177  -8.106  -1.000  1.00  0.00    -0.352 N 
HETATM   13  H   UNL     1       3.769  -7.184  -1.065  1.00  0.00     0.163 HD
HETATM   14  O   UNL     1       4.529 -10.014  -2.206  1.00  0.00    -0.267 OA
BRANCH  12  15
HETATM   15  C   UNL     1       4.084  -8.815   0.253  1.00  0.00     0.161 C 
BRANCH  15  16
HETATM   16  C   UNL     1       4.383  -7.913   1.418  1.00  0.00    -0.041 A 
HETATM   17  C   UNL     1       3.394  -7.069   1.943  1.00  0.00     0.009 A 
HETATM   18  C   UNL     1       3.678  -6.241   3.030  1.00  0.00     0.001 A 
HETATM   19  C   UNL     1       4.950  -6.244   3.599  1.00  0.00     0.000 A 
HETATM   20  C   UNL     1       5.944  -7.069   3.077  1.00  0.00     0.001 A 
HETATM   21  C   UNL     1       5.664  -7.896   1.988  1.00  0.00     0.009 A 
ENDBRANCH  15  16
ENDBRANCH  12  15
ENDBRANCH   7  11
BRANCH   1  22
HETATM   22  C   UNL     1       3.989  -3.166  -2.369  1.00  0.00    -0.035 A 
HETATM   23  C   UNL     1       4.810  -2.069  -2.073  1.00  0.00     0.012 A 
HETATM   24  C   UNL     1       4.350  -1.041  -1.246  1.00  0.00     0.037 A 
HETATM   25  C   UNL     1       3.062  -1.080  -0.712  1.00  0.00     0.068 A 
HETATM   26  C   UNL     1       2.250  -2.182  -0.970  1.00  0.00     0.037 A 
HETATM   27  C   UNL     1       2.710  -3.218  -1.791  1.00  0.00     0.012 A 
BRANCH  25  28
HETATM   28  O   UNL     1       2.721   0.003   0.050  1.00  0.00    -0.356 OA
HETATM   29  C   UNL     1       1.328   0.208   0.261  1.00  0.00     0.210 C 
ENDBRANCH  25  28
ENDBRANCH   1  22
BRANCH   8  30
HETATM   30  C   UNL     1       5.418  -4.954  -6.292  1.00  0.00     0.409 C 
HETATM   31  F   UNL     1       6.437  -4.964  -5.405  1.00  0.00    -0.169 F 
HETATM   32  F   UNL     1       5.715  -5.829  -7.274  1.00  0.00    -0.169 F 
HETATM   33  F   UNL     1       5.420  -3.721  -6.864  1.00  0.00    -0.169 F 
ENDBRANCH   8  30
TORSDOF 6
