REMARK  3 active torsions:
REMARK  status: ('A' for Active; 'I' for Inactive)
REMARK    1  A    between atoms: C_4  and  C_5 
REMARK    2  A    between atoms: C_11  and  C_12 
REMARK    3  A    between atoms: C_21  and  N_22 
ROOT
HETATM    1  C   UNL     1       2.663   0.151  -0.455  1.00  0.00     0.071 A 
HETATM    2  N   UNL     1       3.474   1.246  -0.684  1.00  0.00    -0.274 N 
HETATM    3  H   UNL     1       3.182   2.203  -0.846  1.00  0.00     0.189 HD
HETATM    4  N   UNL     1       4.787   0.960  -0.762  1.00  0.00    -0.148 NA
HETATM    5  C   UNL     1       4.798  -0.348  -0.550  1.00  0.00     0.199 A 
HETATM    6  C   UNL     1       3.537  -0.912  -0.303  1.00  0.00     0.036 A 
HETATM    7  C   UNL     1       3.409  -2.381  -0.032  1.00  0.00     0.079 C 
HETATM    8  C   UNL     1       4.684  -3.077  -0.545  1.00  0.00     0.063 C 
HETATM    9  C   UNL     1       4.581  -4.574  -0.788  1.00  0.00     0.020 C 
HETATM   10  N   UNL     1       4.496  -5.816  -0.990  1.00  0.00    -0.096 N 
HETATM   11  C   UNL     1       5.846  -2.426  -0.800  1.00  0.00     0.139 C 
HETATM   12  O   UNL     1       5.949  -1.036  -0.671  1.00  0.00    -0.277 OA
ENDROOT
BRANCH   7  13
HETATM   13  C   UNL     1       3.198  -2.771   1.479  1.00  0.00     0.022 C 
HETATM   14  C   UNL     1       3.835  -1.828   2.478  1.00  0.00    -0.025 C 
HETATM   15  C   UNL     1       3.164  -1.212   3.461  1.00  0.00    -0.030 C 
HETATM   16  C   UNL     1       1.691  -1.365   3.681  1.00  0.00     0.027 C 
HETATM   17  C   UNL     1       0.961  -1.951   2.476  1.00  0.00     0.004 C 
HETATM   18  C   UNL     1       1.725  -3.098   1.828  1.00  0.00     0.010 C 
ENDBRANCH   7  13
BRANCH  11  19
HETATM   19  N   UNL     1       7.017  -3.016  -1.223  1.00  0.00    -0.282 NA
HETATM   20  H   UNL     1       6.916  -3.888  -1.734  1.00  0.00     0.126 HD
HETATM   21  H   UNL     1       7.626  -2.347  -1.692  1.00  0.00     0.126 HD
ENDBRANCH  11  19
BRANCH   1  22
HETATM   22  C   UNL     1       1.210   0.264  -0.460  1.00  0.00    -0.007 A 
HETATM   23  C   UNL     1       0.428  -0.624  -1.207  1.00  0.00     0.014 A 
HETATM   24  C   UNL     1      -0.964  -0.512  -1.211  1.00  0.00     0.001 A 
HETATM   25  C   UNL     1      -1.586   0.491  -0.470  1.00  0.00     0.000 A 
HETATM   26  C   UNL     1      -0.819   1.384   0.273  1.00  0.00     0.001 A 
HETATM   27  C   UNL     1       0.574   1.274   0.276  1.00  0.00     0.014 A 
ENDBRANCH   1  22
TORSDOF 3
