REMARK  6 active torsions:
REMARK  status: ('A' for Active; 'I' for Inactive)
REMARK    1  A    between atoms: C_2  and  N_3 
REMARK    2  A    between atoms: N_3  and  C_5 
REMARK    3  A    between atoms: N_3  and  C_28 
REMARK    4  A    between atoms: C_8  and  C_9 
REMARK    5  A    between atoms: N_10  and  C_11 
REMARK    6  A    between atoms: C_11  and  C_12 
ROOT
HETATM    1  C   UNL     1      -0.959   5.752  -0.556  1.00  0.00     0.222 C 
HETATM    2  N   UNL     1      -0.589   6.898   0.247  1.00  0.00    -0.316 N 
HETATM    3  C   UNL     1      -1.260   8.104   0.126  1.00  0.00     0.258 C 
HETATM    4  O   UNL     1      -0.803   9.174   0.517  1.00  0.00    -0.267 OA
HETATM    5  C   UNL     1      -2.601   8.056  -0.496  1.00  0.00     0.058 A 
HETATM    6  C   UNL     1      -3.128   6.804  -0.827  1.00  0.00     0.045 A 
HETATM    7  N   UNL     1      -2.407   5.636  -0.581  1.00  0.00    -0.364 N 
HETATM    8  C   UNL     1      -3.348   9.227  -0.672  1.00  0.00     0.019 A 
HETATM    9  C   UNL     1      -4.651   9.146  -1.161  1.00  0.00     0.001 A 
HETATM   10  C   UNL     1      -5.204   7.901  -1.454  1.00  0.00     0.002 A 
HETATM   11  C   UNL     1      -4.451   6.737  -1.275  1.00  0.00     0.030 A 
HETATM   12  H   UNL     1      -2.763   4.818  -1.057  1.00  0.00     0.162 HD
ENDROOT
BRANCH   1  13
HETATM   13  C   UNL     1      -0.378   5.748  -1.982  1.00  0.00    -0.016 A 
HETATM   14  C   UNL     1       0.481   6.756  -2.458  1.00  0.00     0.013 A 
HETATM   15  C   UNL     1       1.053   6.685  -3.734  1.00  0.00     0.038 A 
HETATM   16  C   UNL     1       0.758   5.614  -4.574  1.00  0.00     0.134 A 
HETATM   17  C   UNL     1      -0.107   4.610  -4.131  1.00  0.00     0.038 A 
HETATM   18  C   UNL     1      -0.656   4.672  -2.845  1.00  0.00     0.013 A 
BRANCH  16  19
HETATM   19  N   UNL     1       1.378   5.470  -5.911  1.00  0.00    -0.042 N 
HETATM   20  H   UNL     1       1.076   4.546  -6.244  1.00  0.00     0.286 HD
BRANCH  19  21
HETATM   21  C   UNL     1       2.886   5.380  -5.865  1.00  0.00     0.237 C 
HETATM   22  C   UNL     1       3.333   4.106  -5.164  1.00  0.00     0.035 C 
ENDBRANCH  19  21
BRANCH  19  23
HETATM   23  C   UNL     1       0.796   6.417  -6.934  1.00  0.00     0.237 C 
HETATM   24  C   UNL     1       1.366   7.823  -6.887  1.00  0.00     0.035 C 
ENDBRANCH  19  23
ENDBRANCH  16  19
ENDBRANCH   1  13
BRANCH   2  25
HETATM   25  C   UNL     1       0.649   6.841   1.013  1.00  0.00     0.193 C 
BRANCH  25  26
HETATM   26  C   UNL     1       0.502   5.886   2.140  1.00  0.00     0.070 A 
HETATM   27  O   UNL     1       1.129   4.681   2.007  1.00  0.00    -0.325 OA
HETATM   28  C   UNL     1       0.868   3.974   3.137  1.00  0.00     0.142 A 
HETATM   29  C   UNL     1       0.073   4.704   3.990  1.00  0.00     0.027 A 
HETATM   30  C   UNL     1      -0.166   5.941   3.346  1.00  0.00     0.036 A 
ENDBRANCH  25  26
ENDBRANCH   2  25
TORSDOF 6
