REMARK  10 active torsions:
REMARK  status: ('A' for Active; 'I' for Inactive)
REMARK    1  A    between atoms: C_6  and  C_7 
REMARK    2  A    between atoms: C_7  and  O_8 
REMARK    3  A    between atoms: O_8  and  C_9 
REMARK    4  A    between atoms: C_12  and  C_13 
REMARK    5  A    between atoms: N_14  and  N_15 
REMARK       I    between atoms: N_15  and  C_16 
REMARK    6  A    between atoms: C_16  and  C_17 
REMARK    7  A    between atoms: N_20  and  C_21 
REMARK    8  A    between atoms: C_25  and  N_26 
REMARK    9  A    between atoms: C_27  and  C_28 
REMARK   10  A    between atoms: C_28  and  N_29 
ROOT
HETATM    1  C   UNL     1      -8.832  -6.515  -2.686  1.00  0.00     0.170 C 
HETATM    2  N   UNL     1     -10.155  -6.289  -2.456  1.00  0.00    -0.152 NA
HETATM    3  N   UNL     1     -10.393  -5.004  -2.658  1.00  0.00     0.012 NA
HETATM    4  N   UNL     1      -9.235  -4.381  -3.000  1.00  0.00    -0.215 N 
HETATM    5  C   UNL     1      -8.243  -5.347  -3.159  1.00  0.00     0.096 C 
ENDROOT
BRANCH   1   6
HETATM    6  C   UNL     1      -8.216  -7.831  -2.588  1.00  0.00     0.293 C 
HETATM    7  N   UNL     1      -7.115  -7.945  -1.756  1.00  0.00    -0.242 N 
HETATM    8  H   UNL     1      -6.671  -8.856  -1.728  1.00  0.00     0.192 HD
HETATM    9  O   UNL     1      -8.556  -8.762  -3.313  1.00  0.00    -0.264 OA
BRANCH   7  10
HETATM   10  N   UNL     1      -6.759  -6.963  -0.883  1.00  0.00    -0.184 NA
HETATM   11  C   UNL     1      -5.693  -7.099  -0.148  1.00  0.00     0.150 C 
BRANCH  11  12
HETATM   12  C   UNL     1      -4.697  -8.183  -0.128  1.00  0.00    -0.017 A 
HETATM   13  C   UNL     1      -3.357  -7.806  -0.242  1.00  0.00     0.016 A 
HETATM   14  C   UNL     1      -2.363  -8.783  -0.206  1.00  0.00     0.037 A 
HETATM   15  C   UNL     1      -2.696 -10.127  -0.030  1.00  0.00     0.069 A 
HETATM   16  C   UNL     1      -4.037 -10.499   0.084  1.00  0.00     0.037 A 
HETATM   17  C   UNL     1      -5.042  -9.524   0.051  1.00  0.00     0.016 A 
BRANCH  15  18
HETATM   18  O   UNL     1      -1.629 -10.977  -0.002  1.00  0.00    -0.347 OA
BRANCH  18  19
HETATM   19  C   UNL     1      -1.795 -12.203   0.712  1.00  0.00     0.214 C 
BRANCH  19  20
HETATM   20  C   UNL     1      -0.453 -12.597   1.278  1.00  0.00    -0.033 A 
HETATM   21  C   UNL     1       0.191 -11.753   2.198  1.00  0.00     0.033 A 
HETATM   22  C   UNL     1       1.422 -12.114   2.745  1.00  0.00     0.034 A 
HETATM   23  C   UNL     1       2.025 -13.317   2.390  1.00  0.00     0.024 A 
HETATM   24 CL   UNL     1       2.194 -11.066   3.870  1.00  0.00    -0.084 Cl
HETATM   25  C   UNL     1       1.394 -14.163   1.477  1.00  0.00     0.002 A 
HETATM   26  C   UNL     1       0.161 -13.806   0.923  1.00  0.00     0.009 A 
ENDBRANCH  19  20
ENDBRANCH  18  19
ENDBRANCH  15  18
ENDBRANCH  11  12
ENDBRANCH   7  10
ENDBRANCH   1   6
BRANCH   5  27
HETATM   27  C   UNL     1      -6.878  -5.147  -3.686  1.00  0.00     0.296 C 
BRANCH  27  28
HETATM   28  N   UNL     1      -6.719  -5.331  -5.191  1.00  0.00    -0.066 N 
HETATM   29  H   UNL     1      -5.702  -5.398  -5.328  1.00  0.00     0.280 HD
HETATM   30  C   UNL     1      -7.294  -6.628  -5.725  1.00  0.00     0.235 C 
HETATM   31  C   UNL     1      -6.883  -6.811  -7.179  1.00  0.00     0.028 C 
HETATM   32  C   UNL     1      -7.285  -5.615  -8.033  1.00  0.00     0.003 C 
HETATM   33  C   UNL     1      -6.736  -4.319  -7.451  1.00  0.00     0.028 C 
HETATM   34  C   UNL     1      -7.153  -4.132  -5.999  1.00  0.00     0.235 C 
ENDBRANCH  27  28
ENDBRANCH   5  27
BRANCH   4  35
HETATM   35  C   UNL     1      -9.167  -2.979  -3.186  1.00  0.00     0.225 A 
HETATM   36  N   UNL     1      -8.001  -2.387  -3.448  1.00  0.00    -0.081 NA
HETATM   37  O   UNL     1      -8.325  -1.033  -3.547  1.00  0.00    -0.103 OA
HETATM   38  N   UNL     1      -9.688  -0.833  -3.386  1.00  0.00    -0.083 NA
HETATM   39  C   UNL     1     -10.209  -2.037  -3.153  1.00  0.00     0.201 A 
BRANCH  39  40
HETATM   40  N   UNL     1     -11.517  -2.273  -2.962  1.00  0.00    -0.379 N 
HETATM   41  H   UNL     1     -12.157  -1.494  -2.829  1.00  0.00     0.158 HD
HETATM   42  H   UNL     1     -11.873  -3.166  -2.623  1.00  0.00     0.158 HD
ENDBRANCH  39  40
ENDBRANCH   4  35
TORSDOF 10
