REMARK  4 active torsions:
REMARK  status: ('A' for Active; 'I' for Inactive)
REMARK    1  A    between atoms: C_4  and  O_5 
REMARK    2  A    between atoms: C_6  and  N_7 
REMARK       I    between atoms: N_7  and  C_8 
REMARK    3  A    between atoms: C_8  and  C_9 
REMARK    4  A    between atoms: C_9  and  N_10 
ROOT
HETATM    1  N   UNL     1       5.829  -2.254   0.206  1.00  0.00    -0.259 N 
HETATM    2  C   UNL     1       4.812  -2.338  -0.696  1.00  0.00     0.326 C 
HETATM    3  O   UNL     1       4.890  -2.288  -1.911  1.00  0.00    -0.247 OA
HETATM    4  N   UNL     1       3.627  -2.457  -0.008  1.00  0.00    -0.320 N 
HETATM    5  C   UNL     1       3.814  -2.261   1.403  1.00  0.00     0.144 C 
HETATM    6  C   UNL     1       3.023  -3.212   2.243  1.00  0.00    -0.014 A 
HETATM    7  C   UNL     1       1.922  -2.551   2.811  1.00  0.00    -0.049 A 
HETATM    8  C   UNL     1       1.006  -3.224   3.600  1.00  0.00     0.007 A 
HETATM    9  C   UNL     1       1.204  -4.586   3.827  1.00  0.00     0.001 A 
HETATM   10  C   UNL     1       2.298  -5.253   3.256  1.00  0.00     0.001 A 
HETATM   11  C   UNL     1       3.214  -4.568   2.452  1.00  0.00     0.011 A 
HETATM   12  C   UNL     1       1.872  -1.114   2.393  1.00  0.00     0.042 C 
HETATM   13  C   UNL     1       3.301  -0.887   1.880  1.00  0.00     0.051 C 
HETATM   14  C   UNL     1       5.341  -2.312   1.483  1.00  0.00     0.261 C 
HETATM   15  O   UNL     1       6.039  -2.338   2.490  1.00  0.00    -0.270 OA
HETATM   16  H   UNL     1       2.737  -2.487  -0.488  1.00  0.00     0.165 HD
ENDROOT
BRANCH   1  17
HETATM   17  C   UNL     1       7.204  -1.969  -0.139  1.00  0.00     0.240 C 
BRANCH  17  18
HETATM   18  C   UNL     1       8.140  -3.168  -0.028  1.00  0.00     0.240 C 
HETATM   19  N   UNL     1       8.326  -3.627   1.260  1.00  0.00    -0.323 N 
HETATM   20  H   UNL     1       7.646  -3.314   1.954  1.00  0.00     0.169 HD
HETATM   21  O   UNL     1       8.733  -3.599  -1.015  1.00  0.00    -0.271 OA
BRANCH  19  22
HETATM   22  C   UNL     1       9.338  -4.493   1.749  1.00  0.00     0.068 A 
HETATM   23  C   UNL     1      10.530  -4.849   1.098  1.00  0.00     0.092 A 
HETATM   24  C   UNL     1      11.487  -5.647   1.736  1.00  0.00     0.045 A 
HETATM   25  C   UNL     1      11.280  -6.122   3.033  1.00  0.00    -0.059 A 
HETATM   26  C   UNL     1      12.300  -7.007   3.684  1.00  0.00     0.048 C 
HETATM   27  C   UNL     1      10.087  -5.797   3.681  1.00  0.00     0.009 A 
HETATM   28  C   UNL     1       9.139  -4.979   3.052  1.00  0.00     0.033 A 
BRANCH  23  29
HETATM   29  O   UNL     1      10.904  -4.437  -0.149  1.00  0.00    -0.358 OA
HETATM   30  H   UNL     1      10.098  -4.170  -0.638  1.00  0.00     0.218 HD
ENDBRANCH  23  29
ENDBRANCH  19  22
ENDBRANCH  17  18
ENDBRANCH   1  17
TORSDOF 4
