REMARK  6 active torsions:
REMARK  status: ('A' for Active; 'I' for Inactive)
REMARK    1  A    between atoms: C_4  and  C_5 
REMARK    2  A    between atoms: C_5  and  C_6 
REMARK    3  A    between atoms: C_6  and  C_7 
REMARK    4  A    between atoms: C_7  and  N_8 
REMARK    5  A    between atoms: C_11  and  C_13 
REMARK    6  A    between atoms: C_11  and  O_12 
ROOT
HETATM    1  N   UNL     1       5.512  -2.592  -0.450  1.00  0.00    -0.314 N 
HETATM    2  C   UNL     1       6.871  -2.949  -0.332  1.00  0.00     0.269 A 
HETATM    3  O   UNL     1       7.807  -2.166  -0.249  1.00  0.00    -0.269 OA
HETATM    4  C   UNL     1       6.923  -4.511  -0.223  1.00  0.00     0.198 A 
HETATM    5  C   UNL     1       5.468  -4.885  -0.379  1.00  0.00     0.017 A 
HETATM    6  C   UNL     1       4.690  -3.727  -0.486  1.00  0.00     0.047 A 
HETATM    7  C   UNL     1       4.877  -6.142  -0.364  1.00  0.00     0.013 A 
HETATM    8  C   UNL     1       3.489  -6.223  -0.482  1.00  0.00     0.001 A 
HETATM    9  C   UNL     1       2.714  -5.058  -0.601  1.00  0.00     0.002 A 
HETATM   10  C   UNL     1       3.313  -3.795  -0.601  1.00  0.00     0.030 A 
ENDROOT
BRANCH   4  11
HETATM   11  C   UNL     1       7.700  -5.169  -1.334  1.00  0.00     0.018 A 
HETATM   12  C   UNL     1       7.534  -5.044  -2.763  1.00  0.00     0.002 A 
HETATM   13  C   UNL     1       8.505  -5.841  -3.374  1.00  0.00     0.043 A 
HETATM   14  C   UNL     1       6.647  -4.336  -3.601  1.00  0.00     0.014 A 
HETATM   15  C   UNL     1       8.635  -5.958  -4.764  1.00  0.00     0.030 A 
HETATM   16  N   UNL     1       9.238  -6.429  -2.373  1.00  0.00    -0.365 N 
HETATM   17  C   UNL     1       7.741  -5.243  -5.564  1.00  0.00     0.002 A 
HETATM   18  C   UNL     1       6.758  -4.444  -4.993  1.00  0.00     0.001 A 
HETATM   19  H   UNL     1      10.016  -7.055  -2.524  1.00  0.00     0.165 HD
HETATM   20  C   UNL     1       8.766  -6.040  -1.154  1.00  0.00     0.100 A 
ENDBRANCH   4  11
BRANCH   4  21
HETATM   21  O   UNL     1       7.365  -4.923   1.071  1.00  0.00    -0.371 OA
HETATM   22  H   UNL     1       6.678  -4.644   1.697  1.00  0.00     0.212 HD
ENDBRANCH   4  21
BRANCH   1  23
HETATM   23  C   UNL     1       5.058  -1.218  -0.442  1.00  0.00     0.133 C 
BRANCH  23  24
HETATM   24  C   UNL     1       5.255  -0.494  -1.773  1.00  0.00     0.025 C 
BRANCH  24  25
HETATM   25  C   UNL     1       4.256  -0.935  -2.843  1.00  0.00     0.040 C 
BRANCH  25  26
HETATM   26  C   UNL     1       4.433  -0.150  -4.120  1.00  0.00    -0.058 A 
HETATM   27  C   UNL     1       5.448  -0.488  -5.025  1.00  0.00     0.007 A 
HETATM   28  C   UNL     1       5.625   0.247  -6.198  1.00  0.00     0.001 A 
HETATM   29  C   UNL     1       4.795   1.333  -6.473  1.00  0.00     0.000 A 
HETATM   30  C   UNL     1       3.789   1.683  -5.574  1.00  0.00     0.001 A 
HETATM   31  C   UNL     1       3.608   0.947  -4.402  1.00  0.00     0.007 A 
ENDBRANCH  25  26
ENDBRANCH  24  25
ENDBRANCH  23  24
ENDBRANCH   1  23
TORSDOF 6
