REMARK  8 active torsions:
REMARK  status: ('A' for Active; 'I' for Inactive)
REMARK    1  A    between atoms: N_2  and  C_5 
REMARK    2  A    between atoms: C_5  and  C_6 
REMARK    3  A    between atoms: C_6  and  S_7 
REMARK    4  A    between atoms: S_7  and  C_8 
REMARK    5  A    between atoms: C_10  and  C_25 
REMARK    6  A    between atoms: C_13  and  N_14 
REMARK       I    between atoms: N_14  and  C_15 
REMARK       I    between atoms: C_15  and  N_17 
REMARK    7  A    between atoms: N_17  and  C_18 
REMARK    8  A    between atoms: C_18  and  C_19 
ROOT
HETATM    1  C   UNL     1       6.733   0.752   3.155  1.00  0.00     0.028 A 
HETATM    2  C   UNL     1       7.526   1.590   3.950  1.00  0.00     0.033 A 
HETATM    3  C   UNL     1       8.916   1.639   3.777  1.00  0.00    -0.022 A 
HETATM    4  C   UNL     1       9.496   0.836   2.787  1.00  0.00     0.014 A 
HETATM    5  C   UNL     1       8.711  -0.017   2.001  1.00  0.00     0.032 A 
HETATM    6  C   UNL     1       7.330  -0.082   2.193  1.00  0.00     0.053 A 
ENDROOT
BRANCH   6   7
HETATM    7  N   UNL     1       6.518  -0.995   1.483  1.00  0.00    -0.308 N 
HETATM    8  C   UNL     1       6.784  -1.505   0.245  1.00  0.00     0.321 C 
HETATM    9  O   UNL     1       7.578  -1.009  -0.548  1.00  0.00    -0.247 OA
HETATM   10  N   UNL     1       6.037  -2.573  -0.136  1.00  0.00    -0.339 N 
HETATM   11  H   UNL     1       6.373  -2.984  -1.001  1.00  0.00     0.164 HD
HETATM   12  H   UNL     1       5.619  -1.198   1.897  1.00  0.00     0.170 HD
BRANCH  10  13
HETATM   13  C   UNL     1       5.239  -3.435   0.714  1.00  0.00     0.162 C 
BRANCH  13  14
HETATM   14  C   UNL     1       4.659  -4.591  -0.053  1.00  0.00    -0.040 A 
HETATM   15  C   UNL     1       4.898  -5.908   0.365  1.00  0.00     0.009 A 
HETATM   16  C   UNL     1       4.357  -6.984  -0.339  1.00  0.00     0.001 A 
HETATM   17  C   UNL     1       3.571  -6.758  -1.467  1.00  0.00     0.000 A 
HETATM   18  C   UNL     1       3.321  -5.455  -1.891  1.00  0.00     0.001 A 
HETATM   19  C   UNL     1       3.857  -4.376  -1.185  1.00  0.00     0.009 A 
ENDBRANCH  13  14
ENDBRANCH  10  13
ENDBRANCH   6   7
BRANCH   1  20
HETATM   20  S   UNL     1       4.941   0.874   3.251  1.00  0.00    -0.126 SA
BRANCH  20  21
HETATM   21  C   UNL     1       4.719   2.598   2.649  1.00  0.00     0.107 C 
BRANCH  21  22
HETATM   22  C   UNL     1       5.266   2.851   1.233  1.00  0.00     0.244 C 
BRANCH  22  23
HETATM   23  N   UNL     1       4.807   1.804   0.236  1.00  0.00    -0.078 N 
HETATM   24  C   UNL     1       3.359   1.925  -0.142  1.00  0.00     0.269 C 
HETATM   25  H   UNL     1       4.936   0.892   0.698  1.00  0.00     0.279 HD
HETATM   26  C   UNL     1       5.693   1.759  -0.984  1.00  0.00     0.269 C 
ENDBRANCH  22  23
ENDBRANCH  21  22
ENDBRANCH  20  21
ENDBRANCH   1  20
BRANCH   3  27
HETATM   27  C   UNL     1       9.722   2.517   4.611  1.00  0.00     0.010 A 
HETATM   28  C   UNL     1       9.473   3.054   5.898  1.00  0.00     0.152 A 
HETATM   29  N   UNL     1      10.452   3.854   6.324  1.00  0.00    -0.187 NA
HETATM   30  N   UNL     1      11.352   3.811   5.330  1.00  0.00    -0.289 N 
HETATM   31  H   UNL     1      12.212   4.340   5.436  1.00  0.00     0.188 HD
HETATM   32  C   UNL     1      10.954   3.038   4.275  1.00  0.00     0.123 A 
ENDBRANCH   3  27
TORSDOF 8
