REMARK  5 active torsions:
REMARK  status: ('A' for Active; 'I' for Inactive)
REMARK    1  A    between atoms: C_8  and  N_9 
REMARK    2  A    between atoms: N_9  and  C_10 
REMARK    3  A    between atoms: C_10  and  C_11 
REMARK       I    between atoms: C_11  and  N_12 
REMARK    4  A    between atoms: N_12  and  N_13 
REMARK    5  A    between atoms: C_14  and  C_15 
ROOT
HETATM    1  C   UNL     1       0.582  -3.900  -0.979  1.00  0.00     0.250 C 
HETATM    2  N   UNL     1       1.552  -4.896  -1.098  1.00  0.00    -0.246 N 
HETATM    3  O   UNL     1      -0.615  -4.047  -1.220  1.00  0.00    -0.270 OA
HETATM    4  H   UNL     1       2.439  -4.766  -0.620  1.00  0.00     0.192 HD
ENDROOT
BRANCH   2   5
HETATM    5  N   UNL     1       1.306  -6.215  -1.399  1.00  0.00    -0.184 NA
HETATM    6  C   UNL     1       0.320  -6.499  -2.191  1.00  0.00     0.152 C 
BRANCH   6   7
HETATM    7  C   UNL     1       0.023  -7.889  -2.482  1.00  0.00     0.011 A 
HETATM    8  C   UNL     1      -1.021  -8.389  -3.327  1.00  0.00     0.004 A 
HETATM    9  C   UNL     1      -0.934  -9.783  -3.317  1.00  0.00     0.043 A 
HETATM   10  C   UNL     1      -2.036  -7.787  -4.101  1.00  0.00     0.014 A 
HETATM   11  C   UNL     1      -1.807 -10.603  -4.043  1.00  0.00     0.030 A 
HETATM   12  N   UNL     1       0.117 -10.118  -2.496  1.00  0.00    -0.364 N 
HETATM   13  C   UNL     1      -2.802  -9.980  -4.802  1.00  0.00     0.002 A 
HETATM   14  C   UNL     1      -2.917  -8.593  -4.832  1.00  0.00     0.001 A 
HETATM   15  H   UNL     1       0.409 -11.064  -2.297  1.00  0.00     0.165 HD
HETATM   16  C   UNL     1       0.700  -8.989  -1.989  1.00  0.00     0.102 A 
ENDBRANCH   6   7
ENDBRANCH   2   5
BRANCH   1  17
HETATM   17  C   UNL     1       1.162  -2.560  -0.498  1.00  0.00     0.197 C 
BRANCH  17  18
HETATM   18  N   UNL     1       0.433  -2.074   0.689  1.00  0.00    -0.284 NA
HETATM   19  H   UNL     1       0.342  -2.808   1.389  1.00  0.00     0.128 HD
BRANCH  18  20
HETATM   20  C   UNL     1       0.992  -0.901   1.237  1.00  0.00     0.016 A 
HETATM   21  C   UNL     1       0.778   0.366   0.649  1.00  0.00    -0.019 A 
HETATM   22  C   UNL     1      -0.168   0.534  -0.513  1.00  0.00     0.052 C 
HETATM   23  C   UNL     1       1.463   1.478   1.177  1.00  0.00     0.041 A 
HETATM   24 CL   UNL     1       1.297   3.059   0.492  1.00  0.00    -0.084 Cl
HETATM   25  C   UNL     1       2.315   1.345   2.276  1.00  0.00     0.024 A 
HETATM   26  C   UNL     1       2.508   0.099   2.861  1.00  0.00     0.003 A 
HETATM   27  C   UNL     1       1.857  -1.017   2.338  1.00  0.00     0.024 A 
ENDBRANCH  18  20
ENDBRANCH  17  18
ENDBRANCH   1  17
TORSDOF 5
