REMARK  5 active torsions:
REMARK  status: ('A' for Active; 'I' for Inactive)
REMARK    1  A    between atoms: C_7  and  C_8 
REMARK    2  A    between atoms: C_8  and  N_9 
REMARK    3  A    between atoms: N_9  and  C_12 
REMARK    4  A    between atoms: C_15  and  O_16 
REMARK    5  A    between atoms: O_16  and  C_17 
ROOT
HETATM    1  C   UNL     1      -1.725  -5.814  -3.530  1.00  0.00     0.164 A 
HETATM    2  N   UNL     1      -0.780  -6.577  -4.117  1.00  0.00    -0.236 NA
HETATM    3  C   UNL     1      -1.220  -7.555  -4.949  1.00  0.00     0.142 A 
HETATM    4  C   UNL     1      -2.560  -7.806  -5.211  1.00  0.00     0.062 A 
HETATM    5  C   UNL     1      -2.941  -8.854  -6.104  1.00  0.00     0.101 C 
HETATM    6  N   UNL     1      -3.246  -9.706  -6.829  1.00  0.00    -0.191 NA
HETATM    7  C   UNL     1      -3.511  -7.008  -4.577  1.00  0.00     0.028 A 
HETATM    8  C   UNL     1      -3.087  -5.997  -3.715  1.00  0.00     0.059 A 
ENDROOT
BRANCH   1   9
HETATM    9  O   UNL     1      -1.351  -4.813  -2.659  1.00  0.00    -0.329 OA
BRANCH   9  10
HETATM   10  C   UNL     1       0.022  -4.414  -2.763  1.00  0.00     0.130 C 
HETATM   11  C   UNL     1       0.067  -2.916  -2.428  1.00  0.00     0.034 C 
HETATM   12  C   UNL     1      -0.357  -2.637  -0.983  1.00  0.00     0.035 C 
HETATM   13  C   UNL     1       0.450  -3.436   0.045  1.00  0.00     0.186 C 
HETATM   14  C   UNL     1       0.475  -4.928  -0.307  1.00  0.00     0.035 C 
HETATM   15  C   UNL     1       0.879  -5.201  -1.760  1.00  0.00     0.034 C 
BRANCH  13  16
HETATM   16  N   UNL     1       1.869  -2.938   0.117  1.00  0.00    -0.067 N 
HETATM   17  H   UNL     1       2.322  -2.950  -0.805  1.00  0.00     0.278 HD
HETATM   18  H   UNL     1       2.420  -3.593   0.690  1.00  0.00     0.278 HD
BRANCH  16  19
HETATM   19  C   UNL     1       2.063  -1.585   0.730  1.00  0.00     0.280 C 
BRANCH  19  20
HETATM   20  C   UNL     1       3.505  -1.243   0.805  1.00  0.00     0.034 A 
HETATM   21  C   UNL     1       4.302  -0.571  -0.107  1.00  0.00     0.046 A 
HETATM   22  C   UNL     1       3.898  -0.003  -1.422  1.00  0.00     0.071 C 
HETATM   23  N   UNL     1       5.619  -0.431   0.280  1.00  0.00    -0.250 NA
HETATM   24  C   UNL     1       5.818  -0.949   1.472  1.00  0.00     0.072 A 
HETATM   25  C   UNL     1       7.116  -0.922   2.200  1.00  0.00     0.078 C 
HETATM   26  S   UNL     1       4.439  -1.692   2.174  1.00  0.00    -0.076 SA
ENDBRANCH  19  20
ENDBRANCH  16  19
ENDBRANCH  13  16
ENDBRANCH   9  10
ENDBRANCH   1   9
TORSDOF 5
