REMARK  3 active torsions:
REMARK  status: ('A' for Active; 'I' for Inactive)
REMARK    1  A    between atoms: C_3  and  C_4 
REMARK       I    between atoms: C_4  and  N_5 
REMARK    2  A    between atoms: N_5  and  N_6 
REMARK       I    between atoms: N_6  and  C_7 
REMARK    3  A    between atoms: C_7  and  C_8 
ROOT
HETATM    1  N   UNL     1       5.169   3.358  -0.007  1.00  0.00    -0.263 N 
HETATM    2  C   UNL     1       5.955   4.484   0.090  1.00  0.00     0.272 C 
HETATM    3  O   UNL     1       5.460   5.594   0.295  1.00  0.00    -0.266 OA
HETATM    4  H   UNL     1       5.533   2.422  -0.177  1.00  0.00     0.190 HD
ENDROOT
BRANCH   1   5
HETATM    5  N   UNL     1       3.782   3.480   0.128  1.00  0.00    -0.261 N 
HETATM    6  C   UNL     1       2.985   2.356   0.026  1.00  0.00     0.294 C 
HETATM    7  O   UNL     1       3.468   1.242  -0.179  1.00  0.00    -0.264 OA
HETATM    8  H   UNL     1       3.395   4.407   0.297  1.00  0.00     0.190 HD
BRANCH   6   9
HETATM    9  C   UNL     1       1.567   2.618   0.181  1.00  0.00     0.152 A 
HETATM   10  C   UNL     1       0.455   1.782   0.138  1.00  0.00    -0.009 A 
HETATM   11  C   UNL     1       0.418   0.315  -0.092  1.00  0.00     0.052 C 
HETATM   12  C   UNL     1      -0.680   2.621   0.367  1.00  0.00     0.007 A 
HETATM   13  C   UNL     1      -0.185   3.907   0.530  1.00  0.00     0.087 A 
HETATM   14  C   UNL     1      -2.071   2.425   0.454  1.00  0.00     0.015 A 
HETATM   15  O   UNL     1       1.168   3.909   0.417  1.00  0.00    -0.304 OA
HETATM   16  C   UNL     1      -0.976   5.027   0.775  1.00  0.00     0.038 A 
HETATM   17  C   UNL     1      -2.356   4.811   0.858  1.00  0.00     0.003 A 
HETATM   18  C   UNL     1      -2.896   3.532   0.700  1.00  0.00     0.001 A 
ENDBRANCH   6   9
ENDBRANCH   1   5
BRANCH   2  19
HETATM   19  C   UNL     1       7.400   4.295  -0.061  1.00  0.00     0.064 A 
HETATM   20  C   UNL     1       8.203   3.123  -0.305  1.00  0.00     0.046 A 
HETATM   21  C   UNL     1       9.542   3.532  -0.357  1.00  0.00     0.046 A 
HETATM   22  C   UNL     1       7.954   1.745  -0.489  1.00  0.00     0.130 A 
HETATM   23  C   UNL     1      10.606   2.646  -0.579  1.00  0.00     0.030 A 
HETATM   24  N   UNL     1       9.562   4.891  -0.156  1.00  0.00    -0.364 N 
HETATM   25  C   UNL     1      10.310   1.292  -0.756  1.00  0.00     0.005 A 
HETATM   26  C   UNL     1       8.995   0.843  -0.712  1.00  0.00     0.043 A 
HETATM   27  H   UNL     1      10.399   5.459  -0.142  1.00  0.00     0.165 HD
HETATM   28  C   UNL     1       8.292   5.356   0.021  1.00  0.00     0.106 A 
HETATM   29  F   UNL     1       6.702   1.268  -0.455  1.00  0.00    -0.205 F 
ENDBRANCH   2  19
TORSDOF 3
