REMARK  5 active torsions:
REMARK  status: ('A' for Active; 'I' for Inactive)
REMARK       I    between atoms: N_6  and  C_7 
REMARK    1  A    between atoms: C_7  and  C_8 
REMARK    2  A    between atoms: N_11  and  C_12 
REMARK    3  A    between atoms: C_19  and  C_20 
REMARK    4  A    between atoms: C_20  and  N_21 
REMARK    5  A    between atoms: N_21  and  C_22 
ROOT
HETATM    1  C   UNL     1       2.534  -5.280  -4.723  1.00  0.00     0.719 A 
HETATM    2  N   UNL     1       1.396  -4.910  -5.430  1.00  0.00    -0.154 N 
HETATM    3  C   UNL     1       0.678  -6.093  -5.628  1.00  0.00     0.083 A 
HETATM    4  C   UNL     1      -0.572  -6.019  -6.307  1.00  0.00     0.033 A 
HETATM    5  C   UNL     1      -1.000  -4.834  -6.780  1.00  0.00     0.004 A 
HETATM    6  C   UNL     1      -0.209  -3.630  -6.625  1.00  0.00     0.018 A 
HETATM    7  C   UNL     1       0.958  -3.692  -5.963  1.00  0.00     0.115 A 
HETATM    8  C   UNL     1       1.454  -7.111  -5.121  1.00  0.00     0.099 A 
HETATM    9  N   UNL     1       2.612  -6.598  -4.551  1.00  0.00    -0.064 NA
ENDROOT
BRANCH   1  10
HETATM   10  N   UNL     1       3.535  -4.426  -4.240  1.00  0.00    -0.147 N 
HETATM   11  C   UNL     1       4.780  -4.847  -3.819  1.00  0.00     0.233 A 
HETATM   12  N   UNL     1       5.555  -3.862  -3.429  1.00  0.00    -0.236 NA
HETATM   13  C   UNL     1       4.799  -2.720  -3.581  1.00  0.00     0.142 A 
HETATM   14  C   UNL     1       3.538  -3.068  -4.038  1.00  0.00     0.153 A 
BRANCH  13  15
HETATM   15  C   UNL     1       5.222  -1.346  -3.261  1.00  0.00     0.273 C 
HETATM   16  N   UNL     1       6.573  -1.071  -2.984  1.00  0.00    -0.345 N 
HETATM   17  C   UNL     1       6.877   0.250  -2.430  1.00  0.00     0.154 C 
HETATM   18  C   UNL     1       7.672  -1.978  -3.299  1.00  0.00     0.128 C 
HETATM   19  C   UNL     1       7.139   1.286  -3.531  1.00  0.00     0.254 C 
HETATM   20  N   UNL     1       8.520   1.127  -4.162  1.00  0.00    -0.073 N 
HETATM   21  C   UNL     1       8.743   2.212  -5.193  1.00  0.00     0.269 C 
HETATM   22  H   UNL     1       9.215   1.301  -3.423  1.00  0.00     0.279 HD
HETATM   23  C   UNL     1       8.814  -0.238  -4.752  1.00  0.00     0.236 C 
HETATM   24  C   UNL     1       8.987  -1.288  -3.660  1.00  0.00     0.048 C 
HETATM   25  O   UNL     1       4.401  -0.427  -3.260  1.00  0.00    -0.266 OA
ENDBRANCH  13  15
ENDBRANCH   1  10
BRANCH   8  26
HETATM   26  C   UNL     1       1.205  -8.592  -5.136  1.00  0.00     0.183 C 
BRANCH  26  27
HETATM   27  N   UNL     1       0.961  -9.244  -3.853  1.00  0.00    -0.371 N 
HETATM   28  H   UNL     1       0.002  -9.150  -3.522  1.00  0.00     0.161 HD
BRANCH  27  29
HETATM   29  C   UNL     1       1.893  -9.298  -2.834  1.00  0.00     0.101 A 
HETATM   30  N   UNL     1       3.018  -8.565  -2.855  1.00  0.00    -0.353 N 
HETATM   31  H   UNL     1       3.117  -7.873  -3.603  1.00  0.00     0.166 HD
HETATM   32  C   UNL     1       3.969  -8.641  -1.914  1.00  0.00     0.089 A 
HETATM   33  C   UNL     1       3.826  -9.512  -0.846  1.00  0.00     0.017 A 
HETATM   34  C   UNL     1       2.679 -10.289  -0.768  1.00  0.00     0.005 A 
HETATM   35  C   UNL     1       1.710 -10.182  -1.764  1.00  0.00     0.048 A 
ENDBRANCH  27  29
ENDBRANCH  26  27
ENDBRANCH   8  26
TORSDOF 5
