REMARK  9 active torsions:
REMARK  status: ('A' for Active; 'I' for Inactive)
REMARK    1  A    between atoms: C_7  and  C_8 
REMARK    2  A    between atoms: C_9  and  O_10 
REMARK    3  A    between atoms: C_13  and  N_14 
REMARK    4  A    between atoms: N_14  and  C_15 
REMARK    5  A    between atoms: C_15  and  N_16 
REMARK       I    between atoms: N_16  and  C_17 
REMARK    6  A    between atoms: C_17  and  C_18 
REMARK    7  A    between atoms: C_21  and  O_22 
REMARK    8  A    between atoms: O_22  and  C_23 
REMARK    9  A    between atoms: C_23  and  C_24 
ROOT
HETATM    1  C   UNL     1      10.738  -3.748   1.209  1.00  0.00     0.052 A 
HETATM    2  C   UNL     1      11.768  -3.684   0.260  1.00  0.00     0.080 A 
HETATM    3  C   UNL     1      11.860  -4.627  -0.761  1.00  0.00     0.040 A 
HETATM    4  C   UNL     1      10.936  -5.673  -0.833  1.00  0.00     0.032 A 
HETATM    5  C   UNL     1       9.897  -5.761   0.097  1.00  0.00     0.035 A 
HETATM    6  C   UNL     1       9.807  -4.798   1.110  1.00  0.00     0.048 A 
ENDROOT
BRANCH   5   7
HETATM    7  N   UNL     1       9.050  -6.892   0.039  1.00  0.00    -0.337 N 
HETATM    8  H   UNL     1       9.363  -7.650  -0.558  1.00  0.00     0.168 HD
BRANCH   7   9
HETATM    9  C   UNL     1       7.831  -7.067   0.647  1.00  0.00     0.157 C 
HETATM   10  S   UNL     1       6.604  -5.931   0.750  1.00  0.00    -0.047 SA
BRANCH   9  11
HETATM   11  N   UNL     1       7.597  -8.303   1.211  1.00  0.00    -0.201 NA
HETATM   12  C   UNL     1       8.621  -9.070   1.720  1.00  0.00     0.237 C 
HETATM   13  O   UNL     1       8.928  -9.052   2.905  1.00  0.00    -0.274 OA
HETATM   14  H   UNL     1       6.887  -8.154   1.921  1.00  0.00     0.139 HD
BRANCH  12  15
HETATM   15  C   UNL     1       9.274 -10.020   0.788  1.00  0.00     0.026 A 
HETATM   16  C   UNL     1      10.642 -10.276   0.927  1.00  0.00     0.019 A 
HETATM   17  C   UNL     1      11.257 -11.253   0.137  1.00  0.00     0.038 A 
HETATM   18  C   UNL     1      10.501 -11.999  -0.769  1.00  0.00     0.068 A 
HETATM   19  C   UNL     1       9.140 -11.719  -0.924  1.00  0.00     0.038 A 
HETATM   20  C   UNL     1       8.522 -10.731  -0.152  1.00  0.00     0.019 A 
BRANCH  18  21
HETATM   21  O   UNL     1      10.968 -13.022  -1.548  1.00  0.00    -0.351 OA
BRANCH  21  22
HETATM   22  C   UNL     1      12.245 -13.564  -1.200  1.00  0.00     0.179 C 
BRANCH  22  23
HETATM   23  C   UNL     1      12.449 -14.891  -1.948  1.00  0.00     0.002 C 
HETATM   24  C   UNL     1      13.870 -15.410  -1.733  1.00  0.00     0.011 C 
HETATM   25  C   UNL     1      11.430 -15.942  -1.500  1.00  0.00     0.011 C 
ENDBRANCH  22  23
ENDBRANCH  21  22
ENDBRANCH  18  21
ENDBRANCH  12  15
ENDBRANCH   9  11
ENDBRANCH   7   9
ENDBRANCH   5   7
BRANCH   1  26
HETATM   26  C   UNL     1      10.671  -2.790   2.308  1.00  0.00     0.183 A 
HETATM   27  O   UNL     1       9.488  -2.702   2.991  1.00  0.00    -0.288 OA
HETATM   28  C   UNL     1       9.735  -1.783   3.970  1.00  0.00     0.112 A 
HETATM   29  C   UNL     1      11.048  -1.365   3.829  1.00  0.00     0.094 A 
HETATM   30  C   UNL     1       8.851  -1.341   4.954  1.00  0.00    -0.025 A 
HETATM   31  C   UNL     1      11.573  -0.450   4.750  1.00  0.00     0.041 A 
HETATM   32  N   UNL     1      11.625  -1.982   2.743  1.00  0.00    -0.221 NA
HETATM   33  C   UNL     1      10.742   0.013   5.786  1.00  0.00    -0.059 A 
HETATM   34  C   UNL     1      11.285   0.943   6.834  1.00  0.00     0.048 C 
HETATM   35  C   UNL     1       9.409  -0.432   5.875  1.00  0.00     0.016 A 
HETATM   36  C   UNL     1       7.434  -1.797   5.077  1.00  0.00     0.051 C 
ENDBRANCH   1  26
BRANCH   2  37
HETATM   37  O   UNL     1      12.743  -2.720   0.284  1.00  0.00    -0.360 OA
HETATM   38  H   UNL     1      12.643  -2.197   1.108  1.00  0.00     0.217 HD
ENDBRANCH   2  37
TORSDOF 9
