REMARK  1 active torsions:
REMARK  status: ('A' for Active; 'I' for Inactive)
REMARK    1  A    between atoms: C_5  and  N_6 
ROOT
HETATM    1  N   UNL     1       1.320  -2.943  -0.145  1.00  0.00    -0.320 N 
HETATM    2  C   UNL     1       0.986  -3.865  -1.195  1.00  0.00     0.141 C 
HETATM    3  N   UNL     1       0.427  -3.510  -2.318  1.00  0.00    -0.380 N 
HETATM    4  H   UNL     1       0.202  -2.538  -2.482  1.00  0.00     0.158 HD
HETATM    5  H   UNL     1       0.230  -4.209  -3.020  1.00  0.00     0.158 HD
HETATM    6  S   UNL     1       1.438  -5.496  -0.830  1.00  0.00    -0.086 SA
HETATM    7  C   UNL     1       1.763  -5.033   0.900  1.00  0.00     0.093 C 
HETATM    8  C   UNL     1       2.258  -3.574   0.794  1.00  0.00     0.121 C 
HETATM    9  C   UNL     1       2.795  -5.736   1.745  1.00  0.00     0.158 C 
HETATM   10  S   UNL     1       3.087  -4.513   3.042  1.00  0.00     0.147 S 
HETATM   11  O   UNL     1       2.301  -4.871   4.201  1.00  0.00    -0.228 OA
HETATM   12  O   UNL     1       4.509  -4.257   3.108  1.00  0.00    -0.228 OA
HETATM   13  C   UNL     1       2.299  -3.108   2.232  1.00  0.00     0.167 C 
ENDROOT
BRANCH   1  14
HETATM   14  C   UNL     1       1.288  -1.537  -0.249  1.00  0.00     0.048 A 
HETATM   15  C   UNL     1       0.046  -0.847  -0.389  1.00  0.00     0.001 A 
HETATM   16  C   UNL     1       0.054   0.558  -0.584  1.00  0.00    -0.024 A 
HETATM   17  C   UNL     1      -1.215  -1.487  -0.323  1.00  0.00     0.014 A 
HETATM   18  C   UNL     1      -1.155   1.254  -0.747  1.00  0.00     0.012 A 
HETATM   19  C   UNL     1       1.270   1.252  -0.606  1.00  0.00     0.012 A 
HETATM   20  C   UNL     1      -2.378   0.588  -0.705  1.00  0.00     0.001 A 
HETATM   21  C   UNL     1      -2.409  -0.782  -0.485  1.00  0.00     0.001 A 
HETATM   22  C   UNL     1       2.476   0.581  -0.442  1.00  0.00     0.003 A 
HETATM   23  C   UNL     1       2.485  -0.801  -0.269  1.00  0.00     0.030 A 
ENDBRANCH   1  14
TORSDOF 1
