REMARK  10 active torsions:
REMARK  status: ('A' for Active; 'I' for Inactive)
REMARK    1  A    between atoms: C_2  and  N_3 
REMARK    2  A    between atoms: N_7  and  C_8 
REMARK    3  A    between atoms: C_8  and  C_9 
REMARK    4  A    between atoms: C_9  and  N_10 
REMARK    5  A    between atoms: N_10  and  C_11 
REMARK    6  A    between atoms: C_13  and  C_14 
REMARK    7  A    between atoms: C_14  and  N_15 
REMARK    8  A    between atoms: C_23  and  C_24 
REMARK    9  A    between atoms: C_24  and  O_25 
REMARK   10  A    between atoms: O_25  and  C_26 
ROOT
HETATM    1  C   UNL     1       8.883  -0.056  -2.142  1.00  0.00     0.139 A 
HETATM    2  N   UNL     1       9.922   0.818  -2.171  1.00  0.00    -0.214 NA
HETATM    3  C   UNL     1      11.182   0.356  -2.127  1.00  0.00     0.155 A 
HETATM    4  N   UNL     1      11.554  -0.923  -2.001  1.00  0.00    -0.224 NA
HETATM    5  C   UNL     1      10.514  -1.770  -1.964  1.00  0.00     0.115 A 
HETATM    6  C   UNL     1       9.171  -1.444  -2.057  1.00  0.00     0.053 A 
HETATM    7  S   UNL     1      10.798  -3.427  -1.789  1.00  0.00    -0.063 SA
HETATM    8  C   UNL     1       9.131  -3.804  -1.856  1.00  0.00     0.089 A 
HETATM    9  C   UNL     1       8.357  -2.659  -2.059  1.00  0.00    -0.022 A 
HETATM   10  C   UNL     1       6.868  -2.684  -2.255  1.00  0.00     0.051 C 
ENDROOT
BRANCH   1  11
HETATM   11  N   UNL     1       7.585   0.438  -2.209  1.00  0.00    -0.372 N 
HETATM   12  H   UNL     1       6.903  -0.223  -1.851  1.00  0.00     0.161 HD
BRANCH  11  13
HETATM   13  C   UNL     1       7.311   1.817  -1.829  1.00  0.00     0.145 C 
BRANCH  13  14
HETATM   14  C   UNL     1       7.609   2.859  -2.942  1.00  0.00     0.092 C 
HETATM   15  C   UNL     1       6.942   2.457  -4.270  1.00  0.00     0.033 C 
BRANCH  14  16
HETATM   16  N   UNL     1       7.305   4.271  -2.602  1.00  0.00    -0.404 N 
HETATM   17  C   UNL     1       8.145   4.872  -1.561  1.00  0.00     0.145 C 
HETATM   18  C   UNL     1       7.564   4.874  -0.129  1.00  0.00     0.254 C 
HETATM   19  N   UNL     1       6.146   5.414  -0.114  1.00  0.00    -0.068 N 
HETATM   20  H   UNL     1       6.188   6.392  -0.433  1.00  0.00     0.280 HD
HETATM   21  C   UNL     1       5.269   4.673  -1.117  1.00  0.00     0.254 C 
HETATM   22  C   UNL     1       5.902   4.694  -2.521  1.00  0.00     0.145 C 
BRANCH  19  23
HETATM   23  C   UNL     1       5.504   5.406   1.258  1.00  0.00     0.230 C 
HETATM   24  C   UNL     1       6.242   6.316   2.221  1.00  0.00     0.034 C 
ENDBRANCH  19  23
ENDBRANCH  14  16
ENDBRANCH  13  14
ENDBRANCH  11  13
ENDBRANCH   1  11
BRANCH   3  25
HETATM   25  C   UNL     1      12.325   1.348  -2.264  1.00  0.00     0.314 C 
BRANCH  25  26
HETATM   26  N   UNL     1      13.554   0.772  -2.968  1.00  0.00    -0.072 N 
HETATM   27  H   UNL     1      13.639  -0.186  -2.585  1.00  0.00     0.279 HD
HETATM   28  C   UNL     1      13.348   0.610  -4.447  1.00  0.00     0.269 C 
HETATM   29  C   UNL     1      14.812   1.512  -2.644  1.00  0.00     0.269 C 
ENDBRANCH  25  26
ENDBRANCH   3  25
BRANCH   8  30
HETATM   30  C   UNL     1       8.673  -5.184  -1.694  1.00  0.00     0.300 C 
HETATM   31  O   UNL     1       7.516  -5.507  -1.457  1.00  0.00    -0.259 OA
BRANCH  30  32
HETATM   32  O   UNL     1       9.698  -6.069  -1.857  1.00  0.00    -0.317 OA
BRANCH  32  33
HETATM   33  C   UNL     1       9.357  -7.460  -1.756  1.00  0.00     0.174 C 
HETATM   34  C   UNL     1       8.896  -7.979  -3.105  1.00  0.00     0.034 C 
ENDBRANCH  32  33
ENDBRANCH  30  32
ENDBRANCH   8  30
TORSDOF 10
