REMARK  3 active torsions:
REMARK  status: ('A' for Active; 'I' for Inactive)
REMARK    1  A    between atoms: O_2  and  C_3 
REMARK    2  A    between atoms: C_4  and  N_5 
REMARK       I    between atoms: N_5  and  C_6 
REMARK       I    between atoms: C_6  and  N_7 
REMARK    3  A    between atoms: C_8  and  C_9 
ROOT
HETATM    1  N   UNL     1       0.818   2.992   0.329  1.00  0.00    -0.306 N 
HETATM    2  C   UNL     1       0.637   4.011   1.230  1.00  0.00     0.323 C 
HETATM    3  N   UNL     1       1.186   5.229   0.830  1.00  0.00    -0.324 N 
HETATM    4  C   UNL     1       2.360   5.354  -0.056  1.00  0.00     0.139 C 
HETATM    5  C   UNL     1       2.224   6.602  -0.943  1.00  0.00     0.032 C 
HETATM    6  C   UNL     1       1.912   7.867  -0.142  1.00  0.00     0.004 C 
HETATM    7  C   UNL     1       0.700   7.650   0.757  1.00  0.00     0.020 C 
HETATM    8  C   UNL     1       0.863   6.412   1.632  1.00  0.00     0.128 C 
HETATM    9  O   UNL     1       0.056   3.886   2.304  1.00  0.00    -0.247 OA
HETATM   10  H   UNL     1       0.909   3.263  -0.641  1.00  0.00     0.171 HD
ENDROOT
BRANCH   4  11
HETATM   11  C   UNL     1       3.626   5.324   0.769  1.00  0.00     0.033 A 
HETATM   12  N   UNL     1       3.779   4.458   1.833  1.00  0.00    -0.357 N 
HETATM   13  H   UNL     1       3.068   3.818   2.162  1.00  0.00     0.166 HD
HETATM   14  C   UNL     1       5.010   4.616   2.424  1.00  0.00     0.042 A 
HETATM   15  C   UNL     1       5.684   5.601   1.708  1.00  0.00    -0.007 A 
HETATM   16  C   UNL     1       5.570   3.968   3.532  1.00  0.00     0.030 A 
HETATM   17  C   UNL     1       4.816   6.025   0.666  1.00  0.00     0.041 A 
HETATM   18  C   UNL     1       6.983   5.964   2.111  1.00  0.00     0.014 A 
HETATM   19  C   UNL     1       7.559   5.329   3.218  1.00  0.00     0.001 A 
HETATM   20  C   UNL     1       6.860   4.346   3.916  1.00  0.00     0.002 A 
ENDBRANCH   4  11
BRANCH   1  21
HETATM   21  C   UNL     1       0.532   1.620   0.498  1.00  0.00     0.072 A 
HETATM   22  C   UNL     1       0.566   0.818  -0.660  1.00  0.00     0.095 A 
HETATM   23  C   UNL     1       0.275  -0.547  -0.593  1.00  0.00     0.042 A 
HETATM   24  C   UNL     1      -0.003  -1.128   0.643  1.00  0.00     0.045 A 
HETATM   25  C   UNL     1       0.003  -0.340   1.790  1.00  0.00     0.118 A 
HETATM   26  C   UNL     1       0.265   1.026   1.731  1.00  0.00     0.074 A 
HETATM   27  F   UNL     1      -0.254  -0.910   2.974  1.00  0.00    -0.206 F 
BRANCH  22  28
HETATM   28  O   UNL     1       0.827   1.452  -1.854  1.00  0.00    -0.354 OA
HETATM   29  C   UNL     1       1.864   0.815  -2.599  1.00  0.00     0.210 C 
ENDBRANCH  22  28
ENDBRANCH   1  21
TORSDOF 3
