REMARK  10 active torsions:
REMARK  status: ('A' for Active; 'I' for Inactive)
REMARK    1  A    between atoms: C_3  and  C_4 
REMARK    2  A    between atoms: C_8  and  N_9 
REMARK    3  A    between atoms: N_9  and  C_10 
REMARK    4  A    between atoms: C_10  and  N_11 
REMARK    5  A    between atoms: N_11  and  N_12 
REMARK       I    between atoms: N_12  and  C_13 
REMARK    6  A    between atoms: C_13  and  C_14 
REMARK    7  A    between atoms: C_14  and  C_15 
REMARK    8  A    between atoms: C_15  and  C_16 
REMARK    9  A    between atoms: C_18  and  O_19 
REMARK   10  A    between atoms: C_20  and  O_21 
ROOT
HETATM    1  N   UNL     1       2.716  -1.805  -0.390  1.00  0.00    -0.274 N 
HETATM    2  H   UNL     1       2.772  -1.699   0.624  1.00  0.00     0.189 HD
ENDROOT
BRANCH   1   3
HETATM    3  C   UNL     1       3.800  -1.466  -1.155  1.00  0.00     0.191 C 
HETATM    4  S   UNL     1       4.137  -2.123  -2.661  1.00  0.00    -0.039 SA
BRANCH   3   5
HETATM    5  N   UNL     1       4.678  -0.552  -0.640  1.00  0.00    -0.331 N 
HETATM    6  H   UNL     1       5.561  -0.541  -1.151  1.00  0.00     0.168 HD
BRANCH   5   7
HETATM    7  C   UNL     1       4.522   0.426   0.372  1.00  0.00     0.049 A 
HETATM    8  C   UNL     1       5.662   1.049   0.920  1.00  0.00     0.074 A 
HETATM    9  C   UNL     1       5.500   2.039   1.913  1.00  0.00     0.018 A 
HETATM   10  C   UNL     1       4.234   2.431   2.337  1.00  0.00     0.001 A 
HETATM   11  C   UNL     1       3.111   1.844   1.771  1.00  0.00     0.002 A 
HETATM   12  C   UNL     1       3.254   0.856   0.792  1.00  0.00     0.030 A 
BRANCH   8  13
HETATM   13  C   UNL     1       7.066   0.653   0.540  1.00  0.00     0.419 C 
HETATM   14  F   UNL     1       7.965   1.671   0.660  1.00  0.00    -0.166 F 
HETATM   15  F   UNL     1       7.547  -0.361   1.311  1.00  0.00    -0.166 F 
HETATM   16  F   UNL     1       7.176   0.222  -0.751  1.00  0.00    -0.166 F 
ENDBRANCH   8  13
ENDBRANCH   5   7
ENDBRANCH   3   5
ENDBRANCH   1   3
BRANCH   1  17
HETATM   17  N   UNL     1       1.780  -2.751  -0.823  1.00  0.00    -0.268 N 
HETATM   18  C   UNL     1       0.874  -3.243   0.094  1.00  0.00     0.236 C 
HETATM   19  O   UNL     1       0.930  -2.977   1.292  1.00  0.00    -0.272 OA
HETATM   20  H   UNL     1       1.732  -2.938  -1.822  1.00  0.00     0.190 HD
BRANCH  18  21
HETATM   21  C   UNL     1      -0.202  -4.097  -0.542  1.00  0.00     0.109 C 
BRANCH  21  22
HETATM   22  C   UNL     1      -1.133  -4.703   0.507  1.00  0.00     0.048 C 
BRANCH  22  23
HETATM   23  C   UNL     1      -2.346  -5.451  -0.009  1.00  0.00    -0.055 A 
HETATM   24  C   UNL     1      -3.248  -5.972   0.939  1.00  0.00     0.046 A 
HETATM   25  C   UNL     1      -4.392  -6.644   0.520  1.00  0.00     0.099 A 
HETATM   26  C   UNL     1      -4.652  -6.807  -0.836  1.00  0.00     0.098 A 
HETATM   27  C   UNL     1      -3.776  -6.313  -1.787  1.00  0.00     0.040 A 
HETATM   28  C   UNL     1      -2.622  -5.638  -1.375  1.00  0.00     0.010 A 
BRANCH  25  29
HETATM   29  O   UNL     1      -5.295  -7.158   1.408  1.00  0.00    -0.358 OA
HETATM   30  H   UNL     1      -4.972  -6.972   2.307  1.00  0.00     0.218 HD
ENDBRANCH  25  29
BRANCH  26  31
HETATM   31  O   UNL     1      -5.782  -7.458  -1.241  1.00  0.00    -0.358 OA
HETATM   32  H   UNL     1      -6.233  -7.702  -0.409  1.00  0.00     0.218 HD
ENDBRANCH  26  31
ENDBRANCH  22  23
ENDBRANCH  21  22
ENDBRANCH  18  21
ENDBRANCH   1  17
TORSDOF 10
