REMARK  8 active torsions:
REMARK  status: ('A' for Active; 'I' for Inactive)
REMARK    1  A    between atoms: C_2  and  O_3 
REMARK    2  A    between atoms: C_2  and  C_14 
REMARK    3  A    between atoms: O_3  and  C_4 
REMARK       I    between atoms: C_14  and  N_15 
REMARK    4  A    between atoms: N_15  and  N_16 
REMARK       I    between atoms: N_16  and  C_17 
REMARK    5  A    between atoms: C_17  and  C_18 
REMARK    6  A    between atoms: C_18  and  C_19 
REMARK    7  A    between atoms: C_19  and  C_20 
REMARK    8  A    between atoms: C_20  and  C_21 
ROOT
HETATM    1  N   UNL     1       0.864   2.305  -1.744  1.00  0.00    -0.267 N 
HETATM    2  C   UNL     1       0.160   2.158  -2.926  1.00  0.00     0.236 C 
HETATM    3  O   UNL     1       0.709   2.066  -4.021  1.00  0.00    -0.272 OA
HETATM    4  H   UNL     1       0.427   2.051  -0.858  1.00  0.00     0.190 HD
ENDROOT
BRANCH   1   5
HETATM    5  N   UNL     1       2.253   2.069  -1.798  1.00  0.00    -0.265 N 
HETATM    6  C   UNL     1       2.753   1.099  -0.941  1.00  0.00     0.265 C 
HETATM    7  O   UNL     1       2.091   0.651  -0.005  1.00  0.00    -0.269 OA
HETATM    8  H   UNL     1       2.672   2.131  -2.730  1.00  0.00     0.190 HD
BRANCH   6   9
HETATM    9  C   UNL     1       4.223   0.742  -1.208  1.00  0.00     0.218 C 
HETATM   10  C   UNL     1       4.533  -0.646  -0.661  1.00  0.00     0.050 C 
BRANCH   9  11
HETATM   11  O   UNL     1       4.435   0.763  -2.623  1.00  0.00    -0.337 OA
BRANCH  11  12
HETATM   12  C   UNL     1       5.639   1.205  -3.096  1.00  0.00     0.070 A 
HETATM   13  C   UNL     1       5.649   1.518  -4.459  1.00  0.00     0.049 A 
HETATM   14  C   UNL     1       6.813   1.984  -5.092  1.00  0.00    -0.023 A 
HETATM   15  C   UNL     1       7.997   2.129  -4.336  1.00  0.00    -0.026 A 
HETATM   16  C   UNL     1       6.828   2.310  -6.458  1.00  0.00     0.012 A 
HETATM   17  C   UNL     1       7.981   1.799  -2.973  1.00  0.00     0.015 A 
HETATM   18  C   UNL     1       9.164   2.594  -4.965  1.00  0.00     0.012 A 
HETATM   19  C   UNL     1       6.812   1.338  -2.358  1.00  0.00     0.037 A 
HETATM   20  C   UNL     1       9.161   2.914  -6.324  1.00  0.00     0.001 A 
HETATM   21  C   UNL     1       7.994   2.772  -7.069  1.00  0.00     0.001 A 
ENDBRANCH  11  12
ENDBRANCH   9  11
ENDBRANCH   6   9
ENDBRANCH   1   5
BRANCH   2  22
HETATM   22  C   UNL     1      -1.342   2.186  -2.726  1.00  0.00     0.105 C 
BRANCH  22  23
HETATM   23  C   UNL     1      -2.092   1.627  -3.933  1.00  0.00     0.014 C 
BRANCH  23  24
HETATM   24  C   UNL     1      -3.605   1.694  -3.722  1.00  0.00     0.039 C 
BRANCH  24  25
HETATM   25  C   UNL     1      -4.359   0.992  -4.827  1.00  0.00    -0.056 A 
HETATM   26  C   UNL     1      -4.633   1.663  -6.031  1.00  0.00     0.039 A 
HETATM   27  C   UNL     1      -5.308   0.957  -7.000  1.00  0.00     0.063 A 
HETATM   28  C   UNL     1      -5.707  -0.365  -6.817  1.00  0.00     0.063 A 
HETATM   29  N   UNL     1      -5.712   1.353  -8.270  1.00  0.00    -0.306 N 
HETATM   30  N   UNL     1      -6.356  -0.782  -7.973  1.00  0.00    -0.307 N 
HETATM   31  C   UNL     1      -5.451  -1.053  -5.657  1.00  0.00     0.032 A 
HETATM   32  C   UNL     1      -6.367   0.279  -8.890  1.00  0.00     0.325 A 
HETATM   33  H   UNL     1      -6.759  -1.686  -8.157  1.00  0.00     0.170 HD
HETATM   34  O   UNL     1      -6.851   0.269 -10.007  1.00  0.00    -0.247 OA
HETATM   35  C   UNL     1      -4.764  -0.359  -4.653  1.00  0.00     0.009 A 
HETATM   36  H   UNL     1      -5.570   2.249  -8.705  1.00  0.00     0.170 HD
ENDBRANCH  24  25
ENDBRANCH  23  24
ENDBRANCH  22  23
ENDBRANCH   2  22
TORSDOF 8
