REMARK  9 active torsions:
REMARK  status: ('A' for Active; 'I' for Inactive)
REMARK    1  A    between atoms: C_4  and  C_5 
REMARK    2  A    between atoms: C_5  and  N_6 
REMARK    3  A    between atoms: C_10  and  C_11 
REMARK    4  A    between atoms: C_11  and  N_12 
REMARK       I    between atoms: N_12  and  C_13 
REMARK    5  A    between atoms: C_13  and  C_14 
REMARK    6  A    between atoms: C_14  and  C_15 
REMARK    7  A    between atoms: C_15  and  C_16 
REMARK       I    between atoms: C_16  and  N_17 
REMARK    8  A    between atoms: N_17  and  C_18 
REMARK    9  A    between atoms: C_24  and  N_25 
ROOT
HETATM    1  C   UNL     1       7.106   6.355   3.141  1.00  0.00     0.112 C 
ENDROOT
BRANCH   1   2
HETATM    2  C   UNL     1       6.503   5.722   4.390  1.00  0.00     0.112 C 
BRANCH   2   3
HETATM    3  C   UNL     1       5.047   6.067   4.596  1.00  0.00     0.218 C 
HETATM    4  N   UNL     1       4.183   5.562   3.647  1.00  0.00    -0.361 N 
HETATM    5  H   UNL     1       4.555   4.890   2.985  1.00  0.00     0.162 HD
HETATM    6  O   UNL     1       4.660   6.729   5.556  1.00  0.00    -0.274 OA
BRANCH   4   7
HETATM    7  C   UNL     1       2.748   5.551   3.863  1.00  0.00     0.127 C 
BRANCH   7   8
HETATM    8  C   UNL     1       2.014   6.800   3.331  1.00  0.00     0.006 C 
HETATM    9  C   UNL     1       2.418   8.116   4.010  1.00  0.00     0.034 C 
HETATM   10  C   UNL     1       1.974   8.193   5.466  1.00  0.00     0.235 C 
HETATM   11  N   UNL     1       0.469   8.028   5.532  1.00  0.00    -0.067 N 
HETATM   12  H   UNL     1       0.061   8.809   5.005  1.00  0.00     0.280 HD
HETATM   13  C   UNL     1      -0.001   6.739   4.911  1.00  0.00     0.235 C 
HETATM   14  C   UNL     1       0.489   6.637   3.468  1.00  0.00     0.034 C 
BRANCH  11  15
HETATM   15  C   UNL     1      -0.062   8.168   6.950  1.00  0.00     0.273 C 
BRANCH  15  16
HETATM   16  C   UNL     1       0.209   9.513   7.565  1.00  0.00    -0.032 A 
HETATM   17  C   UNL     1      -0.440  10.664   7.087  1.00  0.00     0.015 A 
HETATM   18  C   UNL     1      -0.151  11.925   7.626  1.00  0.00    -0.061 A 
HETATM   19  C   UNL     1      -0.862  13.154   7.138  1.00  0.00     0.048 C 
HETATM   20  C   UNL     1       0.773  12.025   8.671  1.00  0.00     0.007 A 
HETATM   21  C   UNL     1       1.414  10.889   9.160  1.00  0.00     0.001 A 
HETATM   22  C   UNL     1       1.137   9.639   8.609  1.00  0.00     0.009 A 
ENDBRANCH  15  16
ENDBRANCH  11  15
ENDBRANCH   7   8
ENDBRANCH   4   7
ENDBRANCH   2   3
ENDBRANCH   1   2
BRANCH   1  23
HETATM   23  C   UNL     1       8.612   6.143   3.106  1.00  0.00     0.222 C 
HETATM   24  N   UNL     1       9.198   6.628   1.947  1.00  0.00    -0.327 N 
HETATM   25  H   UNL     1       8.570   6.972   1.229  1.00  0.00     0.169 HD
HETATM   26  O   UNL     1       9.203   5.577   4.020  1.00  0.00    -0.273 OA
BRANCH  24  27
HETATM   27  C   UNL     1      10.573   6.595   1.620  1.00  0.00     0.035 A 
HETATM   28  C   UNL     1      11.582   6.239   2.525  1.00  0.00     0.043 A 
HETATM   29  C   UNL     1      12.947   6.191   2.152  1.00  0.00    -0.001 A 
HETATM   30  C   UNL     1      13.277   6.515   0.820  1.00  0.00     0.044 A 
HETATM   31  C   UNL     1      13.999   5.829   3.027  1.00  0.00    -0.046 A 
HETATM   32  N   UNL     1      14.557   6.451   0.425  1.00  0.00    -0.346 N 
HETATM   33  C   UNL     1      12.277   6.893  -0.086  1.00  0.00     0.033 A 
HETATM   34  H   UNL     1      14.800   6.618  -0.545  1.00  0.00     0.167 HD
HETATM   35  C   UNL     1      15.585   6.111   1.211  1.00  0.00     0.083 A 
HETATM   36  C   UNL     1      15.313   5.790   2.540  1.00  0.00     0.050 A 
HETATM   37  C   UNL     1      10.937   6.941   0.316  1.00  0.00     0.032 A 
HETATM   38  C   UNL     1      13.746   5.466   4.469  1.00  0.00     0.049 C 
BRANCH  35  39
HETATM   39  N   UNL     1      16.823   6.056   0.592  1.00  0.00    -0.269 NA
HETATM   40  C   UNL     1      17.824   5.144   1.189  1.00  0.00     0.097 C 
HETATM   41  C   UNL     1      18.977   4.936   0.208  1.00  0.00     0.015 C 
HETATM   42  C   UNL     1      19.597   6.267  -0.208  1.00  0.00     0.002 C 
HETATM   43  C   UNL     1      18.529   7.222  -0.734  1.00  0.00     0.015 C 
HETATM   44  C   UNL     1      17.385   7.385   0.268  1.00  0.00     0.097 C 
ENDBRANCH  35  39
ENDBRANCH  24  27
ENDBRANCH   1  23
TORSDOF 9
