REMARK  9 active torsions:
REMARK  status: ('A' for Active; 'I' for Inactive)
REMARK    1  A    between atoms: C_2  and  O_3 
REMARK    2  A    between atoms: O_3  and  C_4 
REMARK    3  A    between atoms: C_4  and  C_5 
REMARK    4  A    between atoms: C_8  and  N_9 
REMARK       I    between atoms: N_9  and  C_10 
REMARK    5  A    between atoms: C_10  and  C_11 
REMARK       I    between atoms: C_11  and  N_12 
REMARK    6  A    between atoms: N_12  and  C_13 
REMARK    7  A    between atoms: C_13  and  C_14 
REMARK    8  A    between atoms: C_14  and  C_15 
REMARK    9  A    between atoms: C_18  and  O_19 
ROOT
HETATM    1  C   UNL     1       8.171  -2.720   4.403  1.00  0.00     0.309 C 
HETATM    2  N   UNL     1       9.308  -2.838   3.640  1.00  0.00    -0.352 N 
HETATM    3  O   UNL     1       8.115  -2.389   5.580  1.00  0.00    -0.262 OA
HETATM    4  H   UNL     1       9.177  -3.144   2.678  1.00  0.00     0.162 HD
ENDROOT
BRANCH   1   5
HETATM    5  C   UNL     1       6.874  -3.098   3.655  1.00  0.00     0.313 C 
HETATM    6  N   UNL     1       5.772  -3.018   4.479  1.00  0.00    -0.319 N 
HETATM    7  H   UNL     1       5.981  -2.696   5.423  1.00  0.00     0.169 HD
HETATM    8  O   UNL     1       6.946  -3.433   2.482  1.00  0.00    -0.262 OA
BRANCH   6   9
HETATM    9  C   UNL     1       4.445  -3.368   4.184  1.00  0.00     0.035 A 
HETATM   10  C   UNL     1       4.032  -3.867   2.947  1.00  0.00     0.030 A 
HETATM   11  C   UNL     1       2.695  -4.229   2.741  1.00  0.00     0.020 A 
HETATM   12  C   UNL     1       1.754  -4.095   3.769  1.00  0.00     0.039 A 
HETATM   13  C   UNL     1       2.164  -3.582   5.004  1.00  0.00     0.020 A 
HETATM   14  C   UNL     1       3.502  -3.222   5.207  1.00  0.00     0.030 A 
BRANCH  12  15
HETATM   15  C   UNL     1       0.353  -4.520   3.502  1.00  0.00     0.293 C 
HETATM   16  O   UNL     1      -0.020  -4.977   2.433  1.00  0.00    -0.259 OA
BRANCH  15  17
HETATM   17  O   UNL     1      -0.418  -4.335   4.602  1.00  0.00    -0.318 OA
BRANCH  17  18
HETATM   18  C   UNL     1      -1.787  -4.750   4.480  1.00  0.00     0.174 C 
HETATM   19  C   UNL     1      -2.622  -3.640   3.869  1.00  0.00     0.034 C 
ENDBRANCH  17  18
ENDBRANCH  15  17
ENDBRANCH  12  15
ENDBRANCH   6   9
ENDBRANCH   1   5
BRANCH   2  20
HETATM   20  C   UNL     1      10.641  -2.645   4.173  1.00  0.00     0.137 C 
BRANCH  20  21
HETATM   21  C   UNL     1      11.391  -3.948   4.558  1.00  0.00     0.003 C 
HETATM   22  C   UNL     1      10.595  -4.867   5.522  1.00  0.00     0.016 C 
HETATM   23  C   UNL     1      11.265  -6.236   5.396  1.00  0.00     0.001 C 
HETATM   24  C   UNL     1      11.838  -6.281   3.980  1.00  0.00     0.001 C 
HETATM   25  C   UNL     1      11.502  -4.925   3.358  1.00  0.00     0.016 C 
BRANCH  21  26
HETATM   26  C   UNL     1      12.751  -3.523   5.156  1.00  0.00    -0.048 A 
HETATM   27  C   UNL     1      12.835  -3.074   6.487  1.00  0.00     0.011 A 
HETATM   28  C   UNL     1      14.052  -2.666   7.043  1.00  0.00     0.037 A 
HETATM   29  C   UNL     1      15.219  -2.672   6.285  1.00  0.00     0.068 A 
HETATM   30  C   UNL     1      15.154  -3.084   4.957  1.00  0.00     0.037 A 
HETATM   31  C   UNL     1      13.935  -3.497   4.400  1.00  0.00     0.011 A 
BRANCH  29  32
HETATM   32  O   UNL     1      16.338  -2.249   6.946  1.00  0.00    -0.356 OA
HETATM   33  C   UNL     1      17.551  -2.225   6.206  1.00  0.00     0.210 C 
ENDBRANCH  29  32
ENDBRANCH  21  26
ENDBRANCH  20  21
ENDBRANCH   2  20
TORSDOF 9
