REMARK  5 active torsions:
REMARK  status: ('A' for Active; 'I' for Inactive)
REMARK    1  A    between atoms: C_4  and  O_5 
REMARK    2  A    between atoms: O_5  and  C_6 
REMARK    3  A    between atoms: C_6  and  C_7 
REMARK       I    between atoms: C_7  and  N_8 
REMARK    4  A    between atoms: N_8  and  C_9 
REMARK    5  A    between atoms: C_12  and  C_13 
ROOT
HETATM    1  C   UNL     1       7.458   3.203  -1.376  1.00  0.00     0.034 A 
HETATM    2  C   UNL     1       8.597   2.970  -2.151  1.00  0.00     0.030 A 
HETATM    3  C   UNL     1       9.149   1.688  -2.248  1.00  0.00     0.017 A 
HETATM    4  C   UNL     1       8.564   0.617  -1.567  1.00  0.00     0.010 A 
HETATM    5  C   UNL     1       7.457   0.849  -0.746  1.00  0.00     0.017 A 
HETATM    6  C   UNL     1       6.904   2.134  -0.658  1.00  0.00     0.030 A 
ENDROOT
BRANCH   1   7
HETATM    7  N   UNL     1       6.814   4.455  -1.296  1.00  0.00    -0.325 N 
HETATM    8  C   UNL     1       7.189   5.631  -1.921  1.00  0.00     0.246 C 
HETATM    9  O   UNL     1       8.209   5.811  -2.584  1.00  0.00    -0.271 OA
HETATM   10  H   UNL     1       5.953   4.506  -0.760  1.00  0.00     0.169 HD
BRANCH   8  11
HETATM   11  C   UNL     1       6.212   6.788  -1.705  1.00  0.00     0.278 C 
BRANCH  11  12
HETATM   12  O   UNL     1       4.959   6.378  -1.170  1.00  0.00    -0.342 OA
BRANCH  12  13
HETATM   13  C   UNL     1       3.971   7.330  -1.179  1.00  0.00     0.069 A 
HETATM   14  C   UNL     1       4.149   8.690  -1.458  1.00  0.00     0.043 A 
HETATM   15  C   UNL     1       3.058   9.573  -1.453  1.00  0.00    -0.059 A 
HETATM   16  C   UNL     1       3.245  11.021  -1.802  1.00  0.00     0.048 C 
HETATM   17  C   UNL     1       1.780   9.078  -1.174  1.00  0.00     0.007 A 
HETATM   18  C   UNL     1       1.598   7.727  -0.881  1.00  0.00     0.003 A 
HETATM   19  C   UNL     1       2.691   6.859  -0.880  1.00  0.00     0.037 A 
ENDBRANCH  12  13
ENDBRANCH  11  12
ENDBRANCH   8  11
ENDBRANCH   1   7
BRANCH   4  20
HETATM   20  C   UNL     1       9.089  -0.763  -1.724  1.00  0.00     0.141 A 
HETATM   21  N   UNL     1       9.064  -1.612  -0.747  1.00  0.00    -0.230 NA
HETATM   22  C   UNL     1       9.578  -2.903  -0.977  1.00  0.00     0.074 A 
HETATM   23  C   UNL     1      10.073  -3.308  -2.219  1.00  0.00     0.061 A 
HETATM   24  C   UNL     1       9.600  -3.822   0.075  1.00  0.00     0.032 A 
HETATM   25  C   UNL     1      10.048  -2.324  -3.310  1.00  0.00     0.259 A 
HETATM   26  C   UNL     1      10.572  -4.598  -2.426  1.00  0.00     0.019 A 
HETATM   27  O   UNL     1      10.422  -2.592  -4.446  1.00  0.00    -0.267 OA
HETATM   28  N   UNL     1       9.568  -1.085  -2.976  1.00  0.00    -0.307 N 
HETATM   29  H   UNL     1       9.513  -0.432  -3.744  1.00  0.00     0.170 HD
HETATM   30  C   UNL     1      10.584  -5.504  -1.367  1.00  0.00     0.001 A 
HETATM   31  C   UNL     1      10.100  -5.115  -0.118  1.00  0.00     0.002 A 
ENDBRANCH   4  20
TORSDOF 5
