REMARK  6 active torsions:
REMARK  status: ('A' for Active; 'I' for Inactive)
REMARK    1  A    between atoms: C_2  and  O_3 
REMARK    2  A    between atoms: O_3  and  C_4 
REMARK    3  A    between atoms: C_7  and  N_8 
REMARK    4  A    between atoms: C_9  and  C_11 
REMARK    5  A    between atoms: C_9  and  O_10 
REMARK       I    between atoms: C_11  and  N_12 
REMARK    6  A    between atoms: N_12  and  C_13 
ROOT
HETATM    1  N   UNL     1       8.176   1.812  -2.804  1.00  0.00    -0.254 N 
HETATM    2  C   UNL     1       9.099   2.955  -2.690  1.00  0.00     0.256 C 
HETATM    3  C   UNL     1      10.157   3.034  -3.773  1.00  0.00     0.035 A 
HETATM    4  C   UNL     1      10.316   1.963  -4.641  1.00  0.00     0.048 A 
HETATM    5  N   UNL     1       9.478   0.868  -4.520  1.00  0.00    -0.308 N 
HETATM    6  C   UNL     1       8.413   0.768  -3.681  1.00  0.00     0.330 C 
HETATM    7  O   UNL     1       7.747  -0.266  -3.743  1.00  0.00    -0.246 OA
HETATM    8  C   UNL     1      11.015   4.141  -3.913  1.00  0.00     0.034 A 
HETATM    9  C   UNL     1      11.981   4.162  -4.920  1.00  0.00     0.011 A 
HETATM   10 BR   UNL     1      13.098   5.674  -5.118  1.00  0.00    -0.051 Br
HETATM   11  C   UNL     1      12.128   3.079  -5.781  1.00  0.00     0.021 A 
HETATM   12  C   UNL     1      11.296   1.970  -5.636  1.00  0.00     0.031 A 
HETATM   13  H   UNL     1       9.585   0.077  -5.143  1.00  0.00     0.170 HD
ENDROOT
BRANCH   1  14
HETATM   14  C   UNL     1       6.936   1.844  -2.070  1.00  0.00     0.043 A 
HETATM   15  C   UNL     1       6.868   2.269  -0.737  1.00  0.00     0.032 A 
HETATM   16  C   UNL     1       5.636   2.365  -0.079  1.00  0.00     0.039 A 
HETATM   17  C   UNL     1       4.447   2.078  -0.747  1.00  0.00     0.068 A 
HETATM   18  C   UNL     1       4.501   1.635  -2.065  1.00  0.00     0.039 A 
HETATM   19  C   UNL     1       5.736   1.511  -2.714  1.00  0.00     0.032 A 
BRANCH  17  20
HETATM   20  O   UNL     1       3.310   2.251  -0.009  1.00  0.00    -0.352 OA
BRANCH  20  21
HETATM   21  C   UNL     1       2.096   2.391  -0.749  1.00  0.00     0.171 C 
HETATM   22  C   UNL     1       0.994   2.764   0.226  1.00  0.00     0.034 C 
ENDBRANCH  20  21
ENDBRANCH  17  20
ENDBRANCH   1  14
BRANCH   2  23
HETATM   23  C   UNL     1       8.262   4.307  -2.715  1.00  0.00     0.279 C 
HETATM   24  N   UNL     1       8.424   5.059  -1.556  1.00  0.00    -0.352 N 
HETATM   25  H   UNL     1       9.054   4.684  -0.852  1.00  0.00     0.163 HD
HETATM   26  O   UNL     1       7.538   4.646  -3.649  1.00  0.00    -0.268 OA
BRANCH  24  27
HETATM   27  C   UNL     1       7.685   6.246  -1.286  1.00  0.00     0.084 A 
HETATM   28  C   UNL     1       6.193   6.213  -1.094  1.00  0.00     0.027 A 
HETATM   29  C   UNL     1       7.090   6.468   0.079  1.00  0.00     0.027 A 
ENDBRANCH  24  27
ENDBRANCH   2  23
BRANCH   2  30
HETATM   30  O   UNL     1       9.829   2.778  -1.474  1.00  0.00    -0.359 OA
HETATM   31  H   UNL     1       9.616   1.863  -1.220  1.00  0.00     0.213 HD
ENDBRANCH   2  30
TORSDOF 6
