REMARK  7 active torsions:
REMARK  status: ('A' for Active; 'I' for Inactive)
REMARK    1  A    between atoms: C_2  and  O_3 
REMARK    2  A    between atoms: O_3  and  C_4 
REMARK    3  A    between atoms: C_5  and  O_6 
REMARK    4  A    between atoms: C_9  and  C_10 
REMARK    5  A    between atoms: C_14  and  C_15 
REMARK       I    between atoms: C_15  and  N_16 
REMARK    6  A    between atoms: N_16  and  N_17 
REMARK    7  A    between atoms: C_18  and  C_19 
ROOT
HETATM    1  C   UNL     1       8.542  -2.371  -1.267  1.00  0.00     0.089 A 
HETATM    2  N   UNL     1       9.520  -1.602  -1.770  1.00  0.00    -0.174 NA
HETATM    3  N   UNL     1      10.469  -2.462  -2.163  1.00  0.00    -0.272 N 
HETATM    4  H   UNL     1      11.323  -2.101  -2.581  1.00  0.00     0.189 HD
HETATM    5  C   UNL     1      10.162  -3.775  -1.943  1.00  0.00     0.121 A 
HETATM    6  C   UNL     1       8.909  -3.746  -1.362  1.00  0.00     0.071 A 
ENDROOT
BRANCH   5   7
HETATM    7  C   UNL     1      11.080  -4.827  -2.303  1.00  0.00     0.289 C 
HETATM    8  N   UNL     1      10.626  -6.108  -2.025  1.00  0.00    -0.242 N 
HETATM    9  H   UNL     1       9.717  -6.248  -1.607  1.00  0.00     0.192 HD
HETATM   10  O   UNL     1      12.168  -4.572  -2.813  1.00  0.00    -0.264 OA
BRANCH   8  11
HETATM   11  N   UNL     1      11.408  -7.195  -2.304  1.00  0.00    -0.183 NA
HETATM   12  C   UNL     1      10.894  -8.345  -2.010  1.00  0.00     0.152 C 
BRANCH  12  13
HETATM   13  C   UNL     1      11.645  -9.556  -2.262  1.00  0.00     0.011 A 
HETATM   14  C   UNL     1      11.231 -10.904  -2.006  1.00  0.00     0.004 A 
HETATM   15  C   UNL     1      12.276 -11.742  -2.402  1.00  0.00     0.043 A 
HETATM   16  C   UNL     1      10.065 -11.494  -1.473  1.00  0.00     0.014 A 
HETATM   17  C   UNL     1      12.214 -13.136  -2.292  1.00  0.00     0.030 A 
HETATM   18  N   UNL     1      13.284 -10.937  -2.880  1.00  0.00    -0.364 N 
HETATM   19  C   UNL     1      11.047 -13.694  -1.761  1.00  0.00     0.002 A 
HETATM   20  C   UNL     1       9.987 -12.887  -1.357  1.00  0.00     0.001 A 
HETATM   21  H   UNL     1      14.168 -11.273  -3.238  1.00  0.00     0.165 HD
HETATM   22  C   UNL     1      12.915  -9.623  -2.801  1.00  0.00     0.102 A 
ENDBRANCH  12  13
ENDBRANCH   8  11
ENDBRANCH   5   7
BRANCH   1  23
HETATM   23  C   UNL     1       7.309  -1.787  -0.717  1.00  0.00    -0.003 A 
HETATM   24  C   UNL     1       6.291  -2.596  -0.179  1.00  0.00     0.053 A 
HETATM   25  C   UNL     1       5.116  -2.039   0.352  1.00  0.00     0.102 A 
HETATM   26  C   UNL     1       4.973  -0.642   0.367  1.00  0.00     0.102 A 
HETATM   27  C   UNL     1       5.963   0.167  -0.193  1.00  0.00     0.040 A 
HETATM   28  C   UNL     1       7.123  -0.398  -0.724  1.00  0.00     0.017 A 
BRANCH  25  29
HETATM   29  O   UNL     1       4.076  -2.780   0.849  1.00  0.00    -0.353 OA
HETATM   30  C   UNL     1       4.135  -4.193   0.716  1.00  0.00     0.210 C 
ENDBRANCH  25  29
BRANCH  26  31
HETATM   31  O   UNL     1       3.886   0.047   0.841  1.00  0.00    -0.349 OA
BRANCH  31  32
HETATM   32  C   UNL     1       3.401  -0.393   2.112  1.00  0.00     0.171 C 
HETATM   33  C   UNL     1       2.803   0.809   2.823  1.00  0.00     0.034 C 
ENDBRANCH  31  32
ENDBRANCH  26  31
ENDBRANCH   1  23
TORSDOF 7
