REMARK  10 active torsions:
REMARK  status: ('A' for Active; 'I' for Inactive)
REMARK    1  A    between atoms: C_2  and  N_3 
REMARK    2  A    between atoms: N_3  and  C_4 
REMARK    3  A    between atoms: N_3  and  C_37 
REMARK    4  A    between atoms: C_7  and  C_8 
REMARK    5  A    between atoms: N_9  and  C_11 
REMARK    6  A    between atoms: C_11  and  C_12 
REMARK       I    between atoms: C_12  and  N_13 
REMARK    7  A    between atoms: N_13  and  C_14 
REMARK    8  A    between atoms: C_20  and  C_21 
REMARK    9  A    between atoms: C_21  and  O_22 
REMARK   10  A    between atoms: C_28  and  O_29 
ROOT
HETATM    1  C   UNL     1      -1.585   3.020   5.648  1.00  0.00     0.228 C 
HETATM    2  N   UNL     1      -1.519   1.938   6.751  1.00  0.00    -0.054 N 
HETATM    3  H   UNL     1      -2.070   1.158   6.360  1.00  0.00     0.281 HD
HETATM    4  C   UNL     1      -2.126   2.366   8.069  1.00  0.00     0.239 C 
HETATM    5  C   UNL     1      -1.478   3.637   8.591  1.00  0.00     0.066 C 
HETATM    6  C   UNL     1      -1.547   4.773   7.561  1.00  0.00     0.065 C 
HETATM    7  C   UNL     1      -0.916   4.315   6.227  1.00  0.00     0.055 C 
HETATM    8  C   UNL     1      -0.838   6.017   8.133  1.00  0.00     0.038 C 
HETATM    9  C   UNL     1      -0.677   7.145   7.115  1.00  0.00     0.003 C 
HETATM   10  C   UNL     1      -0.012   6.652   5.837  1.00  0.00     0.001 C 
HETATM   11  C   UNL     1      -0.789   5.484   5.233  1.00  0.00     0.010 C 
ENDROOT
BRANCH   2  12
HETATM   12  C   UNL     1      -0.129   1.318   6.964  1.00  0.00     0.338 C 
BRANCH  12  13
HETATM   13  C   UNL     1       0.451   0.621   5.735  1.00  0.00     0.248 C 
HETATM   14  N   UNL     1       1.831   0.635   5.744  1.00  0.00    -0.319 N 
HETATM   15  H   UNL     1       2.320   1.143   6.485  1.00  0.00     0.169 HD
HETATM   16  O   UNL     1      -0.316   0.151   4.900  1.00  0.00    -0.271 OA
BRANCH  14  17
HETATM   17  C   UNL     1       2.704   0.061   4.830  1.00  0.00     0.094 A 
HETATM   18  S   UNL     1       2.148  -0.890   3.553  1.00  0.00    -0.076 SA
HETATM   19  C   UNL     1       3.731  -1.213   3.003  1.00  0.00    -0.012 A 
HETATM   20  C   UNL     1       3.915  -2.095   1.809  1.00  0.00     0.057 C 
HETATM   21  C   UNL     1       4.695  -0.566   3.765  1.00  0.00    -0.030 A 
HETATM   22  C   UNL     1       6.168  -0.631   3.486  1.00  0.00     0.050 C 
HETATM   23  C   UNL     1       4.090   0.169   4.866  1.00  0.00     0.080 A 
BRANCH  23  24
HETATM   24  C   UNL     1       4.755   0.953   5.919  1.00  0.00     0.296 C 
HETATM   25  O   UNL     1       4.109   1.593   6.748  1.00  0.00    -0.259 OA
BRANCH  24  26
HETATM   26  O   UNL     1       6.111   0.887   5.887  1.00  0.00    -0.322 OA
HETATM   27  C   UNL     1       6.806   1.623   6.897  1.00  0.00     0.213 C 
ENDBRANCH  24  26
ENDBRANCH  23  24
ENDBRANCH  14  17
ENDBRANCH  12  13
ENDBRANCH   2  12
BRANCH   1  28
HETATM   28  C   UNL     1      -2.957   3.188   4.984  1.00  0.00    -0.027 C 
HETATM   29  C   UNL     1      -4.154   2.656   5.470  1.00  0.00     0.011 C 
HETATM   30  C   UNL     1      -5.400   3.032   4.935  1.00  0.00     0.030 C 
HETATM   31  C   UNL     1      -5.524   3.945   3.883  1.00  0.00     0.030 C 
HETATM   32  C   UNL     1      -4.315   4.308   3.279  1.00  0.00     0.030 C 
HETATM   33  C   UNL     1      -3.067   3.927   3.800  1.00  0.00     0.011 C 
BRANCH  31  34
HETATM   34  N   UNL     1      -6.751   4.446   3.449  1.00  0.00    -0.382 N 
BRANCH  34  35
HETATM   35  C   UNL     1      -6.807   5.786   2.831  1.00  0.00     0.118 C 
HETATM   36  C   UNL     1      -6.584   6.885   3.863  1.00  0.00     0.026 C 
ENDBRANCH  34  35
BRANCH  34  37
HETATM   37  C   UNL     1      -8.019   3.994   4.050  1.00  0.00     0.118 C 
HETATM   38  C   UNL     1      -8.495   2.706   3.397  1.00  0.00     0.026 C 
ENDBRANCH  34  37
ENDBRANCH  31  34
ENDBRANCH   1  28
BRANCH   6  39
HETATM   39  O   UNL     1      -2.930   5.064   7.386  1.00  0.00    -0.389 OA
HETATM   40  H   UNL     1      -3.044   5.881   6.867  1.00  0.00     0.210 HD
ENDBRANCH   6  39
TORSDOF 10
