REMARK  8 active torsions:
REMARK  status: ('A' for Active; 'I' for Inactive)
REMARK    1  A    between atoms: C_4  and  C_5 
REMARK    2  A    between atoms: C_5  and  N_6 
REMARK    3  A    between atoms: N_10  and  C_12 
REMARK    4  A    between atoms: C_12  and  C_13 
REMARK       I    between atoms: C_13  and  N_14 
REMARK    5  A    between atoms: N_14  and  C_15 
REMARK    6  A    between atoms: C_17  and  S_18 
REMARK    7  A    between atoms: S_18  and  C_19 
REMARK    8  A    between atoms: C_22  and  N_23 
ROOT
HETATM    1  C   UNL     1       4.093   3.453   2.836  1.00  0.00     0.249 C 
HETATM    2  N   UNL     1       3.823   4.662   3.419  1.00  0.00    -0.304 N 
HETATM    3  O   UNL     1       4.691   2.481   3.300  1.00  0.00    -0.271 OA
HETATM    4  H   UNL     1       3.284   5.394   2.974  1.00  0.00     0.171 HD
ENDROOT
BRANCH   2   5
HETATM    5  C   UNL     1       4.352   5.003   4.636  1.00  0.00     0.174 A 
HETATM    6  S   UNL     1       3.924   6.562   5.167  1.00  0.00    -0.038 SA
HETATM    7  C   UNL     1       4.953   6.362   6.522  1.00  0.00     0.125 A 
HETATM    8  C   UNL     1       5.514   5.101   6.485  1.00  0.00     0.151 A 
HETATM    9  N   UNL     1       5.147   4.312   5.405  1.00  0.00    -0.234 NA
BRANCH   7  10
HETATM   10  S   UNL     1       5.148   7.716   7.640  1.00  0.00     0.214 S 
HETATM   11  O   UNL     1       6.556   7.693   7.977  1.00  0.00    -0.217 OA
HETATM   12  O   UNL     1       4.522   8.864   7.018  1.00  0.00    -0.217 OA
BRANCH  10  13
HETATM   13  C   UNL     1       4.217   7.278   9.086  1.00  0.00     0.065 A 
HETATM   14  C   UNL     1       4.847   6.592  10.130  1.00  0.00     0.026 A 
HETATM   15  C   UNL     1       4.124   6.268  11.281  1.00  0.00     0.037 A 
HETATM   16  C   UNL     1       2.777   6.646  11.384  1.00  0.00     0.102 A 
HETATM   17  C   UNL     1       2.153   7.354  10.345  1.00  0.00     0.037 A 
HETATM   18  C   UNL     1       2.878   7.676   9.193  1.00  0.00     0.026 A 
BRANCH  16  19
HETATM   19  N   UNL     1       2.010   6.292  12.587  1.00  0.00    -0.116 N 
HETATM   20  O   UNL     1       2.599   5.666  13.478  1.00  0.00    -0.532 OA
HETATM   21  O   UNL     1       0.816   6.618  12.620  1.00  0.00    -0.532 OA
ENDBRANCH  16  19
ENDBRANCH  10  13
ENDBRANCH   7  10
ENDBRANCH   2   5
BRANCH   1  22
HETATM   22  C   UNL     1       3.570   3.300   1.406  1.00  0.00     0.337 C 
BRANCH  22  23
HETATM   23  N   UNL     1       3.714   1.818   0.960  1.00  0.00    -0.060 N 
HETATM   24  C   UNL     1       2.563   0.953   1.476  1.00  0.00     0.263 C 
HETATM   25  C   UNL     1       2.740  -0.521   1.047  1.00  0.00     0.263 C 
HETATM   26  N   UNL     1       2.932  -0.647  -0.465  1.00  0.00    -0.064 N 
HETATM   27  H   UNL     1       3.174  -1.638  -0.627  1.00  0.00     0.280 HD
HETATM   28  C   UNL     1       4.120   0.179  -0.944  1.00  0.00     0.263 C 
HETATM   29  C   UNL     1       4.001   1.669  -0.522  1.00  0.00     0.263 C 
HETATM   30  H   UNL     1       4.556   1.522   1.502  1.00  0.00     0.280 HD
BRANCH  26  31
HETATM   31  C   UNL     1       1.682  -0.438  -1.313  1.00  0.00     0.273 C 
BRANCH  31  32
HETATM   32  C   UNL     1       0.502  -1.253  -0.874  1.00  0.00    -0.033 A 
HETATM   33  C   UNL     1      -0.633  -0.626  -0.332  1.00  0.00     0.009 A 
HETATM   34  C   UNL     1      -1.723  -1.383   0.096  1.00  0.00     0.001 A 
HETATM   35  C   UNL     1      -1.694  -2.771  -0.015  1.00  0.00     0.000 A 
HETATM   36  C   UNL     1      -0.581  -3.404  -0.562  1.00  0.00     0.001 A 
HETATM   37  C   UNL     1       0.512  -2.652  -0.994  1.00  0.00     0.009 A 
ENDBRANCH  31  32
ENDBRANCH  26  31
ENDBRANCH  22  23
ENDBRANCH   1  22
TORSDOF 8
