REMARK  11 active torsions:
REMARK  status: ('A' for Active; 'I' for Inactive)
REMARK    1  A    between atoms: O_2  and  C_3 
REMARK    2  A    between atoms: C_3  and  C_4 
REMARK    3  A    between atoms: C_4  and  C_5 
REMARK    4  A    between atoms: C_5  and  O_6 
REMARK    5  A    between atoms: O_6  and  C_7 
REMARK    6  A    between atoms: C_7  and  C_9 
REMARK    7  A    between atoms: C_13  and  C_15 
REMARK    8  A    between atoms: C_17  and  C_23 
REMARK    9  A    between atoms: C_20  and  C_21 
REMARK   10  A    between atoms: C_21  and  N_22 
REMARK       I    between atoms: C_23  and  N_25 
REMARK   11  A    between atoms: N_25  and  C_26 
ROOT
HETATM    1  C   UNL     1      11.389   0.406   2.214  1.00  0.00    -0.017 A 
HETATM    2  C   UNL     1      12.580   0.247   1.474  1.00  0.00     0.030 A 
HETATM    3  C   UNL     1      13.203  -1.002   1.351  1.00  0.00     0.033 A 
HETATM    4  C   UNL     1      12.639  -2.115   1.971  1.00  0.00     0.017 A 
HETATM    5  C   UNL     1      11.465  -1.976   2.711  1.00  0.00     0.011 A 
HETATM    6  C   UNL     1      10.817  -0.729   2.831  1.00  0.00    -0.020 A 
ENDROOT
BRANCH   1   7
HETATM    7  C   UNL     1      10.774   1.743   2.254  1.00  0.00    -0.024 A 
HETATM    8  C   UNL     1      10.718   2.494   3.437  1.00  0.00     0.012 A 
HETATM    9  C   UNL     1      10.141   3.767   3.450  1.00  0.00     0.002 A 
HETATM   10  C   UNL     1       9.625   4.314   2.274  1.00  0.00     0.017 A 
HETATM   11  C   UNL     1       9.685   3.591   1.078  1.00  0.00     0.040 A 
HETATM   12  C   UNL     1      10.253   2.308   1.078  1.00  0.00     0.030 A 
BRANCH  11  13
HETATM   13  C   UNL     1       9.129   4.203  -0.160  1.00  0.00     0.293 C 
HETATM   14  O   UNL     1       8.514   5.256  -0.179  1.00  0.00    -0.259 OA
BRANCH  13  15
HETATM   15  O   UNL     1       9.417   3.419  -1.226  1.00  0.00    -0.317 OA
BRANCH  15  16
HETATM   16  C   UNL     1       8.854   3.804  -2.490  1.00  0.00     0.181 C 
BRANCH  16  17
HETATM   17  C   UNL     1       9.755   4.809  -3.200  1.00  0.00     0.053 C 
BRANCH  17  18
HETATM   18  C   UNL     1       9.454   4.873  -4.692  1.00  0.00     0.169 C 
BRANCH  18  19
HETATM   19  O   UNL     1       8.064   5.113  -4.890  1.00  0.00    -0.396 OA
HETATM   20  C   UNL     1       7.703   5.024  -6.262  1.00  0.00     0.201 C 
ENDBRANCH  18  19
ENDBRANCH  17  18
ENDBRANCH  16  17
ENDBRANCH  15  16
ENDBRANCH  13  15
ENDBRANCH  11  13
ENDBRANCH   1   7
BRANCH   6  21
HETATM   21  C   UNL     1       9.503  -0.692   3.582  1.00  0.00     0.306 C 
BRANCH  21  22
HETATM   22  N   UNL     1       9.700  -0.908   5.011  1.00  0.00     0.082 N 
HETATM   23  H   UNL     1      10.271  -0.153   5.385  1.00  0.00     0.313 HD
HETATM   24  H   UNL     1       8.799  -0.845   5.481  1.00  0.00     0.313 HD
ENDBRANCH  21  22
ENDBRANCH   6  21
BRANCH   3  25
HETATM   25  C   UNL     1      14.413  -1.185   0.501  1.00  0.00     0.256 C 
HETATM   26  O   UNL     1      14.544  -2.242  -0.105  1.00  0.00    -0.267 OA
HETATM   27  N   UNL     1      15.296  -0.119   0.500  1.00  0.00    -0.323 N 
HETATM   28  H   UNL     1      15.144   0.604   1.192  1.00  0.00     0.169 HD
BRANCH  27  29
HETATM   29  C   UNL     1      16.430   0.041  -0.326  1.00  0.00     0.037 A 
HETATM   30  C   UNL     1      16.762  -0.825  -1.363  1.00  0.00     0.049 A 
HETATM   31  C   UNL     1      17.886  -0.545  -2.124  1.00  0.00     0.118 A 
HETATM   32  N   UNL     1      18.687   0.524  -1.923  1.00  0.00    -0.273 NA
HETATM   33  C   UNL     1      18.346   1.347  -0.912  1.00  0.00     0.118 A 
HETATM   34  C   UNL     1      17.240   1.154  -0.099  1.00  0.00     0.049 A 
ENDBRANCH  27  29
ENDBRANCH   3  25
TORSDOF 11
