REMARK  10 active torsions:
REMARK  status: ('A' for Active; 'I' for Inactive)
REMARK    1  A    between atoms: C_2  and  O_3 
REMARK    2  A    between atoms: O_3  and  C_4 
REMARK    3  A    between atoms: C_4  and  C_5 
REMARK    4  A    between atoms: C_6  and  C_7 
REMARK    5  A    between atoms: C_16  and  C_17 
REMARK    6  A    between atoms: C_17  and  C_18 
REMARK       I    between atoms: C_18  and  N_19 
REMARK    7  A    between atoms: N_19  and  C_20 
REMARK    8  A    between atoms: C_20  and  C_21 
REMARK    9  A    between atoms: C_21  and  N_22 
REMARK   10  A    between atoms: C_31  and  C_32 
ROOT
HETATM    1  C   UNL     1       5.050   0.013   0.356  1.00  0.00     0.075 C 
HETATM    2  C   UNL     1       6.508  -0.458   0.590  1.00  0.00     0.151 C 
HETATM    3  N   UNL     1       7.575   0.440   0.265  1.00  0.00    -0.321 N 
HETATM    4  C   UNL     1       8.794   0.349  -0.146  1.00  0.00     0.011 C 
HETATM    5  C   UNL     1       7.265   1.757   0.925  1.00  0.00     0.170 C 
HETATM    6  S   UNL     1       8.638   2.800   0.978  1.00  0.00    -0.086 SA
HETATM    7  C   UNL     1       9.595   1.630  -0.044  1.00  0.00     0.135 C 
HETATM    8  N   UNL     1       6.127   1.997   1.457  1.00  0.00    -0.219 NA
HETATM    9  C   UNL     1       4.978   1.197   1.190  1.00  0.00     0.157 C 
ENDROOT
BRANCH   4  10
HETATM   10  C   UNL     1       9.399  -0.974  -0.519  1.00  0.00     0.156 C 
BRANCH  10  11
HETATM   11  C   UNL     1      10.349  -0.923  -1.697  1.00  0.00     0.223 C 
HETATM   12  N   UNL     1      11.299  -1.913  -1.713  1.00  0.00    -0.359 N 
HETATM   13  H   UNL     1      11.345  -2.564  -0.932  1.00  0.00     0.162 HD
HETATM   14  O   UNL     1      10.253  -0.083  -2.587  1.00  0.00    -0.273 OA
BRANCH  12  15
HETATM   15  C   UNL     1      12.437  -1.951  -2.634  1.00  0.00     0.150 C 
BRANCH  15  16
HETATM   16  C   UNL     1      12.088  -2.212  -4.115  1.00  0.00     0.253 C 
BRANCH  16  17
HETATM   17  N   UNL     1      11.500  -0.993  -4.798  1.00  0.00    -0.077 N 
HETATM   18  H   UNL     1      10.857  -0.542  -4.118  1.00  0.00     0.279 HD
HETATM   19  C   UNL     1      12.527   0.046  -5.158  1.00  0.00     0.269 C 
HETATM   20  C   UNL     1      10.676  -1.369  -5.999  1.00  0.00     0.269 C 
ENDBRANCH  16  17
ENDBRANCH  15  16
ENDBRANCH  12  15
ENDBRANCH  10  11
ENDBRANCH   4  10
BRANCH   2  21
HETATM   21  C   UNL     1       6.003  -1.303  -0.440  1.00  0.00     0.044 C 
HETATM   22  C   UNL     1       5.512  -0.002  -1.654  1.00  0.00    -0.068 C 
HETATM   23  C   UNL     1       6.295   0.261  -2.895  1.00  0.00     0.044 C 
HETATM   24  C   UNL     1       3.967   0.804  -1.358  1.00  0.00     0.004 C 
HETATM   25  C   UNL     1       2.916   0.287   0.000  1.00  0.00     0.007 C 
HETATM   26  C   UNL     1       3.331  -1.120   1.051  1.00  0.00    -0.065 C 
HETATM   27  C   UNL     1       2.303  -1.664   1.999  1.00  0.00     0.048 C 
HETATM   28  C   UNL     1       4.837  -2.011   0.806  1.00  0.00    -0.002 C 
ENDBRANCH   2  21
BRANCH   1  29
HETATM   29  C   UNL     1       4.033  -1.323  -0.971  1.00  0.00     0.293 C 
HETATM   30  O   UNL     1       4.564  -2.231  -1.679  1.00  0.00    -0.259 OA
BRANCH  29  31
HETATM   31  O   UNL     1       2.619  -1.361  -1.238  1.00  0.00    -0.318 OA
BRANCH  31  32
HETATM   32  C   UNL     1       2.064  -2.354  -2.129  1.00  0.00     0.174 C 
HETATM   33  C   UNL     1       2.080  -1.834  -3.552  1.00  0.00     0.034 C 
ENDBRANCH  31  32
ENDBRANCH  29  31
ENDBRANCH   1  29
BRANCH   9  34
HETATM   34  C   UNL     1       3.752   1.994   1.784  1.00  0.00     0.435 C 
HETATM   35  F   UNL     1       4.177   2.856   2.755  1.00  0.00    -0.165 F 
HETATM   36  F   UNL     1       3.139   2.766   0.853  1.00  0.00    -0.165 F 
HETATM   37  F   UNL     1       2.826   1.219   2.396  1.00  0.00    -0.165 F 
ENDBRANCH   9  34
TORSDOF 10
