REMARK  5 active torsions:
REMARK  status: ('A' for Active; 'I' for Inactive)
REMARK    1  A    between atoms: C_4  and  C_5 
REMARK    2  A    between atoms: C_5  and  N_6 
REMARK       I    between atoms: N_6  and  C_7 
REMARK    3  A    between atoms: C_7  and  C_8 
REMARK    4  A    between atoms: C_11  and  N_12 
REMARK       I    between atoms: N_12  and  C_13 
REMARK    5  A    between atoms: C_13  and  C_14 
ROOT
HETATM    1  C   UNL     1       4.229  -3.502  -0.106  1.00  0.00     0.032 A 
HETATM    2  C   UNL     1       4.781  -2.386   0.532  1.00  0.00     0.019 A 
HETATM    3  C   UNL     1       6.121  -2.037   0.315  1.00  0.00     0.030 A 
HETATM    4  C   UNL     1       6.928  -2.799  -0.533  1.00  0.00     0.035 A 
HETATM    5  C   UNL     1       6.375  -3.921  -1.162  1.00  0.00     0.030 A 
HETATM    6  C   UNL     1       5.038  -4.273  -0.948  1.00  0.00     0.019 A 
ENDROOT
BRANCH   4   7
HETATM    7  N   UNL     1       8.288  -2.527  -0.782  1.00  0.00    -0.323 N 
HETATM    8  C   UNL     1       9.035  -1.467  -0.302  1.00  0.00     0.257 C 
HETATM    9  O   UNL     1       8.622  -0.508   0.339  1.00  0.00    -0.267 OA
HETATM   10  H   UNL     1       8.757  -3.166  -1.412  1.00  0.00     0.169 HD
BRANCH   8  11
HETATM   11  C   UNL     1      10.469  -1.490  -0.670  1.00  0.00     0.047 A 
HETATM   12  C   UNL     1      11.238  -2.670  -0.697  1.00  0.00     0.027 A 
HETATM   13  C   UNL     1      12.570  -2.531  -1.079  1.00  0.00     0.138 A 
HETATM   14  C   UNL     1      11.054  -4.054  -0.400  1.00  0.00     0.033 A 
HETATM   15  N   UNL     1      13.157  -3.766  -1.055  1.00  0.00    -0.350 N 
HETATM   16  N   UNL     1      13.215  -1.400  -1.415  1.00  0.00    -0.242 NA
HETATM   17  H   UNL     1      14.126  -3.928  -1.289  1.00  0.00     0.166 HD
HETATM   18  C   UNL     1      12.246  -4.703  -0.642  1.00  0.00     0.090 A 
HETATM   19  C   UNL     1      12.439  -0.297  -1.336  1.00  0.00     0.120 A 
HETATM   20  C   UNL     1      11.101  -0.279  -0.978  1.00  0.00     0.037 A 
ENDBRANCH   8  11
ENDBRANCH   4   7
BRANCH   1  21
HETATM   21  C   UNL     1       2.815  -3.930   0.101  1.00  0.00     0.251 C 
HETATM   22  N   UNL     1       1.936  -2.974   0.559  1.00  0.00    -0.352 N 
HETATM   23  H   UNL     1       2.193  -1.998   0.509  1.00  0.00     0.163 HD
HETATM   24  O   UNL     1       2.475  -5.079  -0.159  1.00  0.00    -0.268 OA
BRANCH  22  25
HETATM   25  C   UNL     1       0.526  -3.273   0.662  1.00  0.00     0.169 C 
BRANCH  25  26
HETATM   26  C   UNL     1      -0.126  -2.213   1.488  1.00  0.00     0.000 A 
HETATM   27  S   UNL     1      -0.553  -0.706   0.787  1.00  0.00    -0.105 SA
HETATM   28  C   UNL     1      -1.183  -0.125   2.266  1.00  0.00     0.050 A 
HETATM   29  C   UNL     1      -1.076  -1.055   3.275  1.00  0.00     0.008 A 
HETATM   30  C   UNL     1      -0.464  -2.260   2.827  1.00  0.00     0.017 A 
ENDBRANCH  25  26
ENDBRANCH  22  25
ENDBRANCH   1  21
TORSDOF 5
