REMARK  9 active torsions:
REMARK  status: ('A' for Active; 'I' for Inactive)
REMARK    1  A    between atoms: C_2  and  C_3 
REMARK    2  A    between atoms: C_7  and  C_8 
REMARK    3  A    between atoms: C_8  and  C_9 
REMARK       I    between atoms: C_9  and  N_10 
REMARK    4  A    between atoms: N_10  and  C_11 
REMARK    5  A    between atoms: C_11  and  C_12 
REMARK    6  A    between atoms: C_12  and  N_13 
REMARK    7  A    between atoms: C_21  and  C_22 
REMARK    8  A    between atoms: C_32  and  C_33 
REMARK    9  A    between atoms: C_33  and  O_34 
ROOT
HETATM    1  C   UNL     1       2.852   1.343   0.582  1.00  0.00     0.051 C 
HETATM    2  N   UNL     1       2.749   2.366   1.529  1.00  0.00    -0.228 NA
HETATM    3  C   UNL     1       3.851   2.954   1.857  1.00  0.00     0.170 C 
HETATM    4  N   UNL     1       5.187   2.722   1.093  1.00  0.00    -0.318 N 
HETATM    5  C   UNL     1       6.179   2.751   1.923  1.00  0.00     0.011 C 
HETATM    6  C   UNL     1       4.857   2.420  -0.314  1.00  0.00     0.166 C 
HETATM    7  S   UNL     1       4.105   3.888   3.281  1.00  0.00    -0.086 SA
HETATM    8  C   UNL     1       5.861   3.377   3.275  1.00  0.00     0.135 C 
HETATM    9  C   UNL     1       3.886   1.287  -0.296  1.00  0.00     0.069 C 
ENDROOT
BRANCH   5  10
HETATM   10  C   UNL     1       7.518   2.159   1.588  1.00  0.00     0.156 C 
BRANCH  10  11
HETATM   11  C   UNL     1       8.131   1.411   2.757  1.00  0.00     0.223 C 
HETATM   12  N   UNL     1       8.196   0.046   2.646  1.00  0.00    -0.359 N 
HETATM   13  H   UNL     1       7.884  -0.409   1.790  1.00  0.00     0.162 HD
HETATM   14  O   UNL     1       8.496   1.992   3.776  1.00  0.00    -0.273 OA
BRANCH  12  15
HETATM   15  C   UNL     1       8.503  -0.848   3.771  1.00  0.00     0.150 C 
BRANCH  15  16
HETATM   16  C   UNL     1       9.957  -0.796   4.297  1.00  0.00     0.254 C 
BRANCH  16  17
HETATM   17  N   UNL     1      10.249   0.480   5.065  1.00  0.00    -0.070 N 
HETATM   18  H   UNL     1       9.723   1.240   4.591  1.00  0.00     0.279 HD
HETATM   19  C   UNL     1       9.746   0.453   6.491  1.00  0.00     0.235 C 
HETATM   20  C   UNL     1       9.916   1.833   7.111  1.00  0.00     0.028 C 
HETATM   21  C   UNL     1      11.362   2.309   7.040  1.00  0.00     0.003 C 
HETATM   22  C   UNL     1      11.900   2.239   5.615  1.00  0.00     0.028 C 
HETATM   23  C   UNL     1      11.710   0.859   5.005  1.00  0.00     0.235 C 
ENDBRANCH  16  17
ENDBRANCH  15  16
ENDBRANCH  12  15
ENDBRANCH  10  11
ENDBRANCH   5  10
BRANCH   6  24
HETATM   24  C   UNL     1       5.996   2.616  -1.310  1.00  0.00    -0.024 A 
HETATM   25  C   UNL     1       6.280   3.920  -1.817  1.00  0.00    -0.053 A 
HETATM   26  C   UNL     1       5.473   5.149  -1.465  1.00  0.00     0.049 C 
HETATM   27  C   UNL     1       7.322   4.102  -2.743  1.00  0.00     0.008 A 
HETATM   28  C   UNL     1       8.097   3.031  -3.170  1.00  0.00     0.007 A 
HETATM   29  C   UNL     1       7.842   1.750  -2.689  1.00  0.00    -0.061 A 
HETATM   30  C   UNL     1       8.692   0.598  -3.147  1.00  0.00     0.048 C 
HETATM   31  C   UNL     1       6.813   1.557  -1.754  1.00  0.00     0.017 A 
ENDBRANCH   6  24
BRANCH   9  32
HETATM   32  C   UNL     1       4.209   0.025  -0.947  1.00  0.00     0.293 C 
HETATM   33  O   UNL     1       4.978  -0.759  -0.410  1.00  0.00    -0.259 OA
BRANCH  32  34
HETATM   34  O   UNL     1       3.624  -0.052  -2.151  1.00  0.00    -0.323 OA
HETATM   35  C   UNL     1       3.916  -1.234  -2.908  1.00  0.00     0.213 C 
ENDBRANCH  32  34
ENDBRANCH   9  32
BRANCH   1  36
HETATM   36  C   UNL     1       1.789   0.267   0.724  1.00  0.00     0.056 C 
HETATM   37  C   UNL     1       1.962  -0.539   2.004  1.00  0.00     0.011 C 
ENDBRANCH   1  36
TORSDOF 9
