REMARK  8 active torsions:
REMARK  status: ('A' for Active; 'I' for Inactive)
REMARK    1  A    between atoms: C_2  and  C_3 
REMARK    2  A    between atoms: C_3  and  N_4 
REMARK    3  A    between atoms: C_7  and  C_8 
REMARK       I    between atoms: C_8  and  N_9 
REMARK    4  A    between atoms: N_9  and  C_10 
REMARK    5  A    between atoms: C_13  and  O_14 
REMARK    6  A    between atoms: O_14  and  C_15 
REMARK    7  A    between atoms: C_15  and  C_16 
REMARK       I    between atoms: C_16  and  N_17 
REMARK    8  A    between atoms: C_23  and  C_24 
ROOT
HETATM    1  C   UNL     1       2.414   1.722  -5.026  1.00  0.00     0.259 C 
HETATM    2  N   UNL     1       1.566   1.988  -6.072  1.00  0.00    -0.323 N 
HETATM    3  O   UNL     1       3.304   2.550  -4.817  1.00  0.00    -0.267 OA
HETATM    4  H   UNL     1       1.893   2.816  -6.557  1.00  0.00     0.169 HD
ENDROOT
BRANCH   2   5
HETATM    5  C   UNL     1       0.364   1.442  -6.545  1.00  0.00     0.035 A 
HETATM    6  C   UNL     1      -0.395   0.470  -5.896  1.00  0.00     0.032 A 
HETATM    7  C   UNL     1      -1.609   0.038  -6.451  1.00  0.00     0.039 A 
HETATM    8  C   UNL     1      -2.083   0.602  -7.634  1.00  0.00     0.069 A 
HETATM    9  C   UNL     1      -1.328   1.558  -8.301  1.00  0.00     0.039 A 
HETATM   10  C   UNL     1      -0.116   1.979  -7.752  1.00  0.00     0.032 A 
BRANCH   8  11
HETATM   11  O   UNL     1      -3.277   0.156  -8.129  1.00  0.00    -0.342 OA
BRANCH  11  12
HETATM   12  C   UNL     1      -4.268   1.188  -8.139  1.00  0.00     0.278 C 
BRANCH  12  13
HETATM   13  C   UNL     1      -4.550   1.752  -9.533  1.00  0.00     0.241 C 
HETATM   14  N   UNL     1      -4.335   0.858 -10.560  1.00  0.00    -0.364 N 
HETATM   15  C   UNL     1      -4.510   1.236 -11.938  1.00  0.00     0.149 C 
HETATM   16  H   UNL     1      -3.818   0.014 -10.335  1.00  0.00     0.161 HD
HETATM   17  O   UNL     1      -4.977   2.891  -9.705  1.00  0.00    -0.271 OA
ENDBRANCH  12  13
ENDBRANCH  11  12
ENDBRANCH   8  11
ENDBRANCH   2   5
BRANCH   1  18
HETATM   18  C   UNL     1       2.376   0.477  -4.295  1.00  0.00     0.076 C 
HETATM   19  C   UNL     1       2.520  -0.817  -4.845  1.00  0.00     0.158 C 
HETATM   20  N   UNL     1       2.643  -1.768  -3.919  1.00  0.00    -0.183 NA
HETATM   21  N   UNL     1       2.689  -1.077  -2.760  1.00  0.00    -0.268 N 
HETATM   22  C   UNL     1       2.391   0.261  -2.923  1.00  0.00     0.052 C 
BRANCH  21  23
HETATM   23  C   UNL     1       3.064  -1.757  -1.518  1.00  0.00     0.106 C 
HETATM   24  C   UNL     1       4.022  -2.935  -1.738  1.00  0.00     0.034 C 
BRANCH  23  25
HETATM   25  C   UNL     1       1.847  -2.137  -0.654  1.00  0.00     0.022 C 
HETATM   26  C   UNL     1       0.962  -3.233  -1.228  1.00  0.00     0.007 C 
ENDBRANCH  23  25
ENDBRANCH  21  23
BRANCH  22  27
HETATM   27  C   UNL     1       2.139   1.229  -1.764  1.00  0.00     0.038 A 
HETATM   28  C   UNL     1       2.125   2.729  -1.880  1.00  0.00     0.011 A 
HETATM   29  C   UNL     1       0.831   1.996  -1.806  1.00  0.00     0.011 A 
ENDBRANCH  22  27
ENDBRANCH   1  18
TORSDOF 8
