REMARK  5 active torsions:
REMARK  status: ('A' for Active; 'I' for Inactive)
REMARK    1  A    between atoms: C_2  and  C_3 
REMARK    2  A    between atoms: C_3  and  C_4 
REMARK    3  A    between atoms: C_8  and  N_9 
REMARK       I    between atoms: N_9  and  C_10 
REMARK    4  A    between atoms: C_10  and  C_11 
REMARK    5  A    between atoms: N_13  and  C_14 
ROOT
HETATM    1  C   UNL     1       1.727  -5.557   4.389  1.00  0.00     0.106 C 
HETATM    2  C   UNL     1       3.091  -6.035   4.833  1.00  0.00     0.148 C 
HETATM    3  N   UNL     1       3.030  -7.465   4.672  1.00  0.00    -0.299 N 
HETATM    4  C   UNL     1       1.701  -7.920   4.656  1.00  0.00     0.226 C 
HETATM    5  O   UNL     1       1.260  -9.056   4.585  1.00  0.00    -0.273 OA
HETATM    6  C   UNL     1       0.798  -6.711   4.724  1.00  0.00     0.119 C 
ENDROOT
BRANCH   1   7
HETATM    7  C   UNL     1       1.697  -5.185   2.907  1.00  0.00     0.242 C 
HETATM    8  N   UNL     1       2.036  -6.209   2.041  1.00  0.00    -0.156 N 
HETATM    9  H   UNL     1       2.321  -7.114   2.395  1.00  0.00     0.187 HD
HETATM   10  O   UNL     1       1.396  -4.035   2.596  1.00  0.00    -0.272 OA
BRANCH   8  11
HETATM   11  C   UNL     1       2.015  -6.043   0.677  1.00  0.00     0.725 A 
HETATM   12  N   UNL     1       2.357  -7.054  -0.183  1.00  0.00    -0.106 N 
HETATM   13  N   UNL     1       2.272  -6.667  -1.466  1.00  0.00    -0.144 NA
HETATM   14  H   UNL     1       2.647  -8.000   0.030  1.00  0.00     0.208 HD
HETATM   15  C   UNL     1       1.856  -5.402  -1.328  1.00  0.00     0.166 A 
HETATM   16  N   UNL     1       1.689  -4.992  -0.033  1.00  0.00    -0.046 NA
BRANCH  15  17
HETATM   17  C   UNL     1       1.580  -4.506  -2.483  1.00  0.00     0.087 C 
BRANCH  17  18
HETATM   18  C   UNL     1       2.830  -3.773  -3.003  1.00  0.00    -0.016 C 
HETATM   19  C   UNL     1       3.369  -2.765  -1.984  1.00  0.00     0.010 C 
HETATM   20  C   UNL     1       2.504  -3.055  -4.314  1.00  0.00     0.010 C 
ENDBRANCH  17  18
ENDBRANCH  15  17
ENDBRANCH   8  11
ENDBRANCH   1   7
BRANCH   3  21
HETATM   21  C   UNL     1       4.126  -8.321   4.594  1.00  0.00     0.165 A 
HETATM   22  N   UNL     1       4.010  -9.581   4.163  1.00  0.00    -0.155 NA
HETATM   23  N   UNL     1       5.243 -10.090   4.239  1.00  0.00    -0.275 N 
HETATM   24  H   UNL     1       5.373 -11.066   3.993  1.00  0.00     0.189 HD
HETATM   25  C   UNL     1       6.193  -9.196   4.637  1.00  0.00     0.065 A 
HETATM   26  C   UNL     1       5.500  -8.013   4.883  1.00  0.00     0.040 A 
HETATM   27  C   UNL     1       7.576  -9.337   4.808  1.00  0.00     0.051 A 
HETATM   28  C   UNL     1       6.238  -6.900   5.344  1.00  0.00     0.019 A 
HETATM   29  C   UNL     1       7.625  -7.013   5.520  1.00  0.00     0.020 A 
HETATM   30  C   UNL     1       8.276  -8.214   5.253  1.00  0.00     0.013 A 
HETATM   31 BR   UNL     1      10.148  -8.335   5.506  1.00  0.00    -0.051 Br
ENDBRANCH   3  21
TORSDOF 5
