REMARK  4 active torsions:
REMARK  status: ('A' for Active; 'I' for Inactive)
REMARK    1  A    between atoms: C_4  and  N_5 
REMARK       I    between atoms: N_5  and  C_6 
REMARK    2  A    between atoms: C_6  and  C_7 
REMARK    3  A    between atoms: C_7  and  O_8 
REMARK    4  A    between atoms: O_8  and  C_9 
ROOT
HETATM    1  N   UNL     1       5.260   2.360  -0.136  1.00  0.00    -0.309 N 
HETATM    2  C   UNL     1       6.613   2.628  -0.269  1.00  0.00     0.252 C 
HETATM    3  O   UNL     1       7.127   3.667  -0.669  1.00  0.00    -0.270 OA
HETATM    4  H   UNL     1       5.010   1.425   0.149  1.00  0.00     0.170 HD
ENDROOT
BRANCH   2   5
HETATM    5  C   UNL     1       7.463   1.466   0.291  1.00  0.00     0.217 C 
HETATM    6  C   UNL     1       8.927   1.599  -0.103  1.00  0.00     0.050 C 
BRANCH   5   7
HETATM    7  O   UNL     1       6.968   0.231  -0.237  1.00  0.00    -0.335 OA
BRANCH   7   8
HETATM    8  C   UNL     1       6.524  -0.740   0.617  1.00  0.00     0.091 A 
HETATM    9  C   UNL     1       5.559  -1.632   0.113  1.00  0.00     0.069 A 
HETATM   10 CL   UNL     1       4.947  -1.468  -1.496  1.00  0.00    -0.081 Cl
HETATM   11  C   UNL     1       5.040  -2.654   0.909  1.00  0.00     0.050 A 
HETATM   12  C   UNL     1       5.490  -2.794   2.216  1.00  0.00     0.035 A 
HETATM   13 CL   UNL     1       4.844  -4.037   3.213  1.00  0.00    -0.084 Cl
HETATM   14  C   UNL     1       6.463  -1.934   2.724  1.00  0.00     0.026 A 
HETATM   15  C   UNL     1       6.990  -0.916   1.922  1.00  0.00     0.040 A 
ENDBRANCH   7   8
ENDBRANCH   5   7
ENDBRANCH   2   5
BRANCH   1  16
HETATM   16  C   UNL     1       4.207   3.235  -0.418  1.00  0.00     0.130 A 
HETATM   17  C   UNL     1       2.919   2.775  -0.155  1.00  0.00     0.057 A 
HETATM   18  C   UNL     1       1.829   3.616  -0.385  1.00  0.00    -0.057 A 
HETATM   19  C   UNL     1       0.430   3.180  -0.071  1.00  0.00     0.048 C 
HETATM   20  C   UNL     1       2.074   4.892  -0.889  1.00  0.00     0.033 A 
HETATM   21  C   UNL     1       3.387   5.276  -1.139  1.00  0.00     0.033 A 
HETATM   22  N   UNL     1       4.442   4.466  -0.896  1.00  0.00    -0.236 NA
HETATM   23  C   UNL     1       3.683   6.636  -1.694  1.00  0.00     0.070 C 
ENDBRANCH   1  16
TORSDOF 4
