REMARK  8 active torsions:
REMARK  status: ('A' for Active; 'I' for Inactive)
REMARK    1  A    between atoms: C_9  and  S_10 
REMARK    2  A    between atoms: S_10  and  C_11 
REMARK    3  A    between atoms: C_11  and  C_12 
REMARK       I    between atoms: C_12  and  N_13 
REMARK    4  A    between atoms: N_13  and  C_14 
REMARK    5  A    between atoms: C_15  and  O_16 
REMARK    6  A    between atoms: C_20  and  O_21 
REMARK    7  A    between atoms: N_25  and  C_26 
REMARK    8  A    between atoms: C_33  and  N_34 
ROOT
HETATM    1  C   UNL     1       1.056   0.262   0.352  1.00  0.00     0.073 C 
HETATM    2  C   UNL     1       2.435   0.000  -0.137  1.00  0.00     0.068 A 
HETATM    3  N   UNL     1       3.206   1.035  -0.496  1.00  0.00    -0.177 NA
HETATM    4  N   UNL     1       4.368   0.475  -0.868  1.00  0.00    -0.260 N 
HETATM    5  H   UNL     1       5.133   1.068  -1.180  1.00  0.00     0.191 HD
HETATM    6  C   UNL     1       4.340  -0.887  -0.793  1.00  0.00     0.162 A 
HETATM    7  C   UNL     1       3.102  -1.251  -0.313  1.00  0.00     0.081 A 
HETATM    8  N   UNL     1       5.323  -1.708  -1.144  1.00  0.00    -0.204 NA
HETATM    9  C   UNL     1       5.010  -3.001  -0.994  1.00  0.00     0.177 A 
HETATM   10  N   UNL     1       3.824  -3.454  -0.494  1.00  0.00    -0.276 N 
HETATM   11  C   UNL     1       2.807  -2.615  -0.137  1.00  0.00     0.124 A 
ENDROOT
BRANCH   9  12
HETATM   12  S   UNL     1       6.245  -4.126  -1.678  1.00  0.00    -0.082 SA
BRANCH  12  13
HETATM   13  C   UNL     1       7.733  -3.062  -1.835  1.00  0.00     0.185 C 
BRANCH  13  14
HETATM   14  C   UNL     1       7.559  -1.842  -2.729  1.00  0.00     0.232 C 
HETATM   15  N   UNL     1       6.788  -2.056  -3.866  1.00  0.00    -0.324 N 
HETATM   16  H   UNL     1       6.138  -2.825  -3.810  1.00  0.00     0.169 HD
HETATM   17  O   UNL     1       8.044  -0.763  -2.391  1.00  0.00    -0.272 OA
BRANCH  15  18
HETATM   18  C   UNL     1       6.428  -0.983  -4.715  1.00  0.00     0.071 A 
HETATM   19  C   UNL     1       7.392  -0.163  -5.335  1.00  0.00     0.095 A 
HETATM   20  C   UNL     1       6.960   0.903  -6.130  1.00  0.00     0.042 A 
HETATM   21  C   UNL     1       5.594   1.145  -6.305  1.00  0.00     0.039 A 
HETATM   22  C   UNL     1       4.647   0.326  -5.695  1.00  0.00     0.070 A 
HETATM   23  C   UNL     1       5.061  -0.767  -4.937  1.00  0.00     0.069 A 
BRANCH  19  24
HETATM   24  O   UNL     1       8.702  -0.534  -5.176  1.00  0.00    -0.354 OA
HETATM   25  C   UNL     1       9.691   0.248  -5.831  1.00  0.00     0.210 C 
ENDBRANCH  19  24
BRANCH  22  26
HETATM   26  O   UNL     1       3.337   0.638  -5.927  1.00  0.00    -0.356 OA
HETATM   27  C   UNL     1       2.508   0.570  -4.770  1.00  0.00     0.210 C 
ENDBRANCH  22  26
ENDBRANCH  15  18
ENDBRANCH  13  14
ENDBRANCH  12  13
ENDBRANCH   9  12
BRANCH  10  28
HETATM   28  C   UNL     1       3.636  -4.864  -0.295  1.00  0.00     0.043 A 
HETATM   29  C   UNL     1       3.749  -5.373   1.002  1.00  0.00     0.031 A 
HETATM   30  C   UNL     1       3.524  -6.734   1.209  1.00  0.00     0.021 A 
HETATM   31  C   UNL     1       3.190  -7.556   0.129  1.00  0.00     0.011 A 
HETATM   32 BR   UNL     1       2.890  -9.399   0.418  1.00  0.00    -0.051 Br
HETATM   33  C   UNL     1       3.068  -7.031  -1.161  1.00  0.00     0.021 A 
HETATM   34  C   UNL     1       3.282  -5.669  -1.381  1.00  0.00     0.031 A 
ENDBRANCH  10  28
BRANCH  11  35
HETATM   35  N   UNL     1       1.581  -3.065   0.328  1.00  0.00    -0.384 N 
HETATM   36  H   UNL     1       1.295  -4.036   0.289  1.00  0.00     0.157 HD
HETATM   37  H   UNL     1       0.825  -2.404   0.468  1.00  0.00     0.157 HD
ENDBRANCH  11  35
TORSDOF 8
