REMARK  6 active torsions:
REMARK  status: ('A' for Active; 'I' for Inactive)
REMARK    1  A    between atoms: O_2  and  C_3 
REMARK    2  A    between atoms: C_3  and  C_4 
REMARK    3  A    between atoms: C_4  and  N_5 
REMARK       I    between atoms: N_5  and  C_6 
REMARK    4  A    between atoms: C_6  and  C_7 
REMARK    5  A    between atoms: C_12  and  C_13 
REMARK    6  A    between atoms: C_20  and  C_21 
ROOT
HETATM    1  C   UNL     1       7.336  -0.980  -1.279  1.00  0.00     0.165 A 
HETATM    2  N   UNL     1       7.227   0.372  -1.222  1.00  0.00    -0.163 NA
HETATM    3  N   UNL     1       8.223   0.748  -0.402  1.00  0.00    -0.238 N 
HETATM    4  C   UNL     1       8.886  -0.304   0.174  1.00  0.00     0.141 A 
HETATM    5  N   UNL     1       9.841  -0.098   1.116  1.00  0.00    -0.365 N 
HETATM    6  C   UNL     1       9.895   1.191   1.801  1.00  0.00     0.118 C 
HETATM    7  C   UNL     1       9.734   2.310   0.765  1.00  0.00     0.066 C 
HETATM    8  C   UNL     1       8.418   2.137  -0.020  1.00  0.00     0.221 C 
HETATM    9  C   UNL     1       8.365  -1.428  -0.413  1.00  0.00     0.092 A 
HETATM   10 BR   UNL     1       8.887  -3.196  -0.083  1.00  0.00    -0.044 Br
HETATM   11  H   UNL     1      10.162  -0.890   1.674  1.00  0.00     0.162 HD
ENDROOT
BRANCH   1  12
HETATM   12  C   UNL     1       6.441  -1.769  -2.144  1.00  0.00     0.273 C 
HETATM   13  N   UNL     1       5.495  -1.003  -2.789  1.00  0.00    -0.353 N 
HETATM   14  H   UNL     1       5.618   0.006  -2.714  1.00  0.00     0.162 HD
HETATM   15  O   UNL     1       6.525  -2.985  -2.286  1.00  0.00    -0.266 OA
BRANCH  13  16
HETATM   16  C   UNL     1       4.652  -1.520  -3.846  1.00  0.00     0.149 C 
BRANCH  16  17
HETATM   17  C   UNL     1       3.329  -0.761  -3.929  1.00  0.00     0.186 C 
BRANCH  17  18
HETATM   18  O   UNL     1       3.590   0.605  -4.271  1.00  0.00    -0.394 OA
HETATM   19  C   UNL     1       2.389   1.363  -4.341  1.00  0.00     0.201 C 
ENDBRANCH  17  18
ENDBRANCH  16  17
ENDBRANCH  13  16
ENDBRANCH   1  12
BRANCH   8  20
HETATM   20  C   UNL     1       8.417   3.060  -1.219  1.00  0.00     0.409 C 
HETATM   21  F   UNL     1       9.376   2.743  -2.117  1.00  0.00    -0.169 F 
HETATM   22  F   UNL     1       7.231   3.100  -1.861  1.00  0.00    -0.169 F 
HETATM   23  F   UNL     1       8.669   4.334  -0.814  1.00  0.00    -0.169 F 
ENDBRANCH   8  20
BRANCH   6  24
HETATM   24  C   UNL     1      11.197   1.336   2.564  1.00  0.00    -0.035 A 
HETATM   25  C   UNL     1      12.425   0.938   2.008  1.00  0.00     0.009 A 
HETATM   26  C   UNL     1      13.616   1.100   2.718  1.00  0.00     0.001 A 
HETATM   27  C   UNL     1      13.598   1.672   3.988  1.00  0.00     0.000 A 
HETATM   28  C   UNL     1      12.391   2.082   4.549  1.00  0.00     0.001 A 
HETATM   29  C   UNL     1      11.198   1.916   3.842  1.00  0.00     0.009 A 
ENDBRANCH   6  24
TORSDOF 6
