REMARK  9 active torsions:
REMARK  status: ('A' for Active; 'I' for Inactive)
REMARK    1  A    between atoms: C_2  and  N_3 
REMARK    2  A    between atoms: N_3  and  C_5 
REMARK    3  A    between atoms: N_3  and  C_29 
REMARK    4  A    between atoms: C_5  and  C_6 
REMARK    5  A    between atoms: N_7  and  C_8 
REMARK    6  A    between atoms: C_12  and  N_13 
REMARK    7  A    between atoms: C_16  and  C_17 
REMARK       I    between atoms: C_17  and  N_18 
REMARK    8  A    between atoms: N_18  and  N_19 
REMARK    9  A    between atoms: C_20  and  C_21 
ROOT
HETATM    1  C   UNL     1       0.927  -0.353  -2.564  1.00  0.00     0.096 A 
HETATM    2  N   UNL     1       0.008  -1.397  -2.628  1.00  0.00    -0.215 N 
HETATM    3  N   UNL     1      -1.245  -0.882  -2.518  1.00  0.00     0.012 NA
HETATM    4  N   UNL     1      -1.174   0.439  -2.484  1.00  0.00    -0.152 NA
HETATM    5  C   UNL     1       0.143   0.792  -2.518  1.00  0.00     0.170 A 
ENDROOT
BRANCH   5   6
HETATM    6  C   UNL     1       0.617   2.170  -2.511  1.00  0.00     0.293 C 
HETATM    7  N   UNL     1      -0.380   3.111  -2.341  1.00  0.00    -0.242 N 
HETATM    8  H   UNL     1      -1.349   2.825  -2.232  1.00  0.00     0.192 HD
HETATM    9  O   UNL     1       1.811   2.408  -2.673  1.00  0.00    -0.264 OA
BRANCH   7  10
HETATM   10  N   UNL     1      -0.042   4.428  -2.277  1.00  0.00    -0.184 NA
HETATM   11  C   UNL     1      -1.018   5.268  -2.143  1.00  0.00     0.150 C 
BRANCH  11  12
HETATM   12  C   UNL     1      -0.766   6.719  -2.035  1.00  0.00    -0.016 A 
HETATM   13  C   UNL     1       0.543   7.210  -1.985  1.00  0.00     0.031 A 
HETATM   14  C   UNL     1       0.756   8.583  -1.870  1.00  0.00     0.007 A 
HETATM   15  I   UNL     1       2.698   9.321  -1.783  1.00  0.00    -0.045 I 
HETATM   16  C   UNL     1      -0.324   9.464  -1.809  1.00  0.00     0.018 A 
HETATM   17  C   UNL     1      -1.629   8.968  -1.862  1.00  0.00     0.002 A 
HETATM   18  C   UNL     1      -1.854   7.594  -1.973  1.00  0.00     0.013 A 
ENDBRANCH  11  12
ENDBRANCH   7  10
ENDBRANCH   5   6
BRANCH   1  19
HETATM   19  C   UNL     1       2.400  -0.499  -2.461  1.00  0.00     0.296 C 
BRANCH  19  20
HETATM   20  N   UNL     1       3.139  -0.770  -3.761  1.00  0.00    -0.066 N 
HETATM   21  H   UNL     1       2.757  -1.650  -4.136  1.00  0.00     0.280 HD
BRANCH  20  22
HETATM   22  C   UNL     1       4.625  -0.991  -3.505  1.00  0.00     0.231 C 
HETATM   23  C   UNL     1       4.883  -2.352  -2.884  1.00  0.00     0.034 C 
ENDBRANCH  20  22
BRANCH  20  24
HETATM   24  C   UNL     1       2.919   0.327  -4.794  1.00  0.00     0.231 C 
HETATM   25  C   UNL     1       3.259  -0.164  -6.192  1.00  0.00     0.034 C 
ENDBRANCH  20  24
ENDBRANCH  19  20
ENDBRANCH   1  19
BRANCH   2  26
HETATM   26  C   UNL     1       0.251  -2.775  -2.831  1.00  0.00     0.225 A 
HETATM   27  N   UNL     1       1.485  -3.197  -3.124  1.00  0.00    -0.081 NA
HETATM   28  O   UNL     1       1.333  -4.581  -3.269  1.00  0.00    -0.103 OA
HETATM   29  N   UNL     1       0.012  -4.962  -3.090  1.00  0.00    -0.083 NA
HETATM   30  C   UNL     1      -0.661  -3.844  -2.822  1.00  0.00     0.201 A 
BRANCH  30  31
HETATM   31  N   UNL     1      -1.979  -3.788  -2.579  1.00  0.00    -0.379 N 
HETATM   32  H   UNL     1      -2.553  -4.623  -2.663  1.00  0.00     0.158 HD
HETATM   33  H   UNL     1      -2.502  -2.921  -2.473  1.00  0.00     0.158 HD
ENDBRANCH  30  31
ENDBRANCH   2  26
TORSDOF 9
