REMARK  10 active torsions:
REMARK  status: ('A' for Active; 'I' for Inactive)
REMARK    1  A    between atoms: C_4  and  N_5 
REMARK    2  A    between atoms: N_5  and  C_6 
REMARK    3  A    between atoms: C_6  and  N_7 
REMARK    4  A    between atoms: N_7  and  N_8 
REMARK       I    between atoms: N_8  and  C_9 
REMARK    5  A    between atoms: C_9  and  C_10 
REMARK    6  A    between atoms: C_10  and  O_11 
REMARK    7  A    between atoms: O_11  and  C_12 
REMARK    8  A    between atoms: C_23  and  C_24 
REMARK    9  A    between atoms: C_24  and  O_25 
REMARK   10  A    between atoms: C_28  and  C_29 
ROOT
HETATM    1  C   UNL     1       7.129  -2.474   4.035  1.00  0.00     0.191 C 
HETATM    2  S   UNL     1       7.636  -1.001   4.665  1.00  0.00    -0.039 SA
ENDROOT
BRANCH   1   3
HETATM    3  N   UNL     1       6.595  -3.382   4.917  1.00  0.00    -0.325 N 
HETATM    4  H   UNL     1       6.706  -3.062   5.875  1.00  0.00     0.169 HD
BRANCH   3   5
HETATM    5  C   UNL     1       6.666  -4.760   4.787  1.00  0.00     0.094 C 
HETATM    6  S   UNL     1       7.227  -5.466   6.234  1.00  0.00    -0.075 SA
HETATM    7  C   UNL     1       7.458  -6.981   5.485  1.00  0.00    -0.007 C 
HETATM    8  C   UNL     1       8.110  -8.085   6.256  1.00  0.00     0.057 C 
HETATM    9  C   UNL     1       6.978  -6.977   4.184  1.00  0.00     0.006 C 
HETATM   10  C   UNL     1       6.359  -5.708   3.824  1.00  0.00     0.085 C 
BRANCH   9  11
HETATM   11  C   UNL     1       7.164  -8.138   3.318  1.00  0.00    -0.024 A 
HETATM   12  C   UNL     1       8.038  -8.036   2.226  1.00  0.00     0.012 A 
HETATM   13  C   UNL     1       8.247  -9.131   1.388  1.00  0.00     0.001 A 
HETATM   14  C   UNL     1       7.586 -10.333   1.637  1.00  0.00     0.000 A 
HETATM   15  C   UNL     1       6.714 -10.439   2.721  1.00  0.00     0.001 A 
HETATM   16  C   UNL     1       6.499  -9.344   3.560  1.00  0.00     0.012 A 
ENDBRANCH   9  11
BRANCH  10  17
HETATM   17  C   UNL     1       5.525  -5.452   2.646  1.00  0.00     0.296 C 
HETATM   18  O   UNL     1       5.144  -4.332   2.324  1.00  0.00    -0.259 OA
BRANCH  17  19
HETATM   19  O   UNL     1       5.167  -6.582   1.973  1.00  0.00    -0.322 OA
HETATM   20  C   UNL     1       4.347  -6.355   0.827  1.00  0.00     0.213 C 
ENDBRANCH  17  19
ENDBRANCH  10  17
ENDBRANCH   3   5
ENDBRANCH   1   3
BRANCH   1  21
HETATM   21  N   UNL     1       7.306  -2.855   2.733  1.00  0.00    -0.273 N 
HETATM   22  H   UNL     1       6.529  -3.380   2.324  1.00  0.00     0.189 HD
BRANCH  21  23
HETATM   23  N   UNL     1       7.931  -2.006   1.801  1.00  0.00    -0.266 N 
HETATM   24  C   UNL     1       8.018  -2.441   0.492  1.00  0.00     0.265 C 
HETATM   25  O   UNL     1       7.458  -3.456   0.075  1.00  0.00    -0.269 OA
HETATM   26  H   UNL     1       8.591  -1.322   2.170  1.00  0.00     0.190 HD
BRANCH  24  27
HETATM   27  C   UNL     1       8.864  -1.546  -0.418  1.00  0.00     0.218 C 
HETATM   28  C   UNL     1       8.188  -0.189  -0.586  1.00  0.00     0.050 C 
BRANCH  27  29
HETATM   29  O   UNL     1      10.153  -1.315   0.153  1.00  0.00    -0.335 OA
BRANCH  29  30
HETATM   30  C   UNL     1      11.176  -2.116  -0.285  1.00  0.00     0.091 A 
HETATM   31  C   UNL     1      12.460  -1.551  -0.348  1.00  0.00     0.068 A 
HETATM   32 CL   UNL     1      12.728   0.107   0.063  1.00  0.00    -0.081 Cl
HETATM   33  C   UNL     1      13.556  -2.310  -0.764  1.00  0.00     0.046 A 
HETATM   34  C   UNL     1      13.372  -3.646  -1.105  1.00  0.00     0.012 A 
HETATM   35 BR   UNL     1      14.848  -4.683  -1.670  1.00  0.00    -0.051 Br
HETATM   36  C   UNL     1      12.109  -4.229  -1.027  1.00  0.00     0.022 A 
HETATM   37  C   UNL     1      11.013  -3.467  -0.612  1.00  0.00     0.040 A 
ENDBRANCH  29  30
ENDBRANCH  27  29
ENDBRANCH  24  27
ENDBRANCH  21  23
ENDBRANCH   1  21
TORSDOF 10
