REMARK  8 active torsions:
REMARK  status: ('A' for Active; 'I' for Inactive)
REMARK    1  A    between atoms: O_2  and  C_3 
REMARK    2  A    between atoms: C_11  and  C_12 
REMARK       I    between atoms: C_12  and  N_13 
REMARK    3  A    between atoms: N_13  and  C_14 
REMARK    4  A    between atoms: C_14  and  C_15 
REMARK    5  A    between atoms: C_15  and  C_16 
REMARK    6  A    between atoms: C_16  and  C_17 
REMARK    7  A    between atoms: C_17  and  O_18 
REMARK    8  A    between atoms: O_18  and  C_19 
ROOT
HETATM    1  C   UNL     1       3.766   8.742  -1.022  1.00  0.00     0.268 C 
HETATM    2  N   UNL     1       2.851   8.105  -0.226  1.00  0.00    -0.345 N 
HETATM    3  O   UNL     1       4.785   9.148  -0.462  1.00  0.00    -0.266 OA
HETATM    4  H   UNL     1       3.163   8.093   0.736  1.00  0.00     0.163 HD
ENDROOT
BRANCH   2   5
HETATM    5  C   UNL     1       1.572   7.498  -0.501  1.00  0.00     0.217 C 
BRANCH   5   6
HETATM    6  C   UNL     1       0.599   8.473  -1.143  1.00  0.00    -0.085 C 
BRANCH   6   7
HETATM    7  C   UNL     1      -0.236   9.309  -1.694  1.00  0.00    -0.078 C 
BRANCH   7   8
HETATM    8  C   UNL     1      -1.210  10.284  -2.336  1.00  0.00     0.269 C 
BRANCH   8   9
HETATM    9  O   UNL     1      -0.639  11.584  -2.313  1.00  0.00    -0.337 OA
BRANCH   9  10
HETATM   10  C   UNL     1      -1.344  12.609  -2.909  1.00  0.00     0.099 A 
HETATM   11  C   UNL     1      -0.672  13.845  -2.980  1.00  0.00     0.100 A 
HETATM   12  C   UNL     1      -1.353  14.935  -3.570  1.00  0.00    -0.005 A 
HETATM   13  N   UNL     1       0.587  13.996  -2.504  1.00  0.00    -0.257 NA
HETATM   14  C   UNL     1      -0.699  16.172  -3.652  1.00  0.00     0.015 A 
HETATM   15  C   UNL     1      -2.658  14.784  -4.063  1.00  0.00     0.014 A 
HETATM   16  C   UNL     1       0.593  16.309  -3.164  1.00  0.00     0.020 A 
HETATM   17  C   UNL     1       1.189  15.199  -2.604  1.00  0.00     0.117 A 
HETATM   18  C   UNL     1      -3.302  13.555  -3.981  1.00  0.00     0.004 A 
HETATM   19  C   UNL     1      -2.649  12.469  -3.406  1.00  0.00     0.039 A 
ENDBRANCH   9  10
ENDBRANCH   8   9
ENDBRANCH   7   8
ENDBRANCH   6   7
ENDBRANCH   5   6
ENDBRANCH   2   5
BRANCH   1  20
HETATM   20  C   UNL     1       3.520   8.971  -2.429  1.00  0.00     0.102 A 
HETATM   21  N   UNL     1       2.771   8.211  -3.297  1.00  0.00    -0.351 N 
HETATM   22  C   UNL     1       2.659   8.819  -4.527  1.00  0.00     0.045 A 
HETATM   23  H   UNL     1       2.306   7.350  -3.061  1.00  0.00     0.166 HD
HETATM   24  C   UNL     1       1.906   8.453  -5.654  1.00  0.00     0.067 A 
HETATM   25  C   UNL     1       3.466   9.951  -4.492  1.00  0.00    -0.007 A 
HETATM   26  C   UNL     1       1.975   9.286  -6.777  1.00  0.00     0.070 A 
HETATM   27  C   UNL     1       2.799  10.413  -6.770  1.00  0.00     0.038 A 
HETATM   28  C   UNL     1       3.550  10.759  -5.639  1.00  0.00     0.016 A 
HETATM   29  C   UNL     1       4.029  10.014  -3.191  1.00  0.00     0.049 A 
BRANCH  26  30
HETATM   30  O   UNL     1       1.288   9.094  -7.947  1.00  0.00    -0.356 OA
HETATM   31  C   UNL     1       0.246   8.128  -7.921  1.00  0.00     0.210 C 
ENDBRANCH  26  30
ENDBRANCH   1  20
TORSDOF 8
