REMARK  6 active torsions:
REMARK  status: ('A' for Active; 'I' for Inactive)
REMARK    1  A    between atoms: C_2  and  O_3 
REMARK    2  A    between atoms: O_3  and  C_4 
REMARK    3  A    between atoms: C_9  and  S_10 
REMARK    4  A    between atoms: S_10  and  C_11 
REMARK    5  A    between atoms: C_11  and  C_12 
REMARK       I    between atoms: C_12  and  N_13 
REMARK    6  A    between atoms: N_13  and  C_14 
ROOT
HETATM    1  C   UNL     1      10.570   3.758   5.775  1.00  0.00     0.069 A 
HETATM    2  C   UNL     1      10.642   2.372   5.906  1.00  0.00     0.050 A 
HETATM    3  C   UNL     1      10.773   1.554   4.766  1.00  0.00    -0.004 A 
HETATM    4  C   UNL     1      10.849   2.124   3.483  1.00  0.00     0.068 A 
HETATM    5  N   UNL     1      10.956   1.382   2.370  1.00  0.00    -0.241 NA
HETATM    6  C   UNL     1      10.933   0.032   2.476  1.00  0.00     0.100 A 
HETATM    7  C   UNL     1      10.893  -0.631   3.702  1.00  0.00    -0.026 A 
HETATM    8  C   UNL     1      10.916  -2.126   3.822  1.00  0.00     0.051 C 
HETATM    9  C   UNL     1      10.818   0.157   4.857  1.00  0.00     0.023 A 
HETATM   10  C   UNL     1      10.804   3.506   3.377  1.00  0.00     0.035 A 
HETATM   11  C   UNL     1      10.666   4.320   4.505  1.00  0.00     0.039 A 
ENDROOT
BRANCH   6  12
HETATM   12  S   UNL     1      10.897  -0.839   0.922  1.00  0.00    -0.096 SA
BRANCH  12  13
HETATM   13  C   UNL     1      12.508  -0.365   0.183  1.00  0.00     0.142 C 
HETATM   14  C   UNL     1      12.546   1.047  -0.388  1.00  0.00     0.031 C 
BRANCH  13  15
HETATM   15  C   UNL     1      13.667  -0.724   1.120  1.00  0.00     0.236 C 
HETATM   16  N   UNL     1      13.975   0.240   2.064  1.00  0.00    -0.326 N 
HETATM   17  H   UNL     1      13.355   1.043   2.114  1.00  0.00     0.169 HD
HETATM   18  O   UNL     1      14.216  -1.820   1.016  1.00  0.00    -0.272 OA
BRANCH  16  19
HETATM   19  C   UNL     1      14.979   0.184   3.053  1.00  0.00     0.034 A 
HETATM   20  C   UNL     1      15.907  -0.853   3.169  1.00  0.00     0.029 A 
HETATM   21  C   UNL     1      16.873  -0.832   4.180  1.00  0.00     0.002 A 
HETATM   22  C   UNL     1      16.923   0.227   5.081  1.00  0.00     0.000 A 
HETATM   23  C   UNL     1      16.005   1.269   4.973  1.00  0.00     0.002 A 
HETATM   24  C   UNL     1      15.038   1.247   3.964  1.00  0.00     0.029 A 
ENDBRANCH  16  19
ENDBRANCH  13  15
ENDBRANCH  12  13
ENDBRANCH   6  12
BRANCH   1  25
HETATM   25  O   UNL     1      10.413   4.657   6.791  1.00  0.00    -0.351 OA
BRANCH  25  26
HETATM   26  C   UNL     1      10.062   4.134   8.072  1.00  0.00     0.171 C 
HETATM   27  C   UNL     1       9.732   5.304   8.981  1.00  0.00     0.034 C 
ENDBRANCH  25  26
ENDBRANCH   1  25
TORSDOF 6
