REMARK  4 active torsions:
REMARK  status: ('A' for Active; 'I' for Inactive)
REMARK    1  A    between atoms: C_8  and  N_9 
REMARK    2  A    between atoms: C_11  and  C_12 
REMARK    3  A    between atoms: C_13  and  O_14 
REMARK    4  A    between atoms: O_14  and  C_15 
ROOT
HETATM    1  C   UNL     1      -3.309   0.056   0.283  1.00  0.00     0.002 A 
HETATM    2  C   UNL     1      -2.386   1.108   0.293  1.00  0.00     0.034 A 
HETATM    3  C   UNL     1      -1.021   0.807   0.194  1.00  0.00     0.103 A 
HETATM    4  C   UNL     1      -0.619  -0.521   0.085  1.00  0.00     0.083 A 
HETATM    5  N   UNL     1       0.743  -0.427  -0.014  1.00  0.00    -0.151 N 
HETATM    6  C   UNL     1       1.128   0.885   0.091  1.00  0.00     0.734 A 
HETATM    7  N   UNL     1       2.423   1.273   0.088  1.00  0.00    -0.033 NA
HETATM    8  C   UNL     1       3.341   0.380   0.006  1.00  0.00     0.193 A 
HETATM    9  N   UNL     1       3.103  -0.992  -0.105  1.00  0.00    -0.338 N 
HETATM   10  C   UNL     1       1.727  -1.479  -0.152  1.00  0.00     0.246 A 
HETATM   11  N   UNL     1       0.062   1.649   0.188  1.00  0.00    -0.060 NA
HETATM   12  C   UNL     1      -1.521  -1.590   0.075  1.00  0.00     0.033 A 
HETATM   13  C   UNL     1      -2.880  -1.269   0.176  1.00  0.00     0.002 A 
HETATM   14  H   UNL     1       3.867  -1.656  -0.101  1.00  0.00     0.164 HD
ENDROOT
BRANCH  10  15
HETATM   15  C   UNL     1       1.591  -2.273  -1.444  1.00  0.00     0.020 A 
HETATM   16  C   UNL     1       1.983  -3.625  -1.486  1.00  0.00     0.085 A 
HETATM   17  C   UNL     1       1.848  -4.387  -2.650  1.00  0.00     0.039 A 
HETATM   18  C   UNL     1       1.376  -3.790  -3.817  1.00  0.00     0.022 A 
HETATM   19  C   UNL     1       1.036  -2.440  -3.812  1.00  0.00     0.011 A 
HETATM   20 BR   UNL     1       0.407  -1.627  -5.397  1.00  0.00    -0.051 Br
HETATM   21  C   UNL     1       1.147  -1.682  -2.644  1.00  0.00     0.033 A 
BRANCH  16  22
HETATM   22  O   UNL     1       2.446  -4.223  -0.343  1.00  0.00    -0.289 OA
BRANCH  22  23
HETATM   23  C   UNL     1       3.853  -4.448  -0.419  1.00  0.00     0.505 C 
HETATM   24  F   UNL     1       4.459  -3.228  -0.492  1.00  0.00    -0.184 F 
HETATM   25  F   UNL     1       4.234  -4.983   0.764  1.00  0.00    -0.184 F 
ENDBRANCH  22  23
ENDBRANCH  16  22
ENDBRANCH  10  15
BRANCH   8  26
HETATM   26  N   UNL     1       4.656   0.676   0.022  1.00  0.00    -0.272 NA
HETATM   27  H   UNL     1       4.812   1.678  -0.058  1.00  0.00     0.127 HD
HETATM   28  H   UNL     1       5.254   0.151  -0.601  1.00  0.00     0.127 HD
ENDBRANCH   8  26
TORSDOF 4
