REMARK  6 active torsions:
REMARK  status: ('A' for Active; 'I' for Inactive)
REMARK    1  A    between atoms: C_5  and  C_6 
REMARK    2  A    between atoms: C_6  and  S_7 
REMARK    3  A    between atoms: S_7  and  C_8 
REMARK    4  A    between atoms: C_10  and  N_11 
REMARK       I    between atoms: N_11  and  C_12 
REMARK    5  A    between atoms: C_12  and  C_13 
REMARK    6  A    between atoms: C_14  and  C_15 
ROOT
HETATM    1  C   UNL     1       6.275   1.352   0.947  1.00  0.00     0.160 A 
HETATM    2  S   UNL     1       7.930   1.515   0.549  1.00  0.00    -0.022 SA
HETATM    3  C   UNL     1       7.502   2.873  -0.386  1.00  0.00     0.197 A 
HETATM    4  N   UNL     1       6.213   3.139  -0.395  1.00  0.00    -0.122 NA
HETATM    5  N   UNL     1       5.494   2.248   0.381  1.00  0.00    -0.133 NA
ENDROOT
BRANCH   3   6
HETATM    6  N   UNL     1       8.415   3.654  -1.054  1.00  0.00    -0.301 N 
HETATM    7  C   UNL     1       9.772   3.454  -1.102  1.00  0.00     0.247 C 
HETATM    8  O   UNL     1      10.401   2.517  -0.628  1.00  0.00    -0.268 OA
HETATM    9  H   UNL     1       7.996   4.448  -1.517  1.00  0.00     0.171 HD
BRANCH   7  10
HETATM   10  C   UNL     1      10.476   4.556  -1.821  1.00  0.00     0.075 C 
HETATM   11  C   UNL     1      11.817   4.538  -1.886  1.00  0.00     0.017 C 
BRANCH  11  12
HETATM   12  C   UNL     1      12.653   5.565  -2.527  1.00  0.00    -0.033 A 
HETATM   13  C   UNL     1      12.283   6.917  -2.575  1.00  0.00     0.051 A 
HETATM   14  C   UNL     1      13.167   7.815  -3.139  1.00  0.00     0.105 A 
HETATM   15  C   UNL     1      14.385   7.422  -3.640  1.00  0.00     0.105 A 
HETATM   16  O   UNL     1      12.968   9.156  -3.254  1.00  0.00    -0.323 OA
HETATM   17  O   UNL     1      15.104   8.463  -4.135  1.00  0.00    -0.323 OA
HETATM   18  C   UNL     1      14.788   6.107  -3.607  1.00  0.00     0.040 A 
HETATM   19  C   UNL     1      14.207   9.562  -3.873  1.00  0.00     0.352 A 
HETATM   20  C   UNL     1      13.912   5.174  -3.040  1.00  0.00     0.014 A 
ENDBRANCH  11  12
ENDBRANCH   7  10
ENDBRANCH   3   6
BRANCH   1  21
HETATM   21  S   UNL     1       5.693   0.112   2.029  1.00  0.00    -0.096 SA
BRANCH  21  22
HETATM   22  C   UNL     1       3.926   0.532   2.116  1.00  0.00     0.123 C 
BRANCH  22  23
HETATM   23  C   UNL     1       3.228  -0.293   3.174  1.00  0.00    -0.005 A 
HETATM   24  C   UNL     1       3.133   0.156   4.507  1.00  0.00     0.042 A 
HETATM   25  C   UNL     1       2.516  -0.622   5.494  1.00  0.00     0.024 A 
HETATM   26 CL   UNL     1       3.778   1.681   5.014  1.00  0.00    -0.084 Cl
HETATM   27  C   UNL     1       1.987  -1.869   5.176  1.00  0.00     0.003 A 
HETATM   28  C   UNL     1       2.077  -2.339   3.870  1.00  0.00     0.024 A 
HETATM   29  C   UNL     1       2.692  -1.563   2.879  1.00  0.00     0.042 A 
HETATM   30 CL   UNL     1       2.766  -2.247   1.291  1.00  0.00    -0.084 Cl
ENDBRANCH  22  23
ENDBRANCH  21  22
ENDBRANCH   1  21
TORSDOF 6
