REMARK  6 active torsions:
REMARK  status: ('A' for Active; 'I' for Inactive)
REMARK    1  A    between atoms: C_2  and  O_3 
REMARK    2  A    between atoms: C_2  and  C_10 
REMARK    3  A    between atoms: O_3  and  C_4 
REMARK       I    between atoms: C_10  and  N_11 
REMARK    4  A    between atoms: N_11  and  C_12 
REMARK    5  A    between atoms: N_13  and  C_14 
REMARK    6  A    between atoms: C_26  and  C_27 
ROOT
HETATM    1  C   UNL     1       0.949   2.099  -0.993  1.00  0.00     0.152 A 
HETATM    2  N   UNL     1       0.343   0.898  -1.334  1.00  0.00    -0.044 N 
HETATM    3  N   UNL     1      -1.019   0.986  -1.358  1.00  0.00    -0.150 NA
HETATM    4  C   UNL     1      -1.272   2.255  -1.010  1.00  0.00     0.099 A 
HETATM    5  C   UNL     1      -0.084   2.982  -0.772  1.00  0.00     0.086 A 
ENDROOT
BRANCH   1   6
HETATM    6  N   UNL     1       2.330   2.237  -0.914  1.00  0.00    -0.309 N 
HETATM    7  C   UNL     1       2.952   3.344  -0.351  1.00  0.00     0.252 C 
HETATM    8  O   UNL     1       2.348   4.298   0.136  1.00  0.00    -0.270 OA
HETATM    9  H   UNL     1       2.880   1.421  -1.182  1.00  0.00     0.170 HD
BRANCH   7  10
HETATM   10  C   UNL     1       4.505   3.290  -0.420  1.00  0.00     0.217 C 
HETATM   11  C   UNL     1       5.047   1.976   0.144  1.00  0.00     0.050 C 
BRANCH  10  12
HETATM   12  O   UNL     1       5.132   4.314   0.360  1.00  0.00    -0.337 OA
BRANCH  12  13
HETATM   13  C   UNL     1       5.177   5.554  -0.212  1.00  0.00     0.070 A 
HETATM   14  C   UNL     1       4.736   6.614   0.580  1.00  0.00     0.037 A 
HETATM   15  C   UNL     1       4.798   7.922   0.101  1.00  0.00     0.003 A 
HETATM   16  C   UNL     1       5.321   8.173  -1.167  1.00  0.00     0.000 A 
HETATM   17  C   UNL     1       5.787   7.115  -1.949  1.00  0.00     0.003 A 
HETATM   18  C   UNL     1       5.725   5.805  -1.469  1.00  0.00     0.037 A 
ENDBRANCH  12  13
ENDBRANCH  10  12
ENDBRANCH   7  10
ENDBRANCH   1   6
BRANCH   2  19
HETATM   19  C   UNL     1       0.963  -0.341  -1.592  1.00  0.00     0.732 A 
HETATM   20  N   UNL     1       2.249  -0.511  -1.578  1.00  0.00    -0.067 NA
HETATM   21  C   UNL     1       2.691  -1.796  -1.812  1.00  0.00     0.065 A 
HETATM   22  C   UNL     1       1.880  -2.846  -2.046  1.00  0.00     0.036 A 
HETATM   23  C   UNL     1       4.192  -1.975  -1.756  1.00  0.00     0.060 C 
HETATM   24  C   UNL     1       2.353  -4.249  -2.295  1.00  0.00     0.046 C 
HETATM   25  C   UNL     1       0.416  -2.609  -2.058  1.00  0.00     0.268 A 
HETATM   26  C   UNL     1       3.856  -4.334  -2.567  1.00  0.00     0.005 C 
HETATM   27  C   UNL     1       4.636  -3.433  -1.617  1.00  0.00     0.006 C 
HETATM   28  O   UNL     1      -0.394  -3.508  -2.246  1.00  0.00    -0.267 OA
HETATM   29  N   UNL     1       0.044  -1.322  -1.834  1.00  0.00    -0.152 N 
HETATM   30  H   UNL     1      -0.945  -1.091  -1.811  1.00  0.00     0.188 HD
ENDBRANCH   2  19
BRANCH   4  31
HETATM   31  C   UNL     1      -2.674   2.780  -0.902  1.00  0.00     0.035 A 
HETATM   32  S   UNL     1      -3.075   4.390  -0.490  1.00  0.00    -0.100 SA
HETATM   33  C   UNL     1      -4.752   4.072  -0.604  1.00  0.00     0.050 A 
HETATM   34  C   UNL     1      -5.006   2.763  -0.948  1.00  0.00     0.008 A 
HETATM   35  C   UNL     1      -3.803   2.016  -1.123  1.00  0.00     0.022 A 
ENDBRANCH   4  31
TORSDOF 6
