REMARK  10 active torsions:
REMARK  status: ('A' for Active; 'I' for Inactive)
REMARK    1  A    between atoms: C_2  and  C_5 
REMARK    2  A    between atoms: C_5  and  C_6 
REMARK    3  A    between atoms: C_6  and  N_7 
REMARK    4  A    between atoms: N_7  and  C_10 
REMARK    5  A    between atoms: C_16  and  N_17 
REMARK       I    between atoms: N_17  and  C_18 
REMARK    6  A    between atoms: C_18  and  C_20 
REMARK    7  A    between atoms: C_24  and  C_25 
REMARK    8  A    between atoms: C_25  and  O_26 
REMARK    9  A    between atoms: O_26  and  C_27 
REMARK       I    between atoms: C_27  and  N_29 
REMARK   10  A    between atoms: N_29  and  C_30 
ROOT
HETATM    1  C   UNL     1      13.227 -10.780  -8.848  1.00  0.00     0.036 A 
HETATM    2  C   UNL     1      11.963 -10.188  -8.908  1.00  0.00     0.031 A 
HETATM    3  C   UNL     1      11.302 -10.052 -10.135  1.00  0.00     0.025 A 
HETATM    4  C   UNL     1      11.897 -10.513 -11.312  1.00  0.00     0.044 A 
HETATM    5  C   UNL     1      13.157 -11.111 -11.257  1.00  0.00     0.025 A 
HETATM    6  C   UNL     1      13.819 -11.240 -10.031  1.00  0.00     0.031 A 
HETATM    7  C   UNL     1      11.217 -10.365 -12.565  1.00  0.00     0.099 C 
HETATM    8  N   UNL     1      10.658 -10.228 -13.573  1.00  0.00    -0.191 NA
ENDROOT
BRANCH   1   9
HETATM    9  N   UNL     1      13.958 -10.936  -7.659  1.00  0.00    -0.303 N 
HETATM   10  C   UNL     1      13.576 -10.643  -6.382  1.00  0.00     0.365 C 
HETATM   11  O   UNL     1      12.498 -10.210  -6.000  1.00  0.00    -0.238 OA
HETATM   12  H   UNL     1      14.882 -11.343  -7.723  1.00  0.00     0.171 HD
BRANCH  10  13
HETATM   13  O   UNL     1      14.622 -10.917  -5.557  1.00  0.00    -0.299 OA
BRANCH  13  14
HETATM   14  C   UNL     1      14.364 -10.766  -4.155  1.00  0.00     0.219 C 
BRANCH  14  15
HETATM   15  C   UNL     1      14.350  -9.312  -3.745  1.00  0.00    -0.033 A 
HETATM   16  C   UNL     1      15.508  -8.530  -3.831  1.00  0.00     0.009 A 
HETATM   17  C   UNL     1      15.480  -7.180  -3.475  1.00  0.00     0.002 A 
HETATM   18  C   UNL     1      14.291  -6.589  -3.040  1.00  0.00     0.017 A 
HETATM   19  C   UNL     1      13.124  -7.358  -2.966  1.00  0.00     0.033 A 
HETATM   20  C   UNL     1      13.161  -8.717  -3.302  1.00  0.00     0.026 A 
BRANCH  19  21
HETATM   21  C   UNL     1      11.830  -6.797  -2.512  1.00  0.00     0.257 C 
HETATM   22  N   UNL     1      11.598  -5.409  -2.744  1.00  0.00    -0.303 N 
HETATM   23  H   UNL     1      12.293  -4.835  -3.189  1.00  0.00     0.171 HD
HETATM   24  O   UNL     1      10.998  -7.470  -1.935  1.00  0.00    -0.267 OA
BRANCH  22  25
HETATM   25  C   UNL     1      10.462  -4.798  -2.425  1.00  0.00     0.152 A 
HETATM   26  N   UNL     1      10.385  -3.451  -2.379  1.00  0.00    -0.339 N 
HETATM   27  C   UNL     1       9.150  -2.984  -1.982  1.00  0.00     0.024 A 
HETATM   28  H   UNL     1      11.192  -2.874  -2.605  1.00  0.00     0.168 HD
HETATM   29  C   UNL     1       8.906  -1.536  -1.768  1.00  0.00     0.060 C 
HETATM   30  C   UNL     1       8.231  -3.972  -1.756  1.00  0.00     0.011 A 
HETATM   31  C   UNL     1       7.399  -1.257  -1.566  1.00  0.00     0.039 C 
HETATM   32  C   UNL     1       6.634  -2.325  -0.742  1.00  0.00     0.191 C 
HETATM   33  C   UNL     1       6.804  -3.745  -1.358  1.00  0.00     0.081 C 
HETATM   34  S   UNL     1       8.912  -5.506  -2.028  1.00  0.00    -0.056 SA
BRANCH  32  35
HETATM   35  N   UNL     1       7.094  -2.362   0.709  1.00  0.00    -0.070 N 
HETATM   36  H   UNL     1       8.079  -2.652   0.787  1.00  0.00     0.277 HD
HETATM   37  H   UNL     1       6.558  -3.114   1.176  1.00  0.00     0.277 HD
BRANCH  35  38
HETATM   38  C   UNL     1       6.869  -1.102   1.517  1.00  0.00     0.241 C 
BRANCH  38  39
HETATM   39  C   UNL     1       7.193  -1.376   2.974  1.00  0.00     0.144 C 
BRANCH  39  40
HETATM   40  C   UNL     1       7.065  -0.087   3.751  1.00  0.00     0.389 C 
HETATM   41  F   UNL     1       5.817   0.403   3.629  1.00  0.00    -0.171 F 
HETATM   42  F   UNL     1       7.927   0.824   3.257  1.00  0.00    -0.171 F 
HETATM   43  F   UNL     1       7.337  -0.282   5.050  1.00  0.00    -0.171 F 
ENDBRANCH  39  40
ENDBRANCH  38  39
ENDBRANCH  35  38
ENDBRANCH  32  35
ENDBRANCH  22  25
ENDBRANCH  19  21
ENDBRANCH  14  15
ENDBRANCH  13  14
ENDBRANCH  10  13
ENDBRANCH   1   9
TORSDOF 10
