REMARK  9 active torsions:
REMARK  status: ('A' for Active; 'I' for Inactive)
REMARK    1  A    between atoms: C_2  and  O_3 
REMARK    2  A    between atoms: O_3  and  C_4 
REMARK    3  A    between atoms: C_4  and  C_5 
REMARK    4  A    between atoms: C_10  and  N_11 
REMARK       I    between atoms: N_11  and  C_12 
REMARK    5  A    between atoms: C_12  and  C_13 
REMARK    6  A    between atoms: C_13  and  N_14 
REMARK    7  A    between atoms: C_16  and  C_17 
REMARK    8  A    between atoms: C_17  and  C_18 
REMARK    9  A    between atoms: C_18  and  O_19 
ROOT
HETATM    1  C   UNL     1       6.371  -1.361  -2.016  1.00  0.00     0.137 A 
HETATM    2  N   UNL     1       5.680  -2.115  -2.929  1.00  0.00    -0.349 N 
HETATM    3  H   UNL     1       5.237  -1.743  -3.760  1.00  0.00     0.166 HD
HETATM    4  C   UNL     1       5.671  -3.436  -2.561  1.00  0.00     0.045 A 
HETATM    5  C   UNL     1       6.382  -3.544  -1.358  1.00  0.00     0.021 A 
HETATM    6  C   UNL     1       6.817  -2.218  -1.013  1.00  0.00     0.080 A 
HETATM    7  C   UNL     1       5.079  -4.525  -3.215  1.00  0.00     0.032 A 
HETATM    8  C   UNL     1       5.212  -5.786  -2.635  1.00  0.00     0.026 A 
HETATM    9  C   UNL     1       5.914  -5.939  -1.448  1.00  0.00     0.035 A 
HETATM   10 CL   UNL     1       6.073  -7.506  -0.752  1.00  0.00    -0.084 Cl
HETATM   11  C   UNL     1       6.499  -4.840  -0.805  1.00  0.00     0.040 A 
ENDROOT
BRANCH   6  12
HETATM   12  N   UNL     1       7.541  -1.688   0.057  1.00  0.00    -0.323 N 
HETATM   13  C   UNL     1       7.991  -2.325   1.190  1.00  0.00     0.248 C 
HETATM   14  O   UNL     1       7.875  -3.511   1.472  1.00  0.00    -0.271 OA
HETATM   15  H   UNL     1       7.662  -0.676  -0.017  1.00  0.00     0.169 HD
BRANCH  13  16
HETATM   16  C   UNL     1       8.755  -1.400   2.150  1.00  0.00     0.338 C 
BRANCH  16  17
HETATM   17  N   UNL     1      10.287  -1.644   2.237  1.00  0.00    -0.059 N 
HETATM   18  H   UNL     1      10.684  -1.459   1.307  1.00  0.00     0.280 HD
HETATM   19  C   UNL     1      10.954  -0.731   3.272  1.00  0.00     0.190 C 
HETATM   20  C   UNL     1      12.457  -1.034   3.337  1.00  0.00     0.033 C 
HETATM   21  C   UNL     1      12.726  -2.496   3.655  1.00  0.00     0.004 C 
HETATM   22  C   UNL     1      12.066  -3.381   2.615  1.00  0.00     0.028 C 
HETATM   23  C   UNL     1      10.570  -3.123   2.518  1.00  0.00     0.236 C 
BRANCH  19  24
HETATM   24  C   UNL     1      10.704   0.765   3.007  1.00  0.00     0.059 C 
BRANCH  24  25
HETATM   25  C   UNL     1      11.178   1.296   1.660  1.00  0.00     0.166 C 
BRANCH  25  26
HETATM   26  O   UNL     1      10.951   2.693   1.600  1.00  0.00    -0.401 OA
HETATM   27  H   UNL     1      10.004   2.871   1.468  1.00  0.00     0.209 HD
ENDBRANCH  25  26
ENDBRANCH  24  25
ENDBRANCH  19  24
ENDBRANCH  16  17
ENDBRANCH  13  16
ENDBRANCH   6  12
BRANCH   1  28
HETATM   28  C   UNL     1       6.559   0.067  -2.119  1.00  0.00     0.312 C 
HETATM   29  O   UNL     1       7.188   0.727  -1.298  1.00  0.00    -0.258 OA
BRANCH  28  30
HETATM   30  O   UNL     1       5.940   0.541  -3.231  1.00  0.00    -0.317 OA
BRANCH  30  31
HETATM   31  C   UNL     1       6.025   1.958  -3.448  1.00  0.00     0.175 C 
HETATM   32  C   UNL     1       4.895   2.663  -2.721  1.00  0.00     0.034 C 
ENDBRANCH  30  31
ENDBRANCH  28  30
ENDBRANCH   1  28
TORSDOF 9
