REMARK  7 active torsions:
REMARK  status: ('A' for Active; 'I' for Inactive)
REMARK    1  A    between atoms: C_3  and  C_4 
REMARK       I    between atoms: C_4  and  N_5 
REMARK    2  A    between atoms: N_5  and  C_6 
REMARK    3  A    between atoms: C_17  and  S_18 
REMARK    4  A    between atoms: S_18  and  C_19 
REMARK    5  A    between atoms: C_19  and  C_20 
REMARK       I    between atoms: C_20  and  N_21 
REMARK    6  A    between atoms: N_21  and  C_22 
REMARK    7  A    between atoms: C_22  and  C_23 
ROOT
HETATM    1  C   UNL     1      -1.313  -0.357  -0.308  1.00  0.00     0.001 A 
HETATM    2  C   UNL     1      -0.819   0.911  -0.010  1.00  0.00     0.018 A 
HETATM    3  C   UNL     1       0.379   1.050   0.712  1.00  0.00     0.049 A 
HETATM    4  C   UNL     1       1.089  -0.087   1.144  1.00  0.00     0.016 A 
HETATM    5  C   UNL     1       0.565  -1.354   0.846  1.00  0.00     0.019 A 
HETATM    6  C   UNL     1      -0.622  -1.488   0.120  1.00  0.00     0.001 A 
ENDROOT
BRANCH   3   7
HETATM    7  C   UNL     1       0.852   2.424   1.016  1.00  0.00     0.257 C 
HETATM    8  N   UNL     1       1.000   3.230  -0.100  1.00  0.00    -0.323 N 
HETATM    9  H   UNL     1       0.784   2.817  -0.999  1.00  0.00     0.169 HD
HETATM   10  O   UNL     1       1.114   2.716   2.175  1.00  0.00    -0.267 OA
BRANCH   8  11
HETATM   11  C   UNL     1       1.520   4.543  -0.132  1.00  0.00     0.037 A 
HETATM   12  C   UNL     1       1.898   5.250   1.016  1.00  0.00     0.061 A 
HETATM   13  C   UNL     1       2.422   6.508   0.834  1.00  0.00     0.065 A 
HETATM   14  C   UNL     1       2.573   7.083  -0.424  1.00  0.00     0.063 A 
HETATM   15  N   UNL     1       2.889   7.415   1.779  1.00  0.00    -0.306 N 
HETATM   16  N   UNL     1       3.133   8.344  -0.255  1.00  0.00    -0.307 N 
HETATM   17  C   UNL     1       2.202   6.427  -1.570  1.00  0.00     0.034 A 
HETATM   18  C   UNL     1       3.339   8.565   1.116  1.00  0.00     0.325 A 
HETATM   19  H   UNL     1       3.371   9.011  -0.970  1.00  0.00     0.170 HD
HETATM   20  O   UNL     1       3.819   9.561   1.626  1.00  0.00    -0.247 OA
HETATM   21  C   UNL     1       1.669   5.140  -1.412  1.00  0.00     0.032 A 
HETATM   22  H   UNL     1       2.914   7.285   2.778  1.00  0.00     0.170 HD
ENDBRANCH   8  11
ENDBRANCH   3   7
BRANCH   4  23
HETATM   23  S   UNL     1       2.619  -0.056   2.078  1.00  0.00    -0.120 SA
BRANCH  23  24
HETATM   24  C   UNL     1       3.727   0.749   0.875  1.00  0.00     0.182 C 
BRANCH  24  25
HETATM   25  C   UNL     1       4.702   1.696   1.553  1.00  0.00     0.227 C 
HETATM   26  N   UNL     1       4.147   2.632   2.392  1.00  0.00    -0.354 N 
HETATM   27  H   UNL     1       3.169   2.544   2.674  1.00  0.00     0.162 HD
HETATM   28  O   UNL     1       5.903   1.679   1.284  1.00  0.00    -0.273 OA
BRANCH  26  29
HETATM   29  C   UNL     1       4.983   3.561   3.112  1.00  0.00     0.187 C 
BRANCH  29  30
HETATM   30  C   UNL     1       4.192   4.329   4.107  1.00  0.00     0.070 A 
HETATM   31  O   UNL     1       3.071   3.736   4.614  1.00  0.00    -0.325 OA
HETATM   32  C   UNL     1       2.532   4.599   5.512  1.00  0.00     0.142 A 
HETATM   33  C   UNL     1       3.295   5.739   5.601  1.00  0.00     0.027 A 
HETATM   34  C   UNL     1       4.369   5.567   4.694  1.00  0.00     0.036 A 
ENDBRANCH  29  30
ENDBRANCH  26  29
ENDBRANCH  24  25
ENDBRANCH  23  24
ENDBRANCH   4  23
TORSDOF 7
