REMARK  6 active torsions:
REMARK  status: ('A' for Active; 'I' for Inactive)
REMARK    1  A    between atoms: C_7  and  S_8 
REMARK    2  A    between atoms: S_8  and  C_9 
REMARK    3  A    between atoms: C_9  and  C_10 
REMARK    4  A    between atoms: C_18  and  C_19 
REMARK    5  A    between atoms: C_26  and  C_27 
REMARK    6  A    between atoms: C_27  and  O_28 
ROOT
HETATM    1  C   UNL     1       1.049   0.207   0.187  1.00  0.00     0.070 C 
HETATM    2  C   UNL     1       2.555   0.140   0.267  1.00  0.00     0.037 A 
HETATM    3  N   UNL     1       3.206   1.366   0.338  1.00  0.00    -0.192 N 
HETATM    4  C   UNL     1       4.544   1.494   0.389  1.00  0.00     0.726 A 
HETATM    5  N   UNL     1       5.328   0.375   0.352  1.00  0.00    -0.082 N 
HETATM    6  N   UNL     1       6.639   0.694   0.371  1.00  0.00    -0.128 NA
HETATM    7  C   UNL     1       6.572   2.026   0.496  1.00  0.00     0.226 A 
HETATM    8  N   UNL     1       5.302   2.552   0.489  1.00  0.00    -0.035 NA
HETATM    9  C   UNL     1       4.802  -0.996   0.301  1.00  0.00     0.203 A 
HETATM   10  C   UNL     1       3.279  -1.006   0.248  1.00  0.00     0.070 A 
HETATM   11  H   UNL     1       2.633   2.206   0.367  1.00  0.00     0.184 HD
ENDROOT
BRANCH   7  12
HETATM   12  S   UNL     1       7.966   3.044   0.720  1.00  0.00    -0.083 SA
BRANCH  12  13
HETATM   13  C   UNL     1       9.317   1.836   0.652  1.00  0.00     0.123 C 
BRANCH  13  14
HETATM   14  C   UNL     1      10.616   2.437   1.142  1.00  0.00    -0.027 A 
HETATM   15  C   UNL     1      11.464   3.200   0.324  1.00  0.00     0.041 A 
HETATM   16 CL   UNL     1      11.113   3.487  -1.343  1.00  0.00    -0.084 Cl
HETATM   17  C   UNL     1      12.638   3.758   0.842  1.00  0.00     0.024 A 
HETATM   18  C   UNL     1      12.981   3.563   2.179  1.00  0.00     0.002 A 
HETATM   19  C   UNL     1      12.150   2.811   3.004  1.00  0.00     0.001 A 
HETATM   20  C   UNL     1      10.976   2.256   2.492  1.00  0.00     0.009 A 
ENDBRANCH  13  14
ENDBRANCH  12  13
ENDBRANCH   7  12
BRANCH   9  21
HETATM   21  C   UNL     1       5.358  -1.814   1.465  1.00  0.00    -0.026 A 
HETATM   22  C   UNL     1       6.102  -2.979   1.206  1.00  0.00     0.033 A 
HETATM   23  C   UNL     1       6.601  -3.746   2.259  1.00  0.00     0.034 A 
HETATM   24 CL   UNL     1       7.501  -5.173   1.922  1.00  0.00    -0.084 Cl
HETATM   25  C   UNL     1       6.373  -3.367   3.580  1.00  0.00     0.024 A 
HETATM   26  C   UNL     1       5.636  -2.215   3.851  1.00  0.00     0.002 A 
HETATM   27  C   UNL     1       5.128  -1.445   2.802  1.00  0.00     0.010 A 
ENDBRANCH   9  21
BRANCH  10  28
HETATM   28  C   UNL     1       2.627  -2.330   0.231  1.00  0.00     0.293 C 
HETATM   29  O   UNL     1       1.662  -2.632   0.914  1.00  0.00    -0.259 OA
BRANCH  28  30
HETATM   30  O   UNL     1       3.269  -3.138  -0.650  1.00  0.00    -0.323 OA
HETATM   31  C   UNL     1       2.729  -4.460  -0.711  1.00  0.00     0.213 C 
ENDBRANCH  28  30
ENDBRANCH  10  28
TORSDOF 6
