REMARK  5 active torsions:
REMARK  status: ('A' for Active; 'I' for Inactive)
REMARK    1  A    between atoms: O_2  and  C_3 
REMARK    2  A    between atoms: C_4  and  N_5 
REMARK    3  A    between atoms: N_5  and  C_6 
REMARK    4  A    between atoms: C_6  and  C_7 
REMARK       I    between atoms: C_7  and  N_8 
REMARK    5  A    between atoms: N_8  and  C_9 
ROOT
HETATM    1  C   UNL     1       0.090   3.997  -0.897  1.00  0.00     0.235 C 
HETATM    2  N   UNL     1       0.480   3.743  -2.202  1.00  0.00    -0.325 N 
HETATM    3  O   UNL     1      -1.064   4.114  -0.487  1.00  0.00    -0.272 OA
HETATM    4  H   UNL     1       1.452   3.508  -2.331  1.00  0.00     0.169 HD
ENDROOT
BRANCH   1   5
HETATM    5  C   UNL     1       1.266   4.104   0.090  1.00  0.00     0.195 C 
BRANCH   5   6
HETATM    6  N   UNL     1       1.120   3.090   1.144  1.00  0.00    -0.282 NA
HETATM    7  H   UNL     1       0.146   2.764   1.193  1.00  0.00     0.128 HD
BRANCH   6   8
HETATM    8  C   UNL     1       1.457   3.557   2.436  1.00  0.00     0.042 A 
HETATM    9  C   UNL     1       0.514   3.469   3.478  1.00  0.00     0.089 A 
HETATM   10  C   UNL     1       0.818   3.892   4.772  1.00  0.00     0.038 A 
HETATM   11  C   UNL     1       2.074   4.434   5.037  1.00  0.00     0.003 A 
HETATM   12  C   UNL     1       3.021   4.532   4.015  1.00  0.00     0.002 A 
HETATM   13  C   UNL     1       2.717   4.089   2.724  1.00  0.00     0.026 A 
BRANCH   9  14
HETATM   14  O   UNL     1      -0.717   2.920   3.209  1.00  0.00    -0.354 OA
HETATM   15  C   UNL     1      -1.691   3.952   3.043  1.00  0.00     0.210 C 
ENDBRANCH   9  14
ENDBRANCH   6   8
ENDBRANCH   5   6
ENDBRANCH   1   5
BRANCH   2  16
HETATM   16  C   UNL     1      -0.339   3.690  -3.363  1.00  0.00     0.045 A 
HETATM   17  C   UNL     1       0.231   3.281  -4.614  1.00  0.00     0.001 A 
HETATM   18  C   UNL     1      -0.602   3.272  -5.766  1.00  0.00    -0.024 A 
HETATM   19  C   UNL     1       1.578   2.873  -4.803  1.00  0.00     0.014 A 
HETATM   20  C   UNL     1      -0.091   2.884  -7.016  1.00  0.00     0.012 A 
HETATM   21  C   UNL     1      -1.947   3.649  -5.669  1.00  0.00     0.012 A 
HETATM   22  C   UNL     1       1.237   2.496  -7.161  1.00  0.00     0.001 A 
HETATM   23  C   UNL     1       2.072   2.488  -6.055  1.00  0.00     0.001 A 
HETATM   24  C   UNL     1      -2.488   4.040  -4.451  1.00  0.00     0.003 A 
HETATM   25  C   UNL     1      -1.690   4.062  -3.311  1.00  0.00     0.030 A 
ENDBRANCH   2  16
TORSDOF 5
