REMARK  8 active torsions:
REMARK  status: ('A' for Active; 'I' for Inactive)
REMARK    1  A    between atoms: C_7  and  C_8 
REMARK       I    between atoms: C_8  and  N_9 
REMARK    2  A    between atoms: N_9  and  C_10 
REMARK    3  A    between atoms: C_12  and  C_13 
REMARK       I    between atoms: C_13  and  N_14 
REMARK    4  A    between atoms: N_14  and  C_15 
REMARK    5  A    between atoms: C_15  and  C_16 
REMARK    6  A    between atoms: C_16  and  C_17 
REMARK    7  A    between atoms: C_18  and  O_19 
REMARK    8  A    between atoms: C_23  and  O_24 
ROOT
HETATM    1  C   UNL     1      -0.210   0.957   0.541  1.00  0.00     0.035 A 
HETATM    2  C   UNL     1      -1.387   0.977  -0.212  1.00  0.00     0.046 A 
HETATM    3  C   UNL     1      -2.083  -0.215  -0.466  1.00  0.00     0.034 A 
HETATM    4  C   UNL     1      -1.589  -1.432   0.014  1.00  0.00     0.017 A 
HETATM    5  C   UNL     1      -0.422  -1.456   0.773  1.00  0.00     0.003 A 
HETATM    6  C   UNL     1       0.259  -0.266   1.039  1.00  0.00     0.029 A 
ENDROOT
BRANCH   3   7
HETATM    7  C   UNL     1      -3.325  -0.228  -1.280  1.00  0.00     0.251 C 
HETATM    8  N   UNL     1      -4.171   0.848  -1.120  1.00  0.00    -0.357 N 
HETATM    9  H   UNL     1      -3.925   1.592  -0.479  1.00  0.00     0.162 HD
HETATM   10  O   UNL     1      -3.557  -1.175  -2.023  1.00  0.00    -0.268 OA
BRANCH   8  11
HETATM   11  C   UNL     1      -5.349   1.019  -1.952  1.00  0.00     0.127 C 
BRANCH  11  12
HETATM   12  C   UNL     1      -6.466   1.806  -1.258  1.00  0.00     0.061 C 
BRANCH  12  13
HETATM   13  C   UNL     1      -6.220   3.262  -0.894  1.00  0.00    -0.021 A 
HETATM   14  C   UNL     1      -7.152   3.919  -0.059  1.00  0.00     0.074 A 
HETATM   15  C   UNL     1      -6.950   5.255   0.294  1.00  0.00     0.040 A 
HETATM   16  C   UNL     1      -5.843   5.951  -0.192  1.00  0.00     0.039 A 
HETATM   17  C   UNL     1      -4.929   5.330  -1.040  1.00  0.00     0.068 A 
HETATM   18  C   UNL     1      -5.124   3.993  -1.394  1.00  0.00     0.046 A 
BRANCH  14  19
HETATM   19  O   UNL     1      -8.217   3.162   0.359  1.00  0.00    -0.355 OA
HETATM   20  C   UNL     1      -9.278   3.837   1.024  1.00  0.00     0.210 C 
ENDBRANCH  14  19
BRANCH  17  21
HETATM   21  O   UNL     1      -3.900   6.132  -1.451  1.00  0.00    -0.356 OA
HETATM   22  C   UNL     1      -2.936   5.551  -2.320  1.00  0.00     0.210 C 
ENDBRANCH  17  21
ENDBRANCH  12  13
ENDBRANCH  11  12
ENDBRANCH   8  11
ENDBRANCH   3   7
BRANCH   1  23
HETATM   23  N   UNL     1       0.556   2.103   0.831  1.00  0.00    -0.322 N 
HETATM   24  C   UNL     1       0.355   3.400   0.396  1.00  0.00     0.265 C 
HETATM   25  O   UNL     1      -0.550   3.762  -0.349  1.00  0.00    -0.267 OA
HETATM   26  H   UNL     1       1.393   1.963   1.388  1.00  0.00     0.169 HD
BRANCH  24  27
HETATM   27  C   UNL     1       1.399   4.385   0.907  1.00  0.00     0.097 C 
HETATM   28  C   UNL     1       1.138   5.714   0.968  1.00  0.00     0.064 C 
HETATM   29  C   UNL     1      -0.211   6.322   0.676  1.00  0.00     0.078 C 
HETATM   30  O   UNL     1       2.043   6.694   1.348  1.00  0.00    -0.353 OA
HETATM   31  C   UNL     1       3.426   6.344   1.288  1.00  0.00     0.185 C 
HETATM   32  C   UNL     1       3.718   5.130   2.142  1.00  0.00     0.106 C 
HETATM   33  S   UNL     1       2.938   3.689   1.376  1.00  0.00    -0.120 SA
ENDBRANCH  24  27
ENDBRANCH   1  23
TORSDOF 8
