REMARK  7 active torsions:
REMARK  status: ('A' for Active; 'I' for Inactive)
REMARK    1  A    between atoms: C_5  and  O_6 
REMARK    2  A    between atoms: O_6  and  C_7 
REMARK    3  A    between atoms: C_7  and  C_8 
REMARK       I    between atoms: C_8  and  N_9 
REMARK    4  A    between atoms: N_9  and  N_10 
REMARK       I    between atoms: N_10  and  C_11 
REMARK    5  A    between atoms: C_11  and  C_12 
REMARK    6  A    between atoms: C_14  and  C_15 
REMARK    7  A    between atoms: C_22  and  C_23 
ROOT
HETATM    1  N   UNL     1       8.880   2.204  -1.361  1.00  0.00    -0.262 N 
HETATM    2  C   UNL     1       9.521   3.284  -0.775  1.00  0.00     0.291 C 
HETATM    3  O   UNL     1       9.002   4.038   0.039  1.00  0.00    -0.264 OA
HETATM    4  H   UNL     1       9.431   1.562  -1.929  1.00  0.00     0.190 HD
ENDROOT
BRANCH   2   5
HETATM    5  C   UNL     1      10.878   3.440  -1.272  1.00  0.00     0.159 A 
HETATM    6  N   UNL     1      11.618   2.375  -1.775  1.00  0.00    -0.216 NA
HETATM    7  C   UNL     1      12.785   2.915  -2.077  1.00  0.00     0.180 A 
HETATM    8  O   UNL     1      12.839   4.270  -1.888  1.00  0.00    -0.293 OA
HETATM    9  C   UNL     1      11.612   4.603  -1.382  1.00  0.00     0.094 A 
BRANCH   7  10
HETATM   10  C   UNL     1      14.004   2.270  -2.561  1.00  0.00     0.017 A 
HETATM   11  C   UNL     1      14.028   0.878  -2.744  1.00  0.00     0.016 A 
HETATM   12  C   UNL     1      15.188   0.232  -3.181  1.00  0.00     0.001 A 
HETATM   13  C   UNL     1      16.340   0.970  -3.443  1.00  0.00     0.000 A 
HETATM   14  C   UNL     1      16.333   2.353  -3.270  1.00  0.00     0.001 A 
HETATM   15  C   UNL     1      15.173   2.998  -2.832  1.00  0.00     0.016 A 
ENDBRANCH   7  10
BRANCH   9  16
HETATM   16  C   UNL     1      11.166   6.019  -1.068  1.00  0.00     0.046 A 
HETATM   17  C   UNL     1      12.211   7.019  -0.623  1.00  0.00     0.012 A 
HETATM   18  C   UNL     1      11.641   7.120  -1.995  1.00  0.00     0.012 A 
ENDBRANCH   9  16
ENDBRANCH   2   5
BRANCH   1  19
HETATM   19  N   UNL     1       7.594   1.829  -0.980  1.00  0.00    -0.265 N 
HETATM   20  C   UNL     1       6.442   2.498  -1.324  1.00  0.00     0.260 C 
HETATM   21  O   UNL     1       5.356   2.021  -0.983  1.00  0.00    -0.269 OA
HETATM   22  H   UNL     1       7.487   1.017  -0.380  1.00  0.00     0.190 HD
BRANCH  20  23
HETATM   23  C   UNL     1       6.537   3.805  -2.109  1.00  0.00     0.280 C 
BRANCH  23  24
HETATM   24  O   UNL     1       6.201   4.856  -1.210  1.00  0.00    -0.342 OA
BRANCH  24  25
HETATM   25  C   UNL     1       6.631   6.116  -1.511  1.00  0.00     0.069 A 
HETATM   26  C   UNL     1       6.574   7.018  -0.447  1.00  0.00     0.037 A 
HETATM   27  C   UNL     1       6.985   8.342  -0.610  1.00  0.00     0.009 A 
HETATM   28  C   UNL     1       7.446   8.787  -1.852  1.00  0.00    -0.062 A 
HETATM   29  C   UNL     1       7.922  10.199  -2.021  1.00  0.00     0.048 C 
HETATM   30  C   UNL     1       7.505   7.880  -2.917  1.00  0.00     0.009 A 
HETATM   31  C   UNL     1       7.088   6.553  -2.752  1.00  0.00     0.037 A 
ENDBRANCH  24  25
ENDBRANCH  23  24
ENDBRANCH  20  23
ENDBRANCH   1  19
TORSDOF 7
