REMARK  4 active torsions:
REMARK  status: ('A' for Active; 'I' for Inactive)
REMARK       I    between atoms: N_10  and  C_11 
REMARK    1  A    between atoms: C_11  and  C_12 
REMARK    2  A    between atoms: C_12  and  O_13 
REMARK    3  A    between atoms: O_13  and  C_14 
REMARK    4  A    between atoms: C_15  and  C_16 
ROOT
HETATM    1  C   UNL     1       2.961  -0.864   0.277  1.00  0.00     0.001 A 
HETATM    2  C   UNL     1       1.622  -1.269   0.304  1.00  0.00     0.014 A 
HETATM    3  C   UNL     1       0.603  -0.300   0.208  1.00  0.00     0.000 A 
HETATM    4  C   UNL     1       0.968   1.045   0.090  1.00  0.00     0.043 A 
HETATM    5  N   UNL     1      -0.194   1.784   0.014  1.00  0.00    -0.358 N 
HETATM    6  H   UNL     1      -0.229   2.790  -0.071  1.00  0.00     0.166 HD
HETATM    7  C   UNL     1      -1.268   0.946   0.064  1.00  0.00     0.020 A 
HETATM    8  C   UNL     1      -0.821  -0.352   0.196  1.00  0.00    -0.005 A 
HETATM    9  C   UNL     1      -1.729  -1.533   0.281  1.00  0.00     0.167 C 
HETATM   10  N   UNL     1      -3.150  -1.122   0.290  1.00  0.00    -0.346 N 
HETATM   11  C   UNL     1      -4.173  -2.024   0.581  1.00  0.00     0.244 C 
HETATM   12  O   UNL     1      -5.354  -1.784   0.311  1.00  0.00    -0.271 OA
HETATM   13  C   UNL     1      -3.516   0.110  -0.440  1.00  0.00     0.132 C 
HETATM   14  C   UNL     1      -2.696   1.339  -0.001  1.00  0.00     0.077 C 
HETATM   15  C   UNL     1       2.304   1.465   0.064  1.00  0.00     0.030 A 
HETATM   16  C   UNL     1       3.294   0.483   0.159  1.00  0.00     0.002 A 
ENDROOT
BRANCH  11  17
HETATM   17  C   UNL     1      -3.803  -3.356   1.238  1.00  0.00     0.278 C 
BRANCH  17  18
HETATM   18  O   UNL     1      -3.287  -3.115   2.541  1.00  0.00    -0.341 OA
BRANCH  18  19
HETATM   19  C   UNL     1      -3.240  -4.186   3.395  1.00  0.00     0.077 A 
HETATM   20  C   UNL     1      -3.241  -3.892   4.773  1.00  0.00    -0.001 A 
HETATM   21  C   UNL     1      -3.199  -4.966   5.687  1.00  0.00     0.012 A 
HETATM   22  C   UNL     1      -3.136  -6.287   5.246  1.00  0.00     0.001 A 
HETATM   23  C   UNL     1      -3.111  -6.561   3.883  1.00  0.00     0.003 A 
HETATM   24  C   UNL     1      -3.160  -5.515   2.960  1.00  0.00     0.037 A 
BRANCH  20  25
HETATM   25  C   UNL     1      -3.317  -2.458   5.264  1.00  0.00     0.144 C 
HETATM   26  S   UNL     1      -4.885  -2.110   6.134  1.00  0.00    -0.148 SA
HETATM   27  C   UNL     1      -4.197  -0.872   7.254  1.00  0.00     0.085 C 
HETATM   28  C   UNL     1      -2.881  -1.424   7.763  1.00  0.00     0.085 C 
HETATM   29  S   UNL     1      -1.908  -2.005   6.348  1.00  0.00    -0.148 SA
ENDBRANCH  20  25
ENDBRANCH  18  19
ENDBRANCH  17  18
ENDBRANCH  11  17
TORSDOF 4
