REMARK  4 active torsions:
REMARK  status: ('A' for Active; 'I' for Inactive)
REMARK       I    between atoms: N_6  and  C_7 
REMARK    1  A    between atoms: C_7  and  C_8 
REMARK    2  A    between atoms: C_9  and  N_10 
REMARK       I    between atoms: N_10  and  C_11 
REMARK    3  A    between atoms: C_11  and  C_12 
REMARK    4  A    between atoms: N_20  and  C_21 
ROOT
HETATM    1  C   UNL     1       5.459  -1.596   4.133  1.00  0.00     0.097 A 
HETATM    2  C   UNL     1       6.057  -1.891   5.351  1.00  0.00     0.149 A 
HETATM    3  N   UNL     1       5.961  -3.275   5.526  1.00  0.00    -0.217 N 
HETATM    4  N   UNL     1       5.473  -3.870   4.408  1.00  0.00    -0.177 NA
HETATM    5  C   UNL     1       5.190  -2.868   3.584  1.00  0.00     0.160 A 
ENDROOT
BRANCH   2   6
HETATM    6  N   UNL     1       6.710  -1.004   6.203  1.00  0.00    -0.306 N 
HETATM    7  C   UNL     1       6.121   0.231   6.629  1.00  0.00     0.258 C 
HETATM    8  O   UNL     1       4.973   0.514   6.320  1.00  0.00    -0.267 OA
HETATM    9  H   UNL     1       7.580  -1.316   6.626  1.00  0.00     0.170 HD
BRANCH   7  10
HETATM   10  C   UNL     1       6.896   0.954   7.658  1.00  0.00     0.049 A 
HETATM   11  C   UNL     1       8.235   1.320   7.479  1.00  0.00     0.026 A 
HETATM   12 BR   UNL     1       9.151   1.095   5.834  1.00  0.00    -0.050 Br
HETATM   13  C   UNL     1       8.943   1.890   8.541  1.00  0.00     0.020 A 
HETATM   14  C   UNL     1       8.319   2.088   9.775  1.00  0.00     0.001 A 
HETATM   15  C   UNL     1       6.981   1.735   9.949  1.00  0.00     0.001 A 
HETATM   16  C   UNL     1       6.265   1.175   8.891  1.00  0.00     0.018 A 
ENDBRANCH   7  10
ENDBRANCH   2   6
BRANCH   1  17
HETATM   17  C   UNL     1       5.338  -0.306   3.481  1.00  0.00     0.259 C 
HETATM   18  N   UNL     1       4.272  -0.106   2.593  1.00  0.00    -0.345 N 
HETATM   19  C   UNL     1       4.285   1.114   1.774  1.00  0.00     0.154 C 
HETATM   20  C   UNL     1       2.952  -0.743   2.720  1.00  0.00     0.154 C 
HETATM   21  C   UNL     1       3.273   2.148   2.294  1.00  0.00     0.254 C 
HETATM   22  N   UNL     1       1.884   1.508   2.346  1.00  0.00    -0.072 N 
HETATM   23  C   UNL     1       0.829   2.488   2.776  1.00  0.00     0.269 C 
HETATM   24  H   UNL     1       1.643   1.221   1.387  1.00  0.00     0.279 HD
HETATM   25  C   UNL     1       1.886   0.257   3.217  1.00  0.00     0.254 C 
HETATM   26  O   UNL     1       6.170   0.579   3.673  1.00  0.00    -0.267 OA
ENDBRANCH   1  17
BRANCH   3  27
HETATM   27  C   UNL     1       6.232  -4.055   6.692  1.00  0.00     0.060 A 
HETATM   28  C   UNL     1       6.466  -3.470   7.945  1.00  0.00     0.031 A 
HETATM   29  C   UNL     1       6.716  -4.272   9.064  1.00  0.00     0.002 A 
HETATM   30  C   UNL     1       6.714  -5.658   8.948  1.00  0.00     0.000 A 
HETATM   31  C   UNL     1       6.457  -6.250   7.714  1.00  0.00     0.002 A 
HETATM   32  C   UNL     1       6.216  -5.456   6.591  1.00  0.00     0.031 A 
ENDBRANCH   3  27
TORSDOF 4
