REMARK  6 active torsions:
REMARK  status: ('A' for Active; 'I' for Inactive)
REMARK    1  A    between atoms: C_8  and  C_9 
REMARK    2  A    between atoms: C_9  and  C_10 
REMARK       I    between atoms: C_10  and  N_11 
REMARK    3  A    between atoms: N_11  and  C_12 
REMARK    4  A    between atoms: C_12  and  C_13 
REMARK    5  A    between atoms: C_13  and  N_14 
REMARK    6  A    between atoms: C_13  and  C_20 
ROOT
HETATM    1  C   UNL     1       0.924  -3.701   1.918  1.00  0.00     0.160 C 
ENDROOT
BRANCH   1   2
HETATM    2  N   UNL     1       2.382  -3.736   1.999  1.00  0.00    -0.358 N 
HETATM    3  C   UNL     1       3.027  -4.947   2.185  1.00  0.00     0.226 C 
HETATM    4  O   UNL     1       2.394  -5.933   2.563  1.00  0.00    -0.273 OA
HETATM    5  H   UNL     1       2.880  -3.055   1.437  1.00  0.00     0.162 HD
BRANCH   3   6
HETATM    6  C   UNL     1       4.540  -4.989   1.936  1.00  0.00     0.111 C 
HETATM    7  C   UNL     1       5.267  -3.684   2.256  1.00  0.00     0.025 C 
BRANCH   6   8
HETATM    8  C   UNL     1       4.871  -5.528   0.573  1.00  0.00     0.004 A 
HETATM    9  C   UNL     1       5.654  -6.641   0.303  1.00  0.00     0.033 A 
HETATM   10  C   UNL     1       6.363  -7.597   1.189  1.00  0.00     0.070 C 
HETATM   11  N   UNL     1       5.687  -6.767  -1.056  1.00  0.00    -0.282 N 
HETATM   12  H   UNL     1       6.162  -7.472  -1.613  1.00  0.00     0.189 HD
HETATM   13  N   UNL     1       4.996  -5.818  -1.694  1.00  0.00    -0.179 NA
HETATM   14  C   UNL     1       4.498  -5.052  -0.720  1.00  0.00     0.060 A 
HETATM   15  C   UNL     1       3.669  -3.882  -1.105  1.00  0.00     0.073 C 
ENDBRANCH   6   8
ENDBRANCH   3   6
ENDBRANCH   1   2
BRANCH   1  16
HETATM   16  C   UNL     1       0.120  -4.098   3.203  1.00  0.00     0.238 C 
BRANCH  16  17
HETATM   17  N   UNL     1       0.386  -3.195   4.415  1.00  0.00    -0.061 N 
HETATM   18  H   UNL     1      -0.386  -3.419   5.057  1.00  0.00     0.280 HD
HETATM   19  C   UNL     1       0.332  -1.700   4.218  1.00  0.00     0.236 C 
HETATM   20  C   UNL     1       1.752  -1.240   4.469  1.00  0.00     0.029 C 
HETATM   21  C   UNL     1       2.219  -2.163   5.575  1.00  0.00     0.029 C 
HETATM   22  C   UNL     1       1.650  -3.515   5.187  1.00  0.00     0.236 C 
ENDBRANCH  16  17
BRANCH  16  23
HETATM   23  C   UNL     1      -1.383  -4.203   2.959  1.00  0.00    -0.024 A 
HETATM   24  C   UNL     1      -2.097  -3.262   2.197  1.00  0.00     0.033 A 
HETATM   25  C   UNL     1      -3.479  -3.387   2.027  1.00  0.00     0.034 A 
HETATM   26 CL   UNL     1      -4.322  -2.215   1.092  1.00  0.00    -0.084 Cl
HETATM   27  C   UNL     1      -4.173  -4.440   2.610  1.00  0.00     0.024 A 
HETATM   28  C   UNL     1      -3.482  -5.380   3.372  1.00  0.00     0.002 A 
HETATM   29  C   UNL     1      -2.101  -5.261   3.549  1.00  0.00     0.009 A 
ENDBRANCH  16  23
ENDBRANCH   1  16
TORSDOF 6
