REMARK  2 active torsions:
REMARK  status: ('A' for Active; 'I' for Inactive)
REMARK    1  A    between atoms: C_2  and  C_3 
REMARK    2  A    between atoms: C_6  and  C_7 
ROOT
HETATM    1  C   UNL     1       4.317   5.285   1.803  1.00  0.00     0.197 C 
HETATM    2  N   UNL     1       3.367   6.349   1.410  1.00  0.00    -0.345 N 
HETATM    3  C   UNL     1       3.786   7.612   1.337  1.00  0.00     0.113 C 
HETATM    4  N   UNL     1       2.960   8.587   0.983  1.00  0.00    -0.376 N 
HETATM    5  H   UNL     1       3.343   9.519   0.879  1.00  0.00     0.161 HD
HETATM    6  C   UNL     1       5.191   7.934   1.643  1.00  0.00     0.029 A 
HETATM    7  C   UNL     1       6.096   6.869   1.558  1.00  0.00     0.025 A 
HETATM    8  N   UNL     1       5.601   5.608   1.207  1.00  0.00    -0.267 NA
HETATM    9  C   UNL     1       5.661   9.211   1.986  1.00  0.00     0.019 A 
HETATM   10  C   UNL     1       7.028   9.428   2.177  1.00  0.00     0.025 A 
HETATM   11  C   UNL     1       7.926   8.376   2.014  1.00  0.00     0.035 A 
HETATM   12 CL   UNL     1       9.610   8.652   2.217  1.00  0.00    -0.084 Cl
HETATM   13  C   UNL     1       7.467   7.101   1.692  1.00  0.00     0.048 A 
HETATM   14  C   UNL     1       1.953   6.006   1.171  1.00  0.00     0.128 C 
HETATM   15  C   UNL     1       1.057   7.190   1.461  1.00  0.00     0.039 C 
HETATM   16  C   UNL     1       1.558   8.357   0.651  1.00  0.00     0.123 C 
HETATM   17  H   UNL     1       6.278   4.865   1.375  1.00  0.00     0.130 HD
ENDROOT
BRANCH   1  18
HETATM   18  C   UNL     1       3.897   3.911   1.316  1.00  0.00    -0.021 A 
HETATM   19  C   UNL     1       3.876   3.595  -0.055  1.00  0.00     0.011 A 
HETATM   20  C   UNL     1       3.477   2.329  -0.490  1.00  0.00     0.007 A 
HETATM   21  C   UNL     1       3.093   1.350   0.433  1.00  0.00    -0.059 A 
HETATM   22  C   UNL     1       3.123   1.654   1.799  1.00  0.00     0.007 A 
HETATM   23  C   UNL     1       3.519   2.920   2.237  1.00  0.00     0.011 A 
BRANCH  21  24
HETATM   24  C   UNL     1       2.689  -0.026  -0.037  1.00  0.00     0.034 C 
HETATM   25  C   UNL     1       3.897  -0.919  -0.277  1.00  0.00     0.010 C 
ENDBRANCH  21  24
ENDBRANCH   1  18
TORSDOF 2
