REMARK  11 active torsions:
REMARK  status: ('A' for Active; 'I' for Inactive)
REMARK    1  A    between atoms: C_3  and  C_4 
REMARK    2  A    between atoms: C_4  and  O_5 
REMARK    3  A    between atoms: C_12  and  C_13 
REMARK    4  A    between atoms: C_13  and  C_14 
REMARK    5  A    between atoms: C_15  and  C_16 
REMARK    6  A    between atoms: C_18  and  N_19 
REMARK    7  A    between atoms: N_25  and  C_26 
REMARK    8  A    between atoms: C_26  and  C_27 
REMARK    9  A    between atoms: C_27  and  C_28 
REMARK   10  A    between atoms: C_28  and  N_29 
REMARK   11  A    between atoms: C_38  and  O_39 
ROOT
HETATM    1  C   UNL     1       3.869  -3.518  -0.384  1.00  0.00     0.059 A 
HETATM    2  C   UNL     1       3.508  -4.910   0.085  1.00  0.00     0.161 A 
HETATM    3  N   UNL     1       4.600  -5.689  -0.474  1.00  0.00    -0.333 N 
HETATM    4  C   UNL     1       5.496  -4.896  -1.155  1.00  0.00     0.278 A 
HETATM    5  O   UNL     1       6.422  -5.311  -1.836  1.00  0.00    -0.265 OA
HETATM    6  C   UNL     1       5.005  -3.499  -1.102  1.00  0.00     0.146 A 
ENDROOT
BRANCH   1   7
HETATM    7  C   UNL     1       2.844  -2.476  -0.139  1.00  0.00     0.196 C 
HETATM    8  O   UNL     1       1.710  -2.817   0.181  1.00  0.00    -0.287 OA
BRANCH   7   9
HETATM    9  C   UNL     1       3.196  -1.089  -0.418  1.00  0.00     0.045 A 
HETATM   10  C   UNL     1       2.428  -0.182  -1.237  1.00  0.00    -0.013 A 
HETATM   11  C   UNL     1       1.156  -0.517  -1.947  1.00  0.00     0.052 C 
HETATM   12  C   UNL     1       3.074   1.051  -1.223  1.00  0.00     0.115 A 
HETATM   13  N   UNL     1       4.190   0.907  -0.429  1.00  0.00    -0.354 N 
HETATM   14  H   UNL     1       4.825   1.672  -0.226  1.00  0.00     0.166 HD
HETATM   15  C   UNL     1       4.263  -0.360   0.094  1.00  0.00     0.020 A 
HETATM   16  C   UNL     1       5.343  -0.696   1.063  1.00  0.00     0.069 C 
BRANCH  12  17
HETATM   17  C   UNL     1       2.774   2.333  -1.828  1.00  0.00     0.310 C 
HETATM   18  O   UNL     1       3.520   3.301  -1.769  1.00  0.00    -0.258 OA
BRANCH  17  19
HETATM   19  O   UNL     1       1.570   2.308  -2.456  1.00  0.00    -0.321 OA
HETATM   20  C   UNL     1       1.196   3.550  -3.052  1.00  0.00     0.213 C 
ENDBRANCH  17  19
ENDBRANCH  12  17
ENDBRANCH   7   9
ENDBRANCH   1   7
BRANCH   2  21
HETATM   21  C   UNL     1       3.374  -5.112   1.585  1.00  0.00    -0.028 A 
HETATM   22  C   UNL     1       4.149  -4.403   2.517  1.00  0.00     0.045 A 
HETATM   23  C   UNL     1       3.940  -4.578   3.896  1.00  0.00     0.103 A 
HETATM   24  C   UNL     1       3.002  -5.502   4.365  1.00  0.00     0.036 A 
HETATM   25  C   UNL     1       2.260  -6.242   3.447  1.00  0.00     0.003 A 
HETATM   26  C   UNL     1       2.437  -6.041   2.074  1.00  0.00     0.010 A 
BRANCH  23  27
HETATM   27  N   UNL     1       4.698  -3.759   4.852  1.00  0.00    -0.116 N 
HETATM   28  O   UNL     1       5.434  -2.877   4.387  1.00  0.00    -0.532 OA
HETATM   29  O   UNL     1       4.555  -3.998   6.058  1.00  0.00    -0.532 OA
ENDBRANCH  23  27
ENDBRANCH   2  21
BRANCH   6  30
HETATM   30  O   UNL     1       5.594  -2.525  -1.849  1.00  0.00    -0.355 OA
HETATM   31  H   UNL     1       5.123  -1.679  -1.756  1.00  0.00     0.218 HD
ENDBRANCH   6  30
BRANCH   3  32
HETATM   32  C   UNL     1       4.566  -7.134  -0.628  1.00  0.00     0.129 C 
BRANCH  32  33
HETATM   33  C   UNL     1       3.780  -7.616  -1.856  1.00  0.00     0.048 C 
BRANCH  33  34
HETATM   34  C   UNL     1       4.160  -7.027  -3.220  1.00  0.00     0.236 C 
BRANCH  34  35
HETATM   35  N   UNL     1       5.621  -7.134  -3.554  1.00  0.00    -0.067 N 
HETATM   36  H   UNL     1       6.159  -6.683  -2.784  1.00  0.00     0.280 HD
HETATM   37  C   UNL     1       6.130  -8.550  -3.748  1.00  0.00     0.261 C 
HETATM   38  C   UNL     1       7.628  -8.528  -4.075  1.00  0.00     0.195 C 
HETATM   39  O   UNL     1       7.893  -7.726  -5.231  1.00  0.00    -0.388 OA
HETATM   40  C   UNL     1       7.496  -6.365  -5.021  1.00  0.00     0.195 C 
HETATM   41  C   UNL     1       5.987  -6.277  -4.770  1.00  0.00     0.261 C 
ENDBRANCH  34  35
ENDBRANCH  33  34
ENDBRANCH  32  33
ENDBRANCH   3  32
TORSDOF 11
