REMARK  4 active torsions:
REMARK  status: ('A' for Active; 'I' for Inactive)
REMARK    1  A    between atoms: C_4  and  N_5 
REMARK       I    between atoms: N_5  and  C_6 
REMARK    2  A    between atoms: C_6  and  C_7 
REMARK    3  A    between atoms: C_11  and  C_12 
REMARK    4  A    between atoms: C_18  and  N_19 
REMARK       I    between atoms: N_19  and  C_20 
ROOT
HETATM    1  N   UNL     1       4.986   2.535  -0.452  1.00  0.00    -0.320 N 
HETATM    2  C   UNL     1       4.398   3.781  -0.385  1.00  0.00     0.276 C 
HETATM    3  O   UNL     1       3.250   4.009  -0.019  1.00  0.00    -0.266 OA
HETATM    4  H   UNL     1       5.996   2.541  -0.570  1.00  0.00     0.169 HD
ENDROOT
BRANCH   1   5
HETATM    5  C   UNL     1       4.419   1.262  -0.195  1.00  0.00     0.062 A 
HETATM    6  C   UNL     1       3.038   1.126   0.039  1.00  0.00     0.038 A 
HETATM    7  C   UNL     1       2.431  -0.123   0.240  1.00  0.00    -0.060 A 
HETATM    8  C   UNL     1       0.954  -0.228   0.482  1.00  0.00     0.048 C 
HETATM    9  C   UNL     1       3.211  -1.270   0.161  1.00  0.00     0.009 A 
HETATM   10  C   UNL     1       4.580  -1.163  -0.080  1.00  0.00     0.032 A 
HETATM   11  C   UNL     1       5.212   0.088  -0.235  1.00  0.00     0.061 A 
BRANCH  11  12
HETATM   12  N   UNL     1       6.614  -0.012  -0.448  1.00  0.00    -0.326 N 
HETATM   13  C   UNL     1       7.597   0.938  -0.291  1.00  0.00     0.218 C 
HETATM   14  C   UNL     1       8.967   0.431  -0.663  1.00  0.00     0.117 C 
HETATM   15  O   UNL     1       7.439   2.078   0.130  1.00  0.00    -0.274 OA
HETATM   16  H   UNL     1       6.956  -0.955  -0.587  1.00  0.00     0.169 HD
ENDBRANCH  11  12
ENDBRANCH   1   5
BRANCH   2  17
HETATM   17  C   UNL     1       5.261   4.883  -0.731  1.00  0.00     0.142 A 
HETATM   18  N   UNL     1       4.982   6.148  -0.281  1.00  0.00    -0.271 N 
HETATM   19  H   UNL     1       4.187   6.424   0.288  1.00  0.00     0.189 HD
HETATM   20  N   UNL     1       5.885   7.077  -0.630  1.00  0.00    -0.177 NA
HETATM   21  C   UNL     1       6.755   6.392  -1.382  1.00  0.00     0.083 A 
HETATM   22  C   UNL     1       6.392   5.029  -1.510  1.00  0.00     0.094 A 
HETATM   23 CL   UNL     1       7.181   3.869  -2.469  1.00  0.00    -0.079 Cl
BRANCH  21  24
HETATM   24  C   UNL     1       7.985   7.036  -2.015  1.00  0.00     0.041 A 
HETATM   25  C   UNL     1       7.898   8.473  -2.489  1.00  0.00     0.011 A 
HETATM   26  C   UNL     1       8.679   8.155  -1.261  1.00  0.00     0.011 A 
ENDBRANCH  21  24
ENDBRANCH   2  17
TORSDOF 4
