REMARK  5 active torsions:
REMARK  status: ('A' for Active; 'I' for Inactive)
REMARK    1  A    between atoms: C_2  and  N_3 
REMARK    2  A    between atoms: C_7  and  N_8 
REMARK       I    between atoms: N_8  and  C_9 
REMARK       I    between atoms: C_9  and  N_10 
REMARK    3  A    between atoms: N_10  and  C_11 
REMARK    4  A    between atoms: C_11  and  C_12 
REMARK    5  A    between atoms: C_17  and  C_18 
ROOT
HETATM    1  N   UNL     1       3.018  -2.260  -1.845  1.00  0.00    -0.293 N 
HETATM    2  C   UNL     1       3.103  -3.029  -0.666  1.00  0.00     0.322 C 
HETATM    3  N   UNL     1       2.690  -2.409   0.478  1.00  0.00    -0.339 N 
HETATM    4  O   UNL     1       3.420  -4.196  -0.798  1.00  0.00    -0.247 OA
HETATM    5  H   UNL     1       2.946  -2.816  -2.690  1.00  0.00     0.172 HD
HETATM    6  H   UNL     1       2.110  -1.594   0.357  1.00  0.00     0.164 HD
ENDROOT
BRANCH   3   7
HETATM    7  C   UNL     1       2.437  -3.270   1.614  1.00  0.00     0.163 C 
BRANCH   7   8
HETATM    8  C   UNL     1       2.110  -2.590   2.920  1.00  0.00    -0.037 A 
HETATM    9  C   UNL     1       2.389  -3.290   4.107  1.00  0.00     0.051 A 
HETATM   10  C   UNL     1       2.019  -2.772   5.344  1.00  0.00     0.117 A 
HETATM   11  F   UNL     1       2.284  -3.471   6.455  1.00  0.00    -0.206 F 
HETATM   12  C   UNL     1       1.365  -1.554   5.442  1.00  0.00     0.058 A 
HETATM   13  C   UNL     1       1.069  -0.831   4.279  1.00  0.00     0.051 A 
HETATM   14  C   UNL     1       1.434  -1.363   3.022  1.00  0.00     0.025 A 
BRANCH  13  15
HETATM   15  C   UNL     1       0.332   0.485   4.362  1.00  0.00     0.417 C 
HETATM   16  F   UNL     1       0.225   0.976   5.625  1.00  0.00    -0.166 F 
HETATM   17  F   UNL     1       0.938   1.458   3.627  1.00  0.00    -0.166 F 
HETATM   18  F   UNL     1      -0.938   0.390   3.881  1.00  0.00    -0.166 F 
ENDBRANCH  13  15
ENDBRANCH   7   8
ENDBRANCH   3   7
BRANCH   1  19
HETATM   19  C   UNL     1       3.034  -0.887  -1.985  1.00  0.00     0.129 C 
HETATM   20  N   UNL     1       3.687   0.102  -1.281  1.00  0.00    -0.250 N 
HETATM   21  N   UNL     1       3.376   1.338  -1.731  1.00  0.00    -0.183 NA
HETATM   22  C   UNL     1       2.634   1.118  -2.816  1.00  0.00     0.142 C 
HETATM   23  C   UNL     1       2.412  -0.251  -3.037  1.00  0.00     0.071 C 
BRANCH  20  24
HETATM   24  C   UNL     1       4.788  -0.033  -0.330  1.00  0.00     0.104 C 
HETATM   25  C   UNL     1       4.544   0.789   0.936  1.00  0.00     0.034 C 
HETATM   26  C   UNL     1       6.124   0.336  -0.980  1.00  0.00     0.034 C 
ENDBRANCH  20  24
ENDBRANCH   1  19
TORSDOF 5
