REMARK  10 active torsions:
REMARK  status: ('A' for Active; 'I' for Inactive)
REMARK    1  A    between atoms: C_2  and  N_3 
REMARK    2  A    between atoms: N_3  and  C_5 
REMARK    3  A    between atoms: N_3  and  C_34 
REMARK    4  A    between atoms: C_5  and  C_6 
REMARK    5  A    between atoms: N_7  and  C_8 
REMARK    6  A    between atoms: C_12  and  N_13 
REMARK    7  A    between atoms: C_16  and  C_17 
REMARK       I    between atoms: C_17  and  N_18 
REMARK    8  A    between atoms: N_18  and  N_19 
REMARK    9  A    between atoms: C_20  and  C_21 
REMARK   10  A    between atoms: C_23  and  C_24 
ROOT
HETATM    1  C   UNL     1       0.919  -0.831  -2.472  1.00  0.00     0.096 A 
HETATM    2  N   UNL     1       0.024  -1.897  -2.524  1.00  0.00    -0.215 N 
HETATM    3  N   UNL     1      -1.242  -1.406  -2.464  1.00  0.00     0.012 NA
HETATM    4  N   UNL     1      -1.200  -0.084  -2.478  1.00  0.00    -0.152 NA
HETATM    5  C   UNL     1       0.109   0.297  -2.489  1.00  0.00     0.170 A 
ENDROOT
BRANCH   5   6
HETATM    6  C   UNL     1       0.551   1.685  -2.527  1.00  0.00     0.293 C 
HETATM    7  N   UNL     1      -0.473   2.610  -2.445  1.00  0.00    -0.242 N 
HETATM    8  H   UNL     1      -1.441   2.303  -2.366  1.00  0.00     0.192 HD
HETATM    9  O   UNL     1       1.745   1.947  -2.657  1.00  0.00    -0.264 OA
BRANCH   7  10
HETATM   10  N   UNL     1      -0.168   3.939  -2.469  1.00  0.00    -0.181 NA
HETATM   11  C   UNL     1      -1.165   4.766  -2.444  1.00  0.00     0.175 C 
BRANCH  11  12
HETATM   12  C   UNL     1      -0.927   6.180  -2.456  1.00  0.00     0.095 A 
HETATM   13  O   UNL     1      -2.004   7.016  -2.511  1.00  0.00    -0.309 OA
HETATM   14  C   UNL     1      -1.533   8.302  -2.519  1.00  0.00     0.086 A 
HETATM   15  C   UNL     1      -0.152   8.281  -2.461  1.00  0.00     0.041 A 
HETATM   16  C   UNL     1       0.236   6.921  -2.425  1.00  0.00     0.041 A 
BRANCH  14  17
HETATM   17  C   UNL     1      -2.532   9.366  -2.587  1.00  0.00    -0.002 A 
HETATM   18  C   UNL     1      -3.897   9.078  -2.746  1.00  0.00     0.015 A 
HETATM   19  C   UNL     1      -4.846  10.104  -2.820  1.00  0.00     0.020 A 
HETATM   20  C   UNL     1      -4.437  11.431  -2.736  1.00  0.00     0.011 A 
HETATM   21 BR   UNL     1      -5.716  12.818  -2.839  1.00  0.00    -0.051 Br
HETATM   22  C   UNL     1      -3.090  11.742  -2.577  1.00  0.00     0.020 A 
HETATM   23  C   UNL     1      -2.144  10.713  -2.504  1.00  0.00     0.015 A 
ENDBRANCH  14  17
ENDBRANCH  11  12
ENDBRANCH   7  10
ENDBRANCH   5   6
BRANCH   1  24
HETATM   24  C   UNL     1       2.391  -0.943  -2.327  1.00  0.00     0.296 C 
BRANCH  24  25
HETATM   25  N   UNL     1       3.169  -1.245  -3.598  1.00  0.00    -0.066 N 
HETATM   26  H   UNL     1       2.811  -2.145  -3.952  1.00  0.00     0.280 HD
BRANCH  25  27
HETATM   27  C   UNL     1       4.651  -1.433  -3.297  1.00  0.00     0.231 C 
HETATM   28  C   UNL     1       4.914  -2.772  -2.630  1.00  0.00     0.034 C 
ENDBRANCH  25  27
BRANCH  25  29
HETATM   29  C   UNL     1       2.958  -0.188  -4.673  1.00  0.00     0.231 C 
HETATM   30  C   UNL     1       3.343  -0.720  -6.044  1.00  0.00     0.034 C 
ENDBRANCH  25  29
ENDBRANCH  24  25
ENDBRANCH   1  24
BRANCH   2  31
HETATM   31  C   UNL     1       0.301  -3.276  -2.674  1.00  0.00     0.225 A 
HETATM   32  N   UNL     1       1.551  -3.680  -2.920  1.00  0.00    -0.081 NA
HETATM   33  O   UNL     1       1.433  -5.070  -3.024  1.00  0.00    -0.103 OA
HETATM   34  N   UNL     1       0.115  -5.474  -2.869  1.00  0.00    -0.083 NA
HETATM   35  C   UNL     1      -0.588  -4.363  -2.655  1.00  0.00     0.201 A 
BRANCH  35  36
HETATM   36  N   UNL     1      -1.913  -4.328  -2.450  1.00  0.00    -0.379 N 
HETATM   37  H   UNL     1      -2.467  -5.178  -2.522  1.00  0.00     0.158 HD
HETATM   38  H   UNL     1      -2.458  -3.470  -2.384  1.00  0.00     0.158 HD
ENDBRANCH  35  36
ENDBRANCH   2  31
TORSDOF 10
