REMARK  10 active torsions:
REMARK  status: ('A' for Active; 'I' for Inactive)
REMARK    1  A    between atoms: C_3  and  C_4 
REMARK    2  A    between atoms: C_4  and  C_5 
REMARK       I    between atoms: C_5  and  N_6 
REMARK    3  A    between atoms: N_6  and  C_7 
REMARK    4  A    between atoms: C_7  and  C_8 
REMARK    5  A    between atoms: C_8  and  O_9 
REMARK    6  A    between atoms: C_15  and  N_16 
REMARK       I    between atoms: N_16  and  C_17 
REMARK    7  A    between atoms: C_17  and  C_18 
REMARK    8  A    between atoms: C_26  and  C_27 
REMARK    9  A    between atoms: C_27  and  O_28 
REMARK   10  A    between atoms: C_30  and  O_31 
ROOT
HETATM    1  C   UNL     1      -1.951   1.780  -0.217  1.00  0.00     0.016 C 
HETATM    2  C   UNL     1      -0.543   1.215   0.158  1.00  0.00    -0.030 C 
HETATM    3  C   UNL     1      -0.715  -0.226   0.803  1.00  0.00     0.056 C 
HETATM    4  C   UNL     1      -0.985  -1.263  -0.261  1.00  0.00     0.056 A 
HETATM    5  C   UNL     1      -0.698  -1.071  -1.598  1.00  0.00     0.012 A 
HETATM    6  S   UNL     1      -0.979  -2.499  -2.477  1.00  0.00    -0.055 SA
HETATM    7  C   UNL     1      -1.578  -3.220  -1.049  1.00  0.00     0.173 A 
HETATM    8  N   UNL     1      -1.538  -2.498   0.043  1.00  0.00    -0.227 NA
HETATM    9  C   UNL     1      -0.231   0.188  -2.228  1.00  0.00     0.055 C 
HETATM   10  C   UNL     1       0.328   1.181  -1.175  1.00  0.00     0.012 C 
HETATM   11  C   UNL     1       1.912   1.144  -1.033  1.00  0.00     0.008 C 
HETATM   12  C   UNL     1       2.479   1.992  -2.216  1.00  0.00     0.020 C 
HETATM   13  C   UNL     1       2.378   1.832   0.285  1.00  0.00     0.128 C 
HETATM   14  C   UNL     1       1.370   2.863   0.779  1.00  0.00     0.033 C 
HETATM   15  C   UNL     1       0.067   2.195   1.209  1.00  0.00     0.013 C 
ENDROOT
BRANCH   3  16
HETATM   16  C   UNL     1      -1.765  -0.273   1.929  1.00  0.00     0.114 C 
BRANCH  16  17
HETATM   17  C   UNL     1      -1.306  -1.162   3.064  1.00  0.00     0.218 C 
HETATM   18  N   UNL     1      -1.718  -2.468   2.978  1.00  0.00    -0.359 N 
HETATM   19  H   UNL     1      -1.957  -2.814   2.044  1.00  0.00     0.162 HD
HETATM   20  O   UNL     1      -0.622  -0.715   3.984  1.00  0.00    -0.274 OA
BRANCH  18  21
HETATM   21  C   UNL     1      -1.326  -3.433   3.989  1.00  0.00     0.148 C 
BRANCH  21  22
HETATM   22  C   UNL     1      -2.231  -4.666   4.061  1.00  0.00     0.186 C 
BRANCH  22  23
HETATM   23  O   UNL     1      -3.493  -4.381   4.672  1.00  0.00    -0.394 OA
HETATM   24  C   UNL     1      -4.493  -4.028   3.725  1.00  0.00     0.201 C 
ENDBRANCH  22  23
ENDBRANCH  21  22
ENDBRANCH  18  21
ENDBRANCH  16  17
ENDBRANCH   3  16
BRANCH  11  25
HETATM   25  C   UNL     1       2.575  -0.252  -1.188  1.00  0.00     0.176 C 
BRANCH  25  26
HETATM   26  O   UNL     1       2.173  -1.181  -0.200  1.00  0.00    -0.400 OA
HETATM   27  H   UNL     1       2.364  -0.741   0.658  1.00  0.00     0.209 HD
ENDBRANCH  25  26
ENDBRANCH  11  25
BRANCH   7  28
HETATM   28  N   UNL     1      -2.061  -4.479  -1.259  1.00  0.00    -0.305 N 
HETATM   29  C   UNL     1      -2.875  -5.121  -0.355  1.00  0.00     0.231 C 
HETATM   30  O   UNL     1      -3.194  -4.674   0.744  1.00  0.00    -0.272 OA
HETATM   31  H   UNL     1      -1.916  -4.847  -2.185  1.00  0.00     0.171 HD
BRANCH  29  32
HETATM   32  C   UNL     1      -3.366  -6.507  -0.840  1.00  0.00     0.030 C 
HETATM   33  C   UNL     1      -2.182  -7.485  -0.857  1.00  0.00     0.025 C 
HETATM   34  C   UNL     1      -4.440  -7.038   0.127  1.00  0.00     0.025 C 
HETATM   35  C   UNL     1      -3.989  -6.415  -2.244  1.00  0.00     0.025 C 
ENDBRANCH  29  32
ENDBRANCH   7  28
BRANCH  13  36
HETATM   36  O   UNL     1       2.598   0.867   1.318  1.00  0.00    -0.395 OA
HETATM   37  H   UNL     1       2.822   1.350   2.135  1.00  0.00     0.210 HD
ENDBRANCH  13  36
TORSDOF 10
