REMARK  3 active torsions:
REMARK  status: ('A' for Active; 'I' for Inactive)
REMARK    1  A    between atoms: C_4  and  C_5 
REMARK    2  A    between atoms: C_9  and  C_10 
REMARK    3  A    between atoms: C_23  and  N_24 
ROOT
HETATM    1  C   UNL     1       3.016   0.003  -0.212  1.00  0.00     0.070 A 
HETATM    2  N   UNL     1       3.534   1.232  -0.425  1.00  0.00    -0.228 NA
HETATM    3  C   UNL     1       4.818   1.396  -0.727  1.00  0.00     0.165 A 
HETATM    4  C   UNL     1       5.696   0.317  -0.860  1.00  0.00     0.063 A 
HETATM    5  C   UNL     1       5.170  -0.995  -0.615  1.00  0.00    -0.006 A 
HETATM    6  C   UNL     1       3.812  -1.126  -0.293  1.00  0.00     0.046 A 
HETATM    7  N   UNL     1       5.187   2.655  -0.904  1.00  0.00    -0.222 NA
HETATM    8  C   UNL     1       6.455   2.888  -1.226  1.00  0.00     0.237 A 
HETATM    9  N   UNL     1       7.392   1.964  -1.414  1.00  0.00    -0.229 NA
HETATM   10  C   UNL     1       7.003   0.695  -1.244  1.00  0.00     0.117 A 
ENDROOT
BRANCH   5  11
HETATM   11  C   UNL     1       5.969  -2.232  -0.690  1.00  0.00    -0.022 A 
HETATM   12  C   UNL     1       6.956  -2.513   0.272  1.00  0.00     0.052 A 
HETATM   13  C   UNL     1       7.687  -3.677   0.144  1.00  0.00     0.105 A 
HETATM   14  C   UNL     1       7.457  -4.569  -0.875  1.00  0.00     0.105 A 
HETATM   15  O   UNL     1       8.693  -4.078   0.966  1.00  0.00    -0.323 OA
HETATM   16  O   UNL     1       8.289  -5.643  -0.824  1.00  0.00    -0.323 OA
HETATM   17  C   UNL     1       6.483  -4.350  -1.823  1.00  0.00     0.040 A 
HETATM   18  C   UNL     1       9.096  -5.307   0.325  1.00  0.00     0.352 A 
HETATM   19  C   UNL     1       5.737  -3.170  -1.727  1.00  0.00     0.015 A 
ENDBRANCH   5  11
BRANCH  10  20
HETATM   20  N   UNL     1       8.034  -0.217  -1.458  1.00  0.00    -0.286 NA
HETATM   21  H   UNL     1       8.850   0.304  -1.770  1.00  0.00     0.125 HD
HETATM   22  H   UNL     1       7.780  -0.949  -2.111  1.00  0.00     0.125 HD
ENDBRANCH  10  20
BRANCH   1  23
HETATM   23  C   UNL     1       1.564  -0.040   0.069  1.00  0.00    -0.007 A 
HETATM   24  C   UNL     1       0.712   0.969  -0.422  1.00  0.00     0.014 A 
HETATM   25  C   UNL     1      -0.667   0.945  -0.191  1.00  0.00     0.001 A 
HETATM   26  C   UNL     1      -1.229  -0.092   0.544  1.00  0.00     0.000 A 
HETATM   27  C   UNL     1      -0.413  -1.097   1.054  1.00  0.00     0.001 A 
HETATM   28  C   UNL     1       0.967  -1.070   0.821  1.00  0.00     0.014 A 
ENDBRANCH   1  23
TORSDOF 3
