REMARK  5 active torsions:
REMARK  status: ('A' for Active; 'I' for Inactive)
REMARK    1  A    between atoms: C_9  and  N_10 
REMARK       I    between atoms: N_10  and  C_11 
REMARK    2  A    between atoms: C_11  and  C_12 
REMARK    3  A    between atoms: C_14  and  C_15 
REMARK    4  A    between atoms: C_15  and  O_16 
REMARK    5  A    between atoms: O_16  and  C_17 
ROOT
HETATM    1  N   UNL     1       9.796  -1.169  -0.851  1.00  0.00    -0.321 N 
HETATM    2  C   UNL     1       9.045  -0.419   0.045  1.00  0.00     0.279 C 
HETATM    3  O   UNL     1       8.162  -0.875   0.765  1.00  0.00    -0.265 OA
HETATM    4  H   UNL     1      10.379  -0.648  -1.490  1.00  0.00     0.169 HD
ENDROOT
BRANCH   2   5
HETATM    5  C   UNL     1       9.364   1.001   0.017  1.00  0.00     0.143 A 
HETATM    6  O   UNL     1       8.388   1.880   0.402  1.00  0.00    -0.307 OA
HETATM    7  C   UNL     1       8.886   3.142   0.277  1.00  0.00     0.078 A 
HETATM    8  C   UNL     1      10.189   3.089  -0.171  1.00  0.00     0.038 A 
HETATM    9  C   UNL     1      10.496   1.715  -0.343  1.00  0.00     0.045 A 
BRANCH   7  10
HETATM   10  C   UNL     1       7.957   4.253   0.607  1.00  0.00     0.240 C 
BRANCH  10  11
HETATM   11  O   UNL     1       8.456   4.879   1.787  1.00  0.00    -0.345 OA
BRANCH  11  12
HETATM   12  C   UNL     1       7.648   5.827   2.355  1.00  0.00     0.069 A 
HETATM   13  C   UNL     1       6.528   6.412   1.760  1.00  0.00     0.037 A 
HETATM   14  C   UNL     1       5.786   7.373   2.453  1.00  0.00     0.003 A 
HETATM   15  C   UNL     1       6.161   7.756   3.740  1.00  0.00     0.000 A 
HETATM   16  C   UNL     1       7.282   7.181   4.334  1.00  0.00     0.003 A 
HETATM   17  C   UNL     1       8.023   6.223   3.641  1.00  0.00     0.037 A 
ENDBRANCH  11  12
ENDBRANCH  10  11
ENDBRANCH   7  10
ENDBRANCH   2   5
BRANCH   1  18
HETATM   18  C   UNL     1       9.725  -2.562  -1.077  1.00  0.00     0.037 A 
HETATM   19  C   UNL     1       9.016  -3.448  -0.255  1.00  0.00     0.063 A 
HETATM   20  C   UNL     1       9.003  -4.816  -0.575  1.00  0.00     0.087 A 
HETATM   21  N   UNL     1       8.392  -5.864   0.070  1.00  0.00    -0.234 NA
HETATM   22  C   UNL     1       9.688  -5.262  -1.698  1.00  0.00     0.062 A 
HETATM   23  C   UNL     1       8.679  -6.936  -0.636  1.00  0.00     0.101 A 
HETATM   24  C   UNL     1       8.245  -8.324  -0.357  1.00  0.00     0.091 C 
HETATM   25  N   UNL     1       9.458  -6.614  -1.720  1.00  0.00    -0.343 N 
HETATM   26  H   UNL     1       9.803  -7.262  -2.411  1.00  0.00     0.167 HD
HETATM   27  C   UNL     1      10.412  -4.416  -2.536  1.00  0.00     0.034 A 
HETATM   28  C   UNL     1      10.420  -3.056  -2.194  1.00  0.00     0.032 A 
ENDBRANCH   1  18
TORSDOF 5
