REMARK  7 active torsions:
REMARK  status: ('A' for Active; 'I' for Inactive)
REMARK    1  A    between atoms: O_2  and  C_3 
REMARK    2  A    between atoms: C_4  and  O_5 
REMARK    3  A    between atoms: C_8  and  N_9 
REMARK       I    between atoms: N_9  and  C_10 
REMARK    4  A    between atoms: C_10  and  C_11 
REMARK    5  A    between atoms: C_11  and  N_12 
REMARK    6  A    between atoms: N_20  and  C_21 
REMARK    7  A    between atoms: C_21  and  C_22 
ROOT
HETATM    1  N   UNL     1       5.390  -0.094   4.526  1.00  0.00    -0.063 N 
HETATM    2  H   UNL     1       5.050  -0.793   3.833  1.00  0.00     0.280 HD
HETATM    3  C   UNL     1       4.154   0.460   5.177  1.00  0.00     0.238 C 
HETATM    4  C   UNL     1       4.508   1.665   6.043  1.00  0.00     0.069 C 
HETATM    5  C   UNL     1       5.309   2.716   5.264  1.00  0.00     0.119 C 
HETATM    6  N   UNL     1       5.702   3.809   6.123  1.00  0.00    -0.324 N 
HETATM    7  C   UNL     1       4.908   4.923   5.945  1.00  0.00     0.326 C 
HETATM    8  O   UNL     1       4.948   5.896   6.674  1.00  0.00    -0.247 OA
HETATM    9  N   UNL     1       4.102   4.706   4.871  1.00  0.00    -0.264 N 
HETATM   10  C   UNL     1       4.334   3.472   4.344  1.00  0.00     0.256 C 
HETATM   11  O   UNL     1       3.797   2.964   3.369  1.00  0.00    -0.270 OA
HETATM   12  C   UNL     1       6.505   2.128   4.524  1.00  0.00     0.069 C 
HETATM   13  C   UNL     1       6.141   0.904   3.700  1.00  0.00     0.238 C 
HETATM   14  H   UNL     1       6.305   3.769   6.939  1.00  0.00     0.165 HD
ENDROOT
BRANCH   1  15
HETATM   15  C   UNL     1       6.234  -0.978   5.471  1.00  0.00     0.337 C 
BRANCH  15  16
HETATM   16  C   UNL     1       5.731  -2.416   5.355  1.00  0.00     0.248 C 
HETATM   17  N   UNL     1       5.473  -3.217   6.420  1.00  0.00    -0.326 N 
HETATM   18  H   UNL     1       4.971  -4.058   6.140  1.00  0.00     0.169 HD
HETATM   19  O   UNL     1       5.398  -2.798   4.224  1.00  0.00    -0.271 OA
BRANCH  17  20
HETATM   20  C   UNL     1       5.653  -3.048   7.801  1.00  0.00     0.037 A 
HETATM   21  C   UNL     1       6.575  -2.184   8.382  1.00  0.00     0.069 A 
HETATM   22  C   UNL     1       6.611  -2.037   9.774  1.00  0.00     0.103 A 
HETATM   23  C   UNL     1       5.791  -2.802  10.615  1.00  0.00     0.101 A 
HETATM   24  C   UNL     1       4.906  -3.705  10.030  1.00  0.00     0.042 A 
HETATM   25  C   UNL     1       4.845  -3.831   8.637  1.00  0.00     0.032 A 
BRANCH  22  26
HETATM   26  O   UNL     1       7.548  -1.181  10.296  1.00  0.00    -0.353 OA
HETATM   27  C   UNL     1       7.001   0.129  10.444  1.00  0.00     0.210 C 
ENDBRANCH  22  26
BRANCH  23  28
HETATM   28  O   UNL     1       5.915  -2.583  11.959  1.00  0.00    -0.353 OA
HETATM   29  C   UNL     1       5.352  -3.563  12.825  1.00  0.00     0.210 C 
ENDBRANCH  23  28
ENDBRANCH  17  20
ENDBRANCH  15  16
ENDBRANCH   1  15
BRANCH   9  30
HETATM   30  C   UNL     1       3.030   5.591   4.470  1.00  0.00     0.175 C 
BRANCH  30  31
HETATM   31  C   UNL     1       1.767   5.241   5.231  1.00  0.00    -0.040 A 
HETATM   32  C   UNL     1       1.560   5.745   6.525  1.00  0.00     0.010 A 
HETATM   33  C   UNL     1       0.441   5.360   7.267  1.00  0.00     0.024 A 
HETATM   34  C   UNL     1      -0.478   4.469   6.719  1.00  0.00     0.034 A 
HETATM   35 CL   UNL     1      -1.841   3.973   7.641  1.00  0.00    -0.084 Cl
HETATM   36  C   UNL     1      -0.291   3.965   5.433  1.00  0.00     0.024 A 
HETATM   37  C   UNL     1       0.831   4.347   4.691  1.00  0.00     0.010 A 
ENDBRANCH  30  31
ENDBRANCH   9  30
TORSDOF 7
