REMARK  1 active torsions:
REMARK  status: ('A' for Active; 'I' for Inactive)
REMARK    1  A    between atoms: C_8  and  C_9 
ROOT
HETATM    1  C   UNL     1       1.100   9.256  -2.432  1.00  0.00     0.049 C 
HETATM    2  C   UNL     1       0.262   8.070  -2.827  1.00  0.00    -0.050 A 
HETATM    3  C   UNL     1       0.427   6.797  -2.244  1.00  0.00    -0.002 A 
HETATM    4  C   UNL     1      -0.406   5.734  -2.646  1.00  0.00     0.051 A 
HETATM    5  N   UNL     1      -0.247   4.485  -2.027  1.00  0.00    -0.322 N 
HETATM    6  C   UNL     1       0.676   4.214  -1.059  1.00  0.00     0.256 A 
HETATM    7  O   UNL     1       0.724   3.108  -0.526  1.00  0.00    -0.267 OA
HETATM    8  C   UNL     1       1.623   5.303  -0.680  1.00  0.00     0.053 A 
HETATM    9  C   UNL     1       1.460   6.519  -1.235  1.00  0.00     0.031 A 
HETATM   10  C   UNL     1      -1.387   5.912  -3.636  1.00  0.00    -0.034 A 
HETATM   11  C   UNL     1      -2.272   4.789  -4.100  1.00  0.00     0.050 C 
HETATM   12  C   UNL     1      -1.540   7.181  -4.204  1.00  0.00     0.009 A 
HETATM   13  C   UNL     1      -0.731   8.245  -3.802  1.00  0.00     0.008 A 
HETATM   14  H   UNL     1      -0.849   3.713  -2.275  1.00  0.00     0.169 HD
ENDROOT
BRANCH   8  15
HETATM   15  C   UNL     1       2.664   4.885   0.332  1.00  0.00     0.224 C 
HETATM   16  N   UNL     1       3.510   3.862  -0.207  1.00  0.00    -0.331 N 
HETATM   17  C   UNL     1       4.580   4.124  -1.015  1.00  0.00     0.255 C 
HETATM   18  H   UNL     1       3.092   2.949  -0.339  1.00  0.00     0.165 HD
HETATM   19  O   UNL     1       5.065   3.267  -1.744  1.00  0.00    -0.268 OA
HETATM   20  C   UNL     1       5.132   5.489  -0.939  1.00  0.00     0.058 A 
HETATM   21  C   UNL     1       4.558   6.378  -0.020  1.00  0.00     0.045 A 
HETATM   22  C   UNL     1       6.213   5.865  -1.742  1.00  0.00     0.019 A 
HETATM   23  N   UNL     1       3.498   5.984   0.804  1.00  0.00    -0.364 N 
HETATM   24  C   UNL     1       5.146   7.638   0.133  1.00  0.00     0.030 A 
HETATM   25  H   UNL     1       2.972   6.748   1.211  1.00  0.00     0.162 HD
HETATM   26  C   UNL     1       6.226   8.023  -0.668  1.00  0.00     0.002 A 
HETATM   27  C   UNL     1       6.753   7.142  -1.612  1.00  0.00     0.001 A 
ENDBRANCH   8  15
TORSDOF 1
