REMARK  9 active torsions:
REMARK  status: ('A' for Active; 'I' for Inactive)
REMARK    1  A    between atoms: C_2  and  N_3 
REMARK    2  A    between atoms: N_3  and  C_30 
REMARK    3  A    between atoms: N_3  and  C_5 
REMARK    4  A    between atoms: C_5  and  C_6 
REMARK    5  A    between atoms: C_5  and  C_14 
REMARK    6  A    between atoms: C_8  and  O_9 
REMARK    7  A    between atoms: C_14  and  N_15 
REMARK       I    between atoms: N_15  and  C_16 
REMARK    8  A    between atoms: C_16  and  C_17 
REMARK    9  A    between atoms: C_18  and  N_19 
ROOT
HETATM    1  C   UNL     1       0.865  -1.492  -1.974  1.00  0.00     0.161 C 
ENDROOT
BRANCH   1   2
HETATM    2  C   UNL     1       2.425  -1.503  -2.115  1.00  0.00     0.238 C 
BRANCH   2   3
HETATM    3  N   UNL     1       2.968  -0.192  -2.762  1.00  0.00    -0.062 N 
HETATM    4  H   UNL     1       2.593  -0.191  -3.717  1.00  0.00     0.280 HD
BRANCH   3   5
HETATM    5  C   UNL     1       4.486  -0.212  -2.941  1.00  0.00     0.231 C 
HETATM    6  C   UNL     1       5.244  -0.149  -1.627  1.00  0.00     0.034 C 
ENDBRANCH   3   5
BRANCH   3   7
HETATM    7  C   UNL     1       2.445   1.068  -2.090  1.00  0.00     0.231 C 
HETATM    8  C   UNL     1       2.935   2.331  -2.779  1.00  0.00     0.034 C 
ENDBRANCH   3   7
ENDBRANCH   2   3
BRANCH   2   9
HETATM    9  C   UNL     1       2.864  -2.731  -2.908  1.00  0.00    -0.023 A 
HETATM   10  C   UNL     1       2.366  -2.996  -4.198  1.00  0.00     0.046 A 
HETATM   11  C   UNL     1       2.791  -4.125  -4.902  1.00  0.00     0.068 A 
HETATM   12  C   UNL     1       3.760  -4.963  -4.357  1.00  0.00     0.037 A 
HETATM   13  C   UNL     1       4.261  -4.714  -3.082  1.00  0.00     0.003 A 
HETATM   14  C   UNL     1       3.805  -3.615  -2.355  1.00  0.00     0.009 A 
BRANCH  11  15
HETATM   15  O   UNL     1       2.352  -4.442  -6.156  1.00  0.00    -0.356 OA
HETATM   16  C   UNL     1       0.939  -4.343  -6.322  1.00  0.00     0.210 C 
ENDBRANCH  11  15
ENDBRANCH   2   9
ENDBRANCH   1   2
BRANCH   1  17
HETATM   17  N   UNL     1       0.333  -2.671  -1.322  1.00  0.00    -0.354 N 
HETATM   18  C   UNL     1       0.589  -2.881   0.019  1.00  0.00     0.253 C 
HETATM   19  O   UNL     1       1.172  -2.057   0.713  1.00  0.00    -0.268 OA
HETATM   20  H   UNL     1      -0.007  -3.459  -1.866  1.00  0.00     0.162 HD
BRANCH  18  21
HETATM   21  C   UNL     1       0.080  -4.164   0.547  1.00  0.00     0.053 A 
HETATM   22  C   UNL     1       0.946  -5.236   0.845  1.00  0.00     0.026 A 
HETATM   23  C   UNL     1       0.339  -6.416   1.308  1.00  0.00     0.025 A 
HETATM   24  C   UNL     1      -1.053  -6.536   1.430  1.00  0.00     0.008 A 
HETATM   25  C   UNL     1      -1.893  -5.470   1.106  1.00  0.00    -0.061 A 
HETATM   26  C   UNL     1      -3.383  -5.590   1.227  1.00  0.00     0.048 C 
HETATM   27  C   UNL     1      -1.316  -4.276   0.668  1.00  0.00     0.025 A 
BRANCH  22  28
HETATM   28  N   UNL     1       2.343  -5.116   0.702  1.00  0.00    -0.283 NA
HETATM   29  C   UNL     1       3.131  -6.330   0.404  1.00  0.00     0.096 C 
HETATM   30  C   UNL     1       3.999  -6.553   1.635  1.00  0.00     0.016 C 
HETATM   31  C   UNL     1       4.292  -5.133   2.077  1.00  0.00     0.016 C 
HETATM   32  C   UNL     1       2.949  -4.437   1.875  1.00  0.00     0.096 C 
ENDBRANCH  22  28
ENDBRANCH  18  21
ENDBRANCH   1  17
TORSDOF 9
