REMARK  7 active torsions:
REMARK  status: ('A' for Active; 'I' for Inactive)
REMARK    1  A    between atoms: C_9  and  C_10 
REMARK       I    between atoms: C_10  and  N_11 
REMARK    2  A    between atoms: N_11  and  C_12 
REMARK    3  A    between atoms: C_12  and  C_13 
REMARK    4  A    between atoms: C_12  and  C_22 
REMARK       I    between atoms: C_13  and  N_14 
REMARK    5  A    between atoms: N_14  and  C_15 
REMARK    6  A    between atoms: C_15  and  C_16 
REMARK    7  A    between atoms: C_22  and  C_23 
ROOT
HETATM    1  C   UNL     1       2.401   3.515  -1.458  1.00  0.00     0.180 C 
ENDROOT
BRANCH   1   2
HETATM    2  N   UNL     1       2.213   2.315  -2.314  1.00  0.00    -0.346 N 
HETATM    3  C   UNL     1       1.158   2.218  -3.189  1.00  0.00     0.249 C 
HETATM    4  O   UNL     1       0.445   3.159  -3.534  1.00  0.00    -0.271 OA
HETATM    5  H   UNL     1       2.517   1.460  -1.857  1.00  0.00     0.163 HD
BRANCH   3   6
HETATM    6  C   UNL     1       0.914   0.846  -3.829  1.00  0.00     0.281 C 
HETATM    7  N   UNL     1       0.160   1.062  -5.127  1.00  0.00    -0.058 N 
HETATM    8  C   UNL     1      -0.081  -0.185  -5.879  1.00  0.00     0.272 C 
HETATM    9  H   UNL     1      -0.733   1.520  -4.885  1.00  0.00     0.278 HD
HETATM   10  H   UNL     1       0.654   1.762  -5.695  1.00  0.00     0.278 HD
HETATM   11  C   UNL     1      -0.677  -1.259  -5.019  1.00  0.00    -0.026 A 
HETATM   12  C   UNL     1      -0.575  -1.211  -3.613  1.00  0.00    -0.048 A 
HETATM   13  C   UNL     1      -1.314  -2.350  -5.630  1.00  0.00     0.009 A 
HETATM   14  C   UNL     1      -1.147  -2.237  -2.848  1.00  0.00     0.008 A 
HETATM   15  C   UNL     1       0.074  -0.042  -2.905  1.00  0.00     0.082 C 
HETATM   16  C   UNL     1      -1.790  -3.308  -3.468  1.00  0.00     0.001 A 
HETATM   17  C   UNL     1      -1.870  -3.367  -4.856  1.00  0.00     0.001 A 
ENDBRANCH   3   6
ENDBRANCH   1   2
BRANCH   1  18
HETATM   18  C   UNL     1       1.428   3.343  -0.267  1.00  0.00     0.241 C 
HETATM   19  N   UNL     1       1.373   4.367   0.637  1.00  0.00    -0.353 N 
HETATM   20  H   UNL     1       1.818   5.263   0.455  1.00  0.00     0.162 HD
HETATM   21  O   UNL     1       0.803   2.288  -0.108  1.00  0.00    -0.271 OA
BRANCH  19  22
HETATM   22  C   UNL     1       0.486   4.309   1.779  1.00  0.00     0.187 C 
BRANCH  22  23
HETATM   23  C   UNL     1       0.519   5.597   2.513  1.00  0.00     0.070 A 
HETATM   24  O   UNL     1       0.680   6.730   1.768  1.00  0.00    -0.325 OA
HETATM   25  C   UNL     1       0.670   7.779   2.629  1.00  0.00     0.142 A 
HETATM   26  C   UNL     1       0.493   7.340   3.919  1.00  0.00     0.027 A 
HETATM   27  C   UNL     1       0.397   5.929   3.847  1.00  0.00     0.036 A 
ENDBRANCH  22  23
ENDBRANCH  19  22
ENDBRANCH   1  18
BRANCH   1  28
HETATM   28  C   UNL     1       2.251   4.844  -2.218  1.00  0.00     0.075 C 
BRANCH  28  29
HETATM   29  C   UNL     1       3.151   5.948  -1.747  1.00  0.00    -0.028 A 
HETATM   30  C   UNL     1       2.753   7.283  -1.403  1.00  0.00    -0.002 A 
HETATM   31  C   UNL     1       3.912   8.005  -1.120  1.00  0.00     0.042 A 
HETATM   32  C   UNL     1       1.514   7.953  -1.331  1.00  0.00     0.014 A 
HETATM   33  C   UNL     1       3.897   9.362  -0.776  1.00  0.00     0.030 A 
HETATM   34  N   UNL     1       4.973   7.144  -1.266  1.00  0.00    -0.365 N 
HETATM   35  C   UNL     1       2.657  10.003  -0.717  1.00  0.00     0.002 A 
HETATM   36  C   UNL     1       1.480   9.310  -0.987  1.00  0.00     0.001 A 
HETATM   37  H   UNL     1       5.942   7.407  -1.137  1.00  0.00     0.165 HD
HETATM   38  C   UNL     1       4.529   5.908  -1.654  1.00  0.00     0.096 A 
ENDBRANCH  28  29
ENDBRANCH   1  28
TORSDOF 7
