REMARK  6 active torsions:
REMARK  status: ('A' for Active; 'I' for Inactive)
REMARK    1  A    between atoms: O_2  and  C_3 
REMARK    2  A    between atoms: C_3  and  C_4 
REMARK    3  A    between atoms: C_4  and  N_5 
REMARK       I    between atoms: N_5  and  C_6 
REMARK    4  A    between atoms: C_6  and  C_7 
REMARK    5  A    between atoms: C_12  and  C_13 
REMARK    6  A    between atoms: C_21  and  C_22 
ROOT
HETATM    1  C   UNL     1       7.533   1.622  -1.141  1.00  0.00     0.170 A 
HETATM    2  N   UNL     1       8.630   2.096  -0.498  1.00  0.00    -0.163 NA
HETATM    3  N   UNL     1       9.163   1.004   0.074  1.00  0.00    -0.238 N 
HETATM    4  C   UNL     1       8.498  -0.156  -0.211  1.00  0.00     0.145 A 
HETATM    5  N   UNL     1       8.932  -1.352   0.261  1.00  0.00    -0.365 N 
HETATM    6  C   UNL     1       9.950  -1.436   1.303  1.00  0.00     0.118 C 
HETATM    7  C   UNL     1      10.986  -0.316   1.077  1.00  0.00     0.066 C 
HETATM    8  C   UNL     1      10.368   1.083   0.880  1.00  0.00     0.221 C 
HETATM    9  C   UNL     1       7.428   0.211  -0.994  1.00  0.00     0.115 A 
HETATM   10 CL   UNL     1       6.237  -0.821  -1.624  1.00  0.00    -0.077 Cl
HETATM   11  H   UNL     1       8.353  -2.184   0.144  1.00  0.00     0.162 HD
ENDROOT
BRANCH   1  12
HETATM   12  C   UNL     1       6.624   2.532  -1.854  1.00  0.00     0.273 C 
HETATM   13  N   UNL     1       6.978   3.860  -1.740  1.00  0.00    -0.353 N 
HETATM   14  H   UNL     1       7.716   4.061  -1.069  1.00  0.00     0.162 HD
HETATM   15  O   UNL     1       5.628   2.161  -2.469  1.00  0.00    -0.266 OA
BRANCH  13  16
HETATM   16  C   UNL     1       6.110   4.933  -2.180  1.00  0.00     0.149 C 
BRANCH  16  17
HETATM   17  C   UNL     1       4.969   5.200  -1.196  1.00  0.00     0.186 C 
BRANCH  17  18
HETATM   18  O   UNL     1       5.512   5.737   0.016  1.00  0.00    -0.394 OA
HETATM   19  C   UNL     1       4.494   5.977   0.980  1.00  0.00     0.201 C 
ENDBRANCH  17  18
ENDBRANCH  16  17
ENDBRANCH  13  16
ENDBRANCH   1  12
BRANCH   8  20
HETATM   20  C   UNL     1      10.090   1.814   2.176  1.00  0.00     0.409 C 
HETATM   21  F   UNL     1       9.032   1.335   2.855  1.00  0.00    -0.169 F 
HETATM   22  F   UNL     1      11.167   1.726   2.999  1.00  0.00    -0.169 F 
HETATM   23  F   UNL     1       9.878   3.135   1.975  1.00  0.00    -0.169 F 
ENDBRANCH   8  20
BRANCH   6  24
HETATM   24  C   UNL     1       9.365  -1.507   2.707  1.00  0.00    -0.035 A 
HETATM   25  C   UNL     1       7.983  -1.443   2.962  1.00  0.00     0.011 A 
HETATM   26  C   UNL     1       7.483  -1.513   4.266  1.00  0.00     0.024 A 
HETATM   27  C   UNL     1       8.359  -1.659   5.336  1.00  0.00     0.034 A 
HETATM   28 CL   UNL     1       7.746  -1.739   6.941  1.00  0.00    -0.084 Cl
HETATM   29  C   UNL     1       9.729  -1.745   5.111  1.00  0.00     0.024 A 
HETATM   30  C   UNL     1      10.227  -1.676   3.806  1.00  0.00     0.011 A 
ENDBRANCH   6  24
TORSDOF 6
