REMARK  5 active torsions:
REMARK  status: ('A' for Active; 'I' for Inactive)
REMARK    1  A    between atoms: C_8  and  N_9 
REMARK       I    between atoms: N_9  and  C_10 
REMARK       I    between atoms: C_10  and  N_11 
REMARK    2  A    between atoms: N_11  and  C_12 
REMARK    3  A    between atoms: C_13  and  O_14 
REMARK    4  A    between atoms: O_14  and  C_15 
REMARK    5  A    between atoms: C_15  and  C_16 
ROOT
HETATM    1  N   UNL     1       1.344  -3.719   0.105  1.00  0.00    -0.305 N 
HETATM    2  C   UNL     1       1.515  -2.347   0.089  1.00  0.00     0.325 C 
HETATM    3  N   UNL     1       0.623  -1.765  -0.796  1.00  0.00    -0.306 N 
HETATM    4  O   UNL     1       2.330  -1.727   0.758  1.00  0.00    -0.247 OA
HETATM    5  H   UNL     1       0.441  -4.057  -0.188  1.00  0.00     0.171 HD
HETATM    6  H   UNL     1       0.199  -2.378  -1.481  1.00  0.00     0.171 HD
ENDROOT
BRANCH   3   7
HETATM    7  C   UNL     1       0.394  -0.388  -1.010  1.00  0.00     0.072 A 
HETATM    8  C   UNL     1      -0.373  -0.030  -2.136  1.00  0.00     0.096 A 
HETATM    9  C   UNL     1      -0.689   1.305  -2.400  1.00  0.00     0.042 A 
HETATM   10  C   UNL     1      -0.209   2.300  -1.553  1.00  0.00     0.045 A 
HETATM   11  C   UNL     1       0.565   1.949  -0.451  1.00  0.00     0.118 A 
HETATM   12  F   UNL     1       1.015   2.913   0.363  1.00  0.00    -0.206 F 
HETATM   13  C   UNL     1       0.866   0.618  -0.169  1.00  0.00     0.074 A 
BRANCH   8  14
HETATM   14  O   UNL     1      -0.842  -1.041  -2.941  1.00  0.00    -0.340 OA
BRANCH  14  15
HETATM   15  C   UNL     1      -0.352  -0.920  -4.290  1.00  0.00     0.293 C 
BRANCH  15  16
HETATM   16  C   UNL     1      -0.390  -2.276  -4.976  1.00  0.00     0.408 C 
HETATM   17  F   UNL     1       0.313  -3.197  -4.279  1.00  0.00    -0.169 F 
HETATM   18  F   UNL     1      -1.655  -2.733  -5.106  1.00  0.00    -0.169 F 
HETATM   19  F   UNL     1       0.147  -2.202  -6.215  1.00  0.00    -0.169 F 
ENDBRANCH  15  16
ENDBRANCH  14  15
ENDBRANCH   8  14
ENDBRANCH   3   7
BRANCH   1  20
HETATM   20  C   UNL     1       2.156  -4.642   0.743  1.00  0.00     0.086 A 
HETATM   21  C   UNL     1       1.749  -5.945   0.965  1.00  0.00     0.052 A 
HETATM   22  C   UNL     1       0.492  -6.669   0.661  1.00  0.00     0.072 C 
HETATM   23  N   UNL     1       2.791  -6.557   1.601  1.00  0.00    -0.280 N 
HETATM   24  H   UNL     1       2.850  -7.514   1.931  1.00  0.00     0.189 HD
HETATM   25  N   UNL     1       3.852  -5.767   1.783  1.00  0.00    -0.177 NA
HETATM   26  C   UNL     1       3.484  -4.588   1.258  1.00  0.00     0.079 A 
HETATM   27  C   UNL     1       4.476  -3.484   1.249  1.00  0.00     0.075 C 
ENDBRANCH   1  20
TORSDOF 5
