REMARK  6 active torsions:
REMARK  status: ('A' for Active; 'I' for Inactive)
REMARK    1  A    between atoms: C_2  and  O_3 
REMARK    2  A    between atoms: C_2  and  C_4 
REMARK    3  A    between atoms: C_2  and  C_11 
REMARK    4  A    between atoms: C_11  and  N_12 
REMARK       I    between atoms: N_12  and  C_13 
REMARK    5  A    between atoms: C_13  and  C_14 
REMARK    6  A    between atoms: C_15  and  C_16 
ROOT
HETATM    1  N   UNL     1       4.339   1.357   0.415  1.00  0.00    -0.354 N 
HETATM    2  C   UNL     1       5.055   2.450   0.854  1.00  0.00     0.255 C 
HETATM    3  O   UNL     1       4.544   3.553   1.011  1.00  0.00    -0.268 OA
HETATM    4  H   UNL     1       4.745   0.438   0.531  1.00  0.00     0.162 HD
ENDROOT
BRANCH   2   5
HETATM    5  C   UNL     1       6.461   2.183   1.117  1.00  0.00     0.080 A 
HETATM    6  C   UNL     1       7.372   2.914   1.945  1.00  0.00     0.107 A 
HETATM    7  N   UNL     1       8.615   2.404   1.864  1.00  0.00    -0.173 NA
HETATM    8  N   UNL     1       8.496   1.355   1.044  1.00  0.00    -0.288 N 
HETATM    9  H   UNL     1       9.328   0.810   0.843  1.00  0.00     0.188 HD
HETATM   10  C   UNL     1       7.235   1.174   0.569  1.00  0.00     0.128 A 
BRANCH   6  11
HETATM   11  C   UNL     1       7.113   4.064   2.804  1.00  0.00     0.034 A 
HETATM   12  C   UNL     1       6.081   4.047   3.747  1.00  0.00     0.129 A 
HETATM   13  F   UNL     1       5.313   2.957   3.903  1.00  0.00    -0.205 F 
HETATM   14  C   UNL     1       5.843   5.144   4.573  1.00  0.00     0.043 A 
HETATM   15  C   UNL     1       6.649   6.277   4.472  1.00  0.00     0.003 A 
HETATM   16  C   UNL     1       7.694   6.305   3.549  1.00  0.00     0.001 A 
HETATM   17  C   UNL     1       7.928   5.203   2.721  1.00  0.00     0.017 A 
ENDBRANCH   6  11
ENDBRANCH   2   5
BRANCH   1  18
HETATM   18  C   UNL     1       2.896   1.398   0.225  1.00  0.00     0.165 C 
BRANCH  18  19
HETATM   19  C   UNL     1       2.102   0.895   1.462  1.00  0.00     0.097 C 
HETATM   20  C   UNL     1       2.317   1.788   2.694  1.00  0.00     0.053 C 
BRANCH  19  21
HETATM   21  O   UNL     1       2.620  -0.410   1.796  1.00  0.00    -0.384 OA
HETATM   22  H   UNL     1       2.256  -0.636   2.670  1.00  0.00     0.211 HD
ENDBRANCH  19  21
BRANCH  19  23
HETATM   23  C   UNL     1       0.616   0.785   1.107  1.00  0.00    -0.023 A 
HETATM   24  C   UNL     1      -0.165   1.944   0.926  1.00  0.00     0.013 A 
HETATM   25  C   UNL     1      -1.520   1.854   0.597  1.00  0.00     0.043 A 
HETATM   26  C   UNL     1      -2.107   0.606   0.440  1.00  0.00     0.116 A 
HETATM   27  F   UNL     1      -3.406   0.520   0.127  1.00  0.00    -0.206 F 
HETATM   28  C   UNL     1      -1.362  -0.554   0.599  1.00  0.00     0.043 A 
HETATM   29  C   UNL     1      -0.006  -0.466   0.924  1.00  0.00     0.013 A 
ENDBRANCH  19  23
ENDBRANCH  18  19
ENDBRANCH   1  18
TORSDOF 6
