REMARK  10 active torsions:
REMARK  status: ('A' for Active; 'I' for Inactive)
REMARK    1  A    between atoms: C_2  and  O_3 
REMARK    2  A    between atoms: O_3  and  C_4 
REMARK    3  A    between atoms: C_4  and  C_5 
REMARK    4  A    between atoms: C_6  and  C_7 
REMARK    5  A    between atoms: C_14  and  C_15 
REMARK    6  A    between atoms: C_15  and  C_16 
REMARK       I    between atoms: C_16  and  N_17 
REMARK    7  A    between atoms: N_17  and  C_18 
REMARK    8  A    between atoms: C_18  and  C_19 
REMARK    9  A    between atoms: C_19  and  N_20 
REMARK   10  A    between atoms: C_31  and  C_32 
ROOT
HETATM    1  C   UNL     1       5.597  -0.232   0.252  1.00  0.00     0.074 C 
HETATM    2  C   UNL     1       7.093  -0.438   0.332  1.00  0.00     0.166 C 
HETATM    3  N   UNL     1       7.847   0.836   0.411  1.00  0.00    -0.318 N 
HETATM    4  C   UNL     1       9.100   1.144   0.298  1.00  0.00     0.011 C 
HETATM    5  C   UNL     1       7.007   2.024   0.919  1.00  0.00     0.170 C 
HETATM    6  S   UNL     1       7.984   3.400   1.298  1.00  0.00    -0.086 SA
HETATM    7  C   UNL     1       9.443   2.587   0.604  1.00  0.00     0.135 C 
HETATM    8  N   UNL     1       5.736   2.022   1.071  1.00  0.00    -0.223 NA
HETATM    9  C   UNL     1       5.018   0.915   0.675  1.00  0.00     0.084 C 
ENDROOT
BRANCH   4  10
HETATM   10  C   UNL     1      10.136   0.089  -0.006  1.00  0.00     0.156 C 
BRANCH  10  11
HETATM   11  C   UNL     1      11.475   0.583  -0.532  1.00  0.00     0.223 C 
HETATM   12  N   UNL     1      12.421  -0.397  -0.683  1.00  0.00    -0.359 N 
HETATM   13  H   UNL     1      12.188  -1.334  -0.363  1.00  0.00     0.162 HD
HETATM   14  O   UNL     1      11.694   1.762  -0.789  1.00  0.00    -0.273 OA
BRANCH  12  15
HETATM   15  C   UNL     1      13.803  -0.256  -1.165  1.00  0.00     0.150 C 
BRANCH  15  16
HETATM   16  C   UNL     1      14.237   1.023  -1.917  1.00  0.00     0.254 C 
BRANCH  16  17
HETATM   17  N   UNL     1      14.226   2.252  -1.046  1.00  0.00    -0.070 N 
HETATM   18  H   UNL     1      13.234   2.358  -0.757  1.00  0.00     0.279 HD
HETATM   19  C   UNL     1      14.579   3.539  -1.776  1.00  0.00     0.235 C 
HETATM   20  C   UNL     1      15.698   4.157  -0.958  1.00  0.00     0.029 C 
HETATM   21  C   UNL     1      15.450   3.642   0.444  1.00  0.00     0.029 C 
HETATM   22  C   UNL     1      15.075   2.196   0.201  1.00  0.00     0.235 C 
ENDBRANCH  16  17
ENDBRANCH  15  16
ENDBRANCH  12  15
ENDBRANCH  10  11
ENDBRANCH   4  10
BRANCH   2  23
HETATM   23  C   UNL     1       7.505  -1.322   1.511  1.00  0.00    -0.030 A 
HETATM   24  C   UNL     1       8.093  -2.577   1.270  1.00  0.00     0.009 A 
HETATM   25  C   UNL     1       8.492  -3.392   2.330  1.00  0.00     0.001 A 
HETATM   26  C   UNL     1       8.307  -2.970   3.644  1.00  0.00     0.000 A 
HETATM   27  C   UNL     1       7.708  -1.741   3.902  1.00  0.00     0.001 A 
HETATM   28  C   UNL     1       7.302  -0.922   2.847  1.00  0.00     0.009 A 
ENDBRANCH   2  23
BRANCH   1  29
HETATM   29  C   UNL     1       4.915  -1.412  -0.359  1.00  0.00     0.294 C 
HETATM   30  O   UNL     1       5.512  -2.465  -0.530  1.00  0.00    -0.259 OA
BRANCH  29  31
HETATM   31  O   UNL     1       3.679  -1.131  -0.808  1.00  0.00    -0.318 OA
BRANCH  31  32
HETATM   32  C   UNL     1       2.945  -2.209  -1.415  1.00  0.00     0.174 C 
HETATM   33  C   UNL     1       2.251  -3.035  -0.348  1.00  0.00     0.034 C 
ENDBRANCH  31  32
ENDBRANCH  29  31
ENDBRANCH   1  29
BRANCH   9  34
HETATM   34  C   UNL     1       3.553   1.110   0.785  1.00  0.00    -0.006 A 
HETATM   35  C   UNL     1       2.796   0.354   1.693  1.00  0.00     0.014 A 
HETATM   36  C   UNL     1       1.425   0.584   1.832  1.00  0.00     0.001 A 
HETATM   37  C   UNL     1       0.805   1.580   1.080  1.00  0.00     0.000 A 
HETATM   38  C   UNL     1       1.551   2.348   0.189  1.00  0.00     0.001 A 
HETATM   39  C   UNL     1       2.920   2.118   0.043  1.00  0.00     0.014 A 
ENDBRANCH   9  34
TORSDOF 10
