REMARK  9 active torsions:
REMARK  status: ('A' for Active; 'I' for Inactive)
REMARK    1  A    between atoms: C_3  and  C_4 
REMARK    2  A    between atoms: C_4  and  C_5 
REMARK       I    between atoms: C_5  and  N_6 
REMARK    3  A    between atoms: N_6  and  C_7 
REMARK    4  A    between atoms: C_7  and  C_8 
REMARK    5  A    between atoms: C_18  and  N_19 
REMARK       I    between atoms: N_19  and  C_20 
REMARK    6  A    between atoms: C_20  and  C_21 
REMARK    7  A    between atoms: C_29  and  C_30 
REMARK    8  A    between atoms: C_30  and  O_31 
REMARK    9  A    between atoms: C_33  and  O_34 
ROOT
HETATM    1  C   UNL     1      -1.201   2.922   0.878  1.00  0.00     0.016 C 
HETATM    2  C   UNL     1       0.233   2.503   0.396  1.00  0.00    -0.030 C 
HETATM    3  C   UNL     1       0.372   0.951   0.827  1.00  0.00     0.056 C 
HETATM    4  C   UNL     1      -0.010   0.031  -0.308  1.00  0.00     0.056 A 
HETATM    5  C   UNL     1      -0.463   0.462  -1.535  1.00  0.00     0.012 A 
HETATM    6  S   UNL     1      -0.839  -0.858  -2.528  1.00  0.00    -0.055 SA
HETATM    7  C   UNL     1      -0.374  -1.924  -1.281  1.00  0.00     0.173 A 
HETATM    8  N   UNL     1       0.032  -1.347  -0.168  1.00  0.00    -0.227 NA
HETATM    9  C   UNL     1      -0.634   1.865  -1.976  1.00  0.00     0.055 C 
HETATM   10  C   UNL     1       0.294   2.806  -1.173  1.00  0.00     0.012 C 
HETATM   11  C   UNL     1       1.734   2.997  -1.810  1.00  0.00     0.008 C 
HETATM   12  C   UNL     1       1.594   3.647  -3.219  1.00  0.00     0.020 C 
HETATM   13  C   UNL     1       2.567   3.969  -0.925  1.00  0.00     0.128 C 
HETATM   14  C   UNL     1       2.601   3.548   0.541  1.00  0.00     0.033 C 
HETATM   15  C   UNL     1       1.197   3.465   1.138  1.00  0.00     0.013 C 
ENDROOT
BRANCH   3  16
HETATM   16  C   UNL     1       1.696   0.537   1.498  1.00  0.00     0.114 C 
BRANCH  16  17
HETATM   17  C   UNL     1       1.707  -0.727   2.345  1.00  0.00     0.218 C 
HETATM   18  N   UNL     1       0.679  -0.855   3.255  1.00  0.00    -0.357 N 
HETATM   19  H   UNL     1       0.063  -0.066   3.386  1.00  0.00     0.162 HD
HETATM   20  O   UNL     1       2.673  -1.486   2.321  1.00  0.00    -0.274 OA
BRANCH  18  21
HETATM   21  C   UNL     1       0.786  -1.766   4.376  1.00  0.00     0.162 C 
BRANCH  21  22
HETATM   22  C   UNL     1       0.850  -3.227   4.036  1.00  0.00    -0.023 A 
HETATM   23  C   UNL     1       0.143  -3.782   2.974  1.00  0.00     0.125 A 
HETATM   24  N   UNL     1       0.147  -5.101   2.660  1.00  0.00    -0.273 NA
HETATM   25  C   UNL     1       0.895  -5.905   3.446  1.00  0.00     0.116 A 
HETATM   26  C   UNL     1       1.630  -5.459   4.532  1.00  0.00     0.020 A 
HETATM   27  C   UNL     1       1.599  -4.101   4.831  1.00  0.00     0.012 A 
ENDBRANCH  21  22
ENDBRANCH  18  21
ENDBRANCH  16  17
ENDBRANCH   3  16
BRANCH  11  28
HETATM   28  C   UNL     1       2.499   1.668  -2.019  1.00  0.00     0.176 C 
BRANCH  28  29
HETATM   29  O   UNL     1       3.807   1.910  -2.530  1.00  0.00    -0.400 OA
HETATM   30  H   UNL     1       4.222   1.039  -2.667  1.00  0.00     0.209 HD
ENDBRANCH  28  29
ENDBRANCH  11  28
BRANCH   7  31
HETATM   31  N   UNL     1      -0.393  -3.290  -1.433  1.00  0.00    -0.305 N 
HETATM   32  C   UNL     1      -0.829  -3.986  -2.544  1.00  0.00     0.227 C 
HETATM   33  O   UNL     1      -1.342  -3.483  -3.548  1.00  0.00    -0.273 OA
HETATM   34  H   UNL     1      -0.037  -3.791  -0.629  1.00  0.00     0.171 HD
BRANCH  32  35
HETATM   35  C   UNL     1      -0.619  -5.524  -2.440  1.00  0.00     0.078 C 
HETATM   36  C   UNL     1      -1.843  -6.423  -2.774  1.00  0.00     0.014 C 
HETATM   37  C   UNL     1      -0.877  -7.387  -3.484  1.00  0.00     0.002 C 
HETATM   38  C   UNL     1       0.092  -6.203  -3.646  1.00  0.00     0.014 C 
ENDBRANCH  32  35
ENDBRANCH   7  31
BRANCH  13  39
HETATM   39  O   UNL     1       2.011   5.289  -0.966  1.00  0.00    -0.395 OA
HETATM   40  H   UNL     1       2.334   5.709  -1.783  1.00  0.00     0.210 HD
ENDBRANCH  13  39
TORSDOF 9
