REMARK  6 active torsions:
REMARK  status: ('A' for Active; 'I' for Inactive)
REMARK    1  A    between atoms: C_2  and  C_3 
REMARK    2  A    between atoms: C_3  and  N_4 
REMARK       I    between atoms: N_4  and  C_5 
REMARK    3  A    between atoms: C_5  and  C_6 
REMARK    4  A    between atoms: C_8  and  N_9 
REMARK       I    between atoms: N_9  and  C_10 
REMARK    5  A    between atoms: C_10  and  C_11 
REMARK    6  A    between atoms: C_15  and  C_16 
ROOT
HETATM    1  N   UNL     1       0.845   4.972   0.164  1.00  0.00    -0.322 N 
HETATM    2  C   UNL     1       0.102   3.816   0.313  1.00  0.00     0.274 C 
HETATM    3  O   UNL     1       0.560   2.720   0.617  1.00  0.00    -0.266 OA
HETATM    4  H   UNL     1       0.331   5.841   0.129  1.00  0.00     0.169 HD
ENDROOT
BRANCH   1   5
HETATM    5  C   UNL     1       2.252   5.079   0.137  1.00  0.00     0.036 A 
HETATM    6  C   UNL     1       3.103   3.979  -0.005  1.00  0.00     0.046 A 
HETATM    7  C   UNL     1       4.493   4.157  -0.056  1.00  0.00     0.034 A 
HETATM    8  C   UNL     1       5.030   5.447   0.017  1.00  0.00     0.017 A 
HETATM    9  C   UNL     1       4.186   6.548   0.152  1.00  0.00     0.003 A 
HETATM   10  C   UNL     1       2.803   6.364   0.206  1.00  0.00     0.029 A 
BRANCH   7  11
HETATM   11  C   UNL     1       5.427   3.011  -0.252  1.00  0.00     0.251 C 
HETATM   12  N   UNL     1       4.984   1.772   0.163  1.00  0.00    -0.357 N 
HETATM   13  H   UNL     1       4.137   1.698   0.712  1.00  0.00     0.162 HD
HETATM   14  O   UNL     1       6.532   3.202  -0.746  1.00  0.00    -0.268 OA
BRANCH  12  15
HETATM   15  C   UNL     1       5.799   0.584   0.017  1.00  0.00     0.122 C 
BRANCH  15  16
HETATM   16  C   UNL     1       6.844   0.440   1.122  1.00  0.00     0.015 C 
HETATM   17  C   UNL     1       6.221   0.227   2.494  1.00  0.00     0.006 C 
ENDBRANCH  15  16
ENDBRANCH  12  15
ENDBRANCH   7  11
ENDBRANCH   1   5
BRANCH   2  18
HETATM   18  C   UNL     1      -1.314   3.989   0.108  1.00  0.00     0.120 A 
HETATM   19  N   UNL     1      -2.204   2.994   0.403  1.00  0.00    -0.272 N 
HETATM   20  H   UNL     1      -1.988   2.082   0.796  1.00  0.00     0.189 HD
HETATM   21  N   UNL     1      -3.477   3.288   0.110  1.00  0.00    -0.174 NA
HETATM   22  C   UNL     1      -3.431   4.519  -0.424  1.00  0.00     0.089 A 
HETATM   23  C   UNL     1      -2.090   5.003  -0.420  1.00  0.00     0.071 A 
BRANCH  22  24
HETATM   24  C   UNL     1      -4.634   5.177  -0.948  1.00  0.00    -0.006 A 
HETATM   25  C   UNL     1      -5.810   4.441  -1.155  1.00  0.00     0.014 A 
HETATM   26  C   UNL     1      -6.953   5.042  -1.690  1.00  0.00     0.007 A 
HETATM   27  C   UNL     1      -6.946   6.398  -2.028  1.00  0.00    -0.062 A 
HETATM   28  C   UNL     1      -8.162   7.055  -2.609  1.00  0.00     0.048 C 
HETATM   29  C   UNL     1      -5.783   7.144  -1.810  1.00  0.00     0.007 A 
HETATM   30  C   UNL     1      -4.638   6.540  -1.276  1.00  0.00     0.014 A 
ENDBRANCH  22  24
ENDBRANCH   2  18
TORSDOF 6
