REMARK  6 active torsions:
REMARK  status: ('A' for Active; 'I' for Inactive)
REMARK    1  A    between atoms: C_3  and  C_4 
REMARK    2  A    between atoms: C_4  and  O_5 
REMARK    3  A    between atoms: O_5  and  C_6 
REMARK    4  A    between atoms: C_9  and  C_10 
REMARK    5  A    between atoms: C_15  and  N_16 
REMARK       I    between atoms: N_16  and  C_17 
REMARK       I    between atoms: C_17  and  N_18 
REMARK    6  A    between atoms: N_18  and  C_19 
ROOT
HETATM    1  C   UNL     1       4.375   7.381   3.390  1.00  0.00     0.147 C 
HETATM    2  C   UNL     1       5.673   6.983   4.074  1.00  0.00    -0.016 C 
HETATM    3  N   UNL     1       6.749   6.653   4.641  1.00  0.00    -0.101 N 
ENDROOT
BRANCH   1   4
HETATM    4  C   UNL     1       3.670   6.173   2.821  1.00  0.00    -0.046 A 
HETATM    5  C   UNL     1       2.740   5.460   3.594  1.00  0.00     0.011 A 
HETATM    6  C   UNL     1       2.142   4.303   3.092  1.00  0.00     0.037 A 
HETATM    7  C   UNL     1       2.458   3.860   1.812  1.00  0.00     0.069 A 
HETATM    8  C   UNL     1       3.398   4.540   1.040  1.00  0.00     0.037 A 
HETATM    9  C   UNL     1       3.997   5.698   1.541  1.00  0.00     0.011 A 
BRANCH   7  10
HETATM   10  O   UNL     1       1.900   2.687   1.381  1.00  0.00    -0.347 OA
BRANCH  10  11
HETATM   11  C   UNL     1       0.984   2.913   0.303  1.00  0.00     0.216 C 
BRANCH  11  12
HETATM   12  C   UNL     1       0.533   1.582  -0.265  1.00  0.00    -0.007 A 
HETATM   13  C   UNL     1      -0.844   1.354  -0.442  1.00  0.00     0.011 A 
HETATM   14  C   UNL     1      -1.303   0.180  -1.037  1.00  0.00     0.001 A 
HETATM   15  C   UNL     1      -0.394  -0.783  -1.464  1.00  0.00     0.002 A 
HETATM   16  C   UNL     1       0.976  -0.568  -1.307  1.00  0.00     0.030 A 
HETATM   17  C   UNL     1       1.450   0.615  -0.725  1.00  0.00     0.044 A 
BRANCH  17  18
HETATM   18  N   UNL     1       2.825   0.833  -0.519  1.00  0.00    -0.308 N 
HETATM   19  C   UNL     1       3.926   0.389  -1.202  1.00  0.00     0.325 C 
HETATM   20  N   UNL     1       3.706  -0.012  -2.494  1.00  0.00    -0.306 N 
HETATM   21  O   UNL     1       5.030   0.479  -0.669  1.00  0.00    -0.247 OA
HETATM   22  H   UNL     1       2.791   0.157  -2.884  1.00  0.00     0.171 HD
HETATM   23  H   UNL     1       3.072   1.390   0.296  1.00  0.00     0.170 HD
BRANCH  20  24
HETATM   24  C   UNL     1       4.699  -0.394  -3.373  1.00  0.00     0.072 A 
HETATM   25  C   UNL     1       6.081  -0.617  -3.189  1.00  0.00     0.169 A 
HETATM   26  N   UNL     1       6.695  -0.962  -4.327  1.00  0.00    -0.185 NA
HETATM   27  N   UNL     1       5.706  -0.956  -5.233  1.00  0.00    -0.287 N 
HETATM   28  H   UNL     1       5.938  -1.180  -6.195  1.00  0.00     0.188 HD
HETATM   29  C   UNL     1       4.487  -0.632  -4.710  1.00  0.00     0.140 A 
ENDBRANCH  20  24
ENDBRANCH  17  18
ENDBRANCH  11  12
ENDBRANCH  10  11
ENDBRANCH   7  10
ENDBRANCH   1   4
TORSDOF 6
