REMARK  11 active torsions:
REMARK  status: ('A' for Active; 'I' for Inactive)
REMARK    1  A    between atoms: C_1  and  C_17 
REMARK    2  A    between atoms: C_1  and  S_18 
REMARK    3  A    between atoms: C_2  and  N_23 
REMARK    4  A    between atoms: C_3  and  C_13 
REMARK    5  A    between atoms: C_6  and  S_18 
REMARK    6  A    between atoms: C_6  and  S_19 
REMARK    7  A    between atoms: C_7  and  C_20 
REMARK    8  A    between atoms: C_7  and  C_21 
REMARK    9  A    between atoms: C_9  and  C_24 
REMARK   10  A    between atoms: C_16  and  C_17 
REMARK   11  A    between atoms: S_19  and  C_20 
ROOT
HETATM    1  C           1      -2.029  -1.676  -0.369  0.00  0.00     0.092 C 
HETATM    2  C           1       0.205  -0.804  -0.145  0.00  0.00     0.156 C 
HETATM    3  C           1      -2.118  -0.180  -0.483  0.00  0.00     0.127 C 
HETATM    4  C           1      -0.844   0.298   0.247  0.00  0.00     0.136 C 
HETATM    5  C           1      -1.006   0.293   1.729  0.00  0.00     0.079 C 
HETATM    6  N           1      -1.198   0.365   2.871  0.00  0.00    -0.196 NA
HETATM    7  C           1      -3.347   0.757  -0.128  0.00  0.00     0.248 C 
HETATM    8  C           1      -1.697   2.598  -0.473  0.00  0.00     0.105 C 
HETATM    9  N           1      -0.770  -1.999  -0.222  0.00  0.00    -0.350 N 
HETATM   10  N           1      -3.091   2.213  -0.642  0.00  0.00    -0.040 N 
HETATM   11  C           1      -1.416   4.053  -0.763  0.00  0.00     0.075 C 
HETATM   12  C           1      -0.690   1.764  -0.117  0.00  0.00     0.036 C 
HETATM   13  H           1      -0.456  -2.976  -0.154  0.00  0.00     0.163 HD
HETATM   14  H           1      -3.399   2.327  -1.631  0.00  0.00     0.284 HD
HETATM   15  H           1      -3.680   2.859  -0.069  0.00  0.00     0.284 HD
ENDROOT
BRANCH   2  16
HETATM   16  S           1       1.423  -1.160   1.164  0.00  0.00    -0.125 SA
BRANCH  16  17
HETATM   17  C           1       2.510   0.296   1.110  0.00  0.00     0.077 C 
BRANCH  17  18
HETATM   18  C           1       3.626   0.123   2.153  0.00  0.00     0.010 C 
BRANCH  18  19
HETATM   19  C           1       4.576   1.332   2.170  0.00  0.00    -0.004 C 
HETATM   20  C           1       5.693   1.167   3.210  0.00  0.00     0.005 C 
ENDBRANCH  18  19
ENDBRANCH  17  18
ENDBRANCH  16  17
ENDBRANCH   2  16
BRANCH   2  21
HETATM   21  S           1       0.894  -0.470  -1.802  0.00  0.00    -0.125 SA
BRANCH  21  22
HETATM   22  C           1       1.676  -2.073  -2.168  0.00  0.00     0.077 C 
BRANCH  22  23
HETATM   23  C           1       2.396  -1.973  -3.523  0.00  0.00     0.010 C 
BRANCH  23  24
HETATM   24  C           1       3.078  -3.298  -3.901  0.00  0.00    -0.004 C 
HETATM   25  C           1       3.797  -3.206  -5.254  0.00  0.00     0.005 C 
ENDBRANCH  23  24
ENDBRANCH  22  23
ENDBRANCH  21  22
ENDBRANCH   2  21
BRANCH   3  26
HETATM   26  C           1      -2.094   0.198  -1.926  0.00  0.00     0.105 C 
HETATM   27  N           1      -2.403   1.116  -2.562  0.00  0.00    -0.151 N 
ENDBRANCH   3  26
BRANCH   1  28
HETATM   28  N           1      -2.986  -2.497  -0.486  0.00  0.00    -0.388 N 
HETATM   29  H           1      -3.961  -2.162  -0.681  0.00  0.00     0.157 HD
HETATM   30  H           1      -2.820  -3.529  -0.384  0.00  0.00     0.157 HD
ENDBRANCH   1  28
BRANCH   7  31
HETATM   31  C           1      -3.802   0.751   1.324  0.00  0.00    -0.026 A 
HETATM   32  C           1      -4.357  -0.361   1.842  0.00  0.00     0.009 A 
HETATM   33  C           1      -4.781  -0.411   3.115  0.00  0.00     0.001 A 
HETATM   34  C           1      -4.662   0.667   3.902  0.00  0.00     0.000 A 
HETATM   35  C           1      -4.121   1.788   3.404  0.00  0.00     0.001 A 
HETATM   36  C           1      -3.699   1.825   2.130  0.00  0.00     0.009 A 
ENDBRANCH   7  31
TORSDOF 11
