REMARK  7 active torsions:
REMARK  status: ('A' for Active; 'I' for Inactive)
REMARK    1  A    between atoms: C_8  and  C_9 
REMARK    2  A    between atoms: C_9  and  N_10 
REMARK    3  A    between atoms: C_14  and  C_15 
REMARK    4  A    between atoms: C_15  and  C_16 
REMARK    5  A    between atoms: C_16  and  C_17 
REMARK    6  A    between atoms: N_27  and  C_28 
REMARK    7  A    between atoms: C_28  and  C_29 
ROOT
HETATM    1  C   UNL     1      -0.489  -2.355   3.628  1.00  0.00     0.123 A 
HETATM    2  N   UNL     1      -0.422  -1.328   4.657  1.00  0.00    -0.324 N 
HETATM    3  C   UNL     1      -0.557  -1.814   5.935  1.00  0.00     0.326 A 
HETATM    4  O   UNL     1      -0.531  -1.122   6.934  1.00  0.00    -0.247 OA
HETATM    5  N   UNL     1      -0.674  -3.167   5.862  1.00  0.00    -0.268 N 
HETATM    6  C   UNL     1      -0.657  -3.574   4.560  1.00  0.00     0.257 A 
HETATM    7  O   UNL     1      -0.705  -4.736   4.179  1.00  0.00    -0.270 OA
HETATM    8  H   UNL     1      -0.392  -0.326   4.493  1.00  0.00     0.165 HD
ENDROOT
BRANCH   1   9
HETATM    9  C   UNL     1       0.845  -2.359   2.800  1.00  0.00     0.027 C 
HETATM   10  C   UNL     1       0.960  -3.357   1.635  1.00  0.00     0.035 C 
HETATM   11  C   UNL     1       1.324  -4.789   2.004  1.00  0.00     0.235 C 
HETATM   12  N   UNL     1       2.469  -4.864   2.981  1.00  0.00    -0.067 N 
HETATM   13  H   UNL     1       3.333  -4.707   2.442  1.00  0.00     0.280 HD
HETATM   14  C   UNL     1       2.469  -3.868   4.108  1.00  0.00     0.235 C 
HETATM   15  C   UNL     1       2.144  -2.466   3.625  1.00  0.00     0.035 C 
BRANCH  12  16
HETATM   16  C   UNL     1       2.594  -6.268   3.564  1.00  0.00     0.278 C 
BRANCH  16  17
HETATM   17  C   UNL     1       2.968  -7.303   2.580  1.00  0.00     0.034 A 
HETATM   18  C   UNL     1       2.170  -8.361   2.057  1.00  0.00     0.062 A 
HETATM   19  C   UNL     1       0.746  -8.683   2.340  1.00  0.00     0.073 C 
HETATM   20  N   UNL     1       2.855  -9.116   1.191  1.00  0.00    -0.176 NA
HETATM   21  N   UNL     1       4.099  -8.599   1.191  1.00  0.00    -0.262 N 
HETATM   22  C   UNL     1       5.140  -9.245   0.425  1.00  0.00     0.181 C 
HETATM   23  C   UNL     1       4.188  -7.492   1.978  1.00  0.00     0.131 A 
HETATM   24 CL   UNL     1       5.635  -6.608   2.112  1.00  0.00    -0.062 Cl
ENDBRANCH  16  17
ENDBRANCH  12  16
ENDBRANCH   1   9
BRANCH   1  25
HETATM   25  C   UNL     1      -1.795  -2.230   2.801  1.00  0.00     0.080 C 
BRANCH  25  26
HETATM   26  C   UNL     1      -2.013  -0.882   2.150  1.00  0.00    -0.052 A 
HETATM   27  C   UNL     1      -1.543  -0.612   0.859  1.00  0.00     0.049 A 
HETATM   28  C   UNL     1      -1.745   0.644   0.291  1.00  0.00     0.116 A 
HETATM   29  F   UNL     1      -1.276   0.886  -0.940  1.00  0.00    -0.206 F 
HETATM   30  C   UNL     1      -2.418   1.645   0.979  1.00  0.00     0.042 A 
HETATM   31  C   UNL     1      -2.902   1.385   2.258  1.00  0.00     0.003 A 
HETATM   32  C   UNL     1      -2.702   0.130   2.840  1.00  0.00     0.007 A 
ENDBRANCH  25  26
ENDBRANCH   1  25
BRANCH   5  33
HETATM   33  C   UNL     1      -0.760  -4.046   7.013  1.00  0.00     0.140 C 
BRANCH  33  34
HETATM   34  C   UNL     1      -2.153  -4.082   7.661  1.00  0.00    -0.004 C 
HETATM   35  C   UNL     1      -3.221  -4.607   6.701  1.00  0.00     0.011 C 
HETATM   36  C   UNL     1      -2.107  -4.956   8.917  1.00  0.00     0.011 C 
ENDBRANCH  33  34
ENDBRANCH   5  33
TORSDOF 7
