REMARK  5 active torsions:
REMARK  status: ('A' for Active; 'I' for Inactive)
REMARK    1  A    between atoms: C_2  and  O_3 
REMARK    2  A    between atoms: C_2  and  C_5 
REMARK    3  A    between atoms: C_7  and  N_8 
REMARK    4  A    between atoms: N_8  and  C_9 
REMARK    5  A    between atoms: C_9  and  C_10 
ROOT
HETATM    1  N   UNL     1       3.871   2.876   3.869  1.00  0.00    -0.289 NA
HETATM    2  H   UNL     1       3.175   3.471   3.421  1.00  0.00     0.128 HD
ENDROOT
BRANCH   1   3
HETATM    3  C   UNL     1       3.745   1.556   3.400  1.00  0.00     0.009 A 
HETATM    4  C   UNL     1       3.217   1.351   2.114  1.00  0.00     0.033 A 
HETATM    5  C   UNL     1       3.119   0.068   1.540  1.00  0.00    -0.028 A 
HETATM    6  C   UNL     1       3.569  -1.027   2.285  1.00  0.00     0.010 A 
HETATM    7  C   UNL     1       4.153  -0.837   3.537  1.00  0.00     0.002 A 
HETATM    8  C   UNL     1       4.259   0.447   4.077  1.00  0.00     0.023 A 
BRANCH   5   9
HETATM    9  C   UNL     1       2.496  -0.087   0.165  1.00  0.00     0.149 C 
HETATM   10  C   UNL     1       3.205  -1.117  -0.716  1.00  0.00     0.045 C 
BRANCH   9  11
HETATM   11  O   UNL     1       1.129  -0.454   0.369  1.00  0.00    -0.386 OA
HETATM   12  C   UNL     1       0.287  -0.127  -0.727  1.00  0.00     0.202 C 
ENDBRANCH   9  11
ENDBRANCH   5   9
ENDBRANCH   1   3
BRANCH   1  13
HETATM   13  C   UNL     1       3.870   3.105   5.320  1.00  0.00     0.133 C 
BRANCH  13  14
HETATM   14  C   UNL     1       5.256   3.307   5.894  1.00  0.00    -0.016 A 
HETATM   15  C   UNL     1       6.445   3.406   5.151  1.00  0.00     0.069 A 
HETATM   16  C   UNL     1       7.696   3.639   5.708  1.00  0.00     0.012 A 
HETATM   17  N   UNL     1       6.672   3.302   3.801  1.00  0.00    -0.277 N 
HETATM   18  C   UNL     1       8.577   3.672   4.604  1.00  0.00     0.152 A 
HETATM   19  C   UNL     1       7.813   3.782   7.100  1.00  0.00     0.015 A 
HETATM   20  N   UNL     1       7.957   3.475   3.438  1.00  0.00    -0.186 NA
HETATM   21  C   UNL     1       6.657   3.687   7.880  1.00  0.00     0.002 A 
HETATM   22  C   UNL     1       5.412   3.458   7.289  1.00  0.00     0.011 A 
HETATM   23  H   UNL     1       5.968   3.106   3.095  1.00  0.00     0.189 HD
ENDBRANCH  13  14
ENDBRANCH   1  13
TORSDOF 5
