REMARK  5 active torsions:
REMARK  status: ('A' for Active; 'I' for Inactive)
REMARK    1  A    between atoms: C_2  and  C_3 
REMARK    2  A    between atoms: C_7  and  N_8 
REMARK    3  A    between atoms: C_13  and  N_14 
REMARK       I    between atoms: N_14  and  C_15 
REMARK    4  A    between atoms: C_15  and  C_16 
REMARK       I    between atoms: C_16  and  N_17 
REMARK    5  A    between atoms: N_17  and  C_18 
ROOT
HETATM    1  N   UNL     1      -1.194  -6.648  -0.490  1.00  0.00    -0.045 N 
HETATM    2  N   UNL     1      -2.290  -5.853  -0.653  1.00  0.00    -0.156 NA
HETATM    3  C   UNL     1      -2.169  -5.375  -1.896  1.00  0.00     0.055 A 
HETATM    4  C   UNL     1      -3.183  -4.445  -2.454  1.00  0.00     0.072 C 
HETATM    5  C   UNL     1      -1.008  -5.864  -2.537  1.00  0.00     0.079 A 
HETATM    6  C   UNL     1      -0.389  -6.680  -1.618  1.00  0.00     0.152 A 
ENDROOT
BRANCH   6   7
HETATM    7  N   UNL     1       0.800  -7.394  -1.750  1.00  0.00    -0.303 N 
HETATM    8  C   UNL     1       1.574  -7.449  -2.952  1.00  0.00     0.315 C 
HETATM    9  O   UNL     1       1.228  -6.921  -3.997  1.00  0.00    -0.262 OA
HETATM   10  H   UNL     1       1.146  -7.915  -0.936  1.00  0.00     0.171 HD
BRANCH   8  11
HETATM   11  C   UNL     1       2.899  -8.227  -2.853  1.00  0.00     0.310 C 
HETATM   12  N   UNL     1       3.625  -8.243  -4.026  1.00  0.00    -0.348 N 
HETATM   13  H   UNL     1       3.190  -7.828  -4.847  1.00  0.00     0.163 HD
HETATM   14  O   UNL     1       3.205  -8.741  -1.787  1.00  0.00    -0.262 OA
BRANCH  12  15
HETATM   15  C   UNL     1       4.911  -8.912  -4.187  1.00  0.00     0.085 C 
HETATM   16  C   UNL     1       5.655  -8.285  -5.376  1.00  0.00     0.034 C 
HETATM   17  C   UNL     1       6.992  -8.975  -5.720  1.00  0.00    -0.045 C 
HETATM   18  C   UNL     1       8.049  -8.677  -4.640  1.00  0.00     0.015 C 
HETATM   19  C   UNL     1       7.511  -8.414  -7.058  1.00  0.00     0.015 C 
HETATM   20  C   UNL     1       6.773 -10.498  -5.868  1.00  0.00     0.013 C 
HETATM   21  C   UNL     1       6.051 -11.133  -4.670  1.00  0.00    -0.016 C 
HETATM   22  C   UNL     1       5.818 -12.623  -4.919  1.00  0.00     0.010 C 
HETATM   23  C   UNL     1       4.721 -10.419  -4.389  1.00  0.00     0.029 C 
ENDBRANCH  12  15
ENDBRANCH   8  11
ENDBRANCH   6   7
BRANCH   1  24
HETATM   24  C   UNL     1      -0.992  -7.328   0.719  1.00  0.00     0.732 A 
HETATM   25  N   UNL     1      -1.997  -7.088   1.606  1.00  0.00    -0.152 N 
HETATM   26  C   UNL     1      -2.011  -7.665   2.834  1.00  0.00     0.268 A 
HETATM   27  H   UNL     1      -2.767  -6.478   1.349  1.00  0.00     0.188 HD
HETATM   28  C   UNL     1      -0.850  -8.551   3.135  1.00  0.00     0.035 A 
HETATM   29  O   UNL     1      -2.920  -7.468   3.630  1.00  0.00    -0.267 OA
HETATM   30  C   UNL     1       0.091  -8.699   2.174  1.00  0.00     0.061 A 
HETATM   31  N   UNL     1       0.033  -8.088   0.932  1.00  0.00    -0.067 NA
HETATM   32  C   UNL     1       1.304  -9.579   2.347  1.00  0.00     0.072 C 
BRANCH  28  33
HETATM   33  C   UNL     1      -0.837  -9.156   4.515  1.00  0.00     0.042 C 
HETATM   34  C   UNL     1      -1.662 -10.434   4.585  1.00  0.00     0.010 C 
ENDBRANCH  28  33
ENDBRANCH   1  24
TORSDOF 5
