REMARK  6 active torsions:
REMARK  status: ('A' for Active; 'I' for Inactive)
REMARK    1  A    between atoms: C_9  and  C_10 
REMARK    2  A    between atoms: C_10  and  S_11 
REMARK    3  A    between atoms: S_11  and  C_12 
REMARK    4  A    between atoms: C_12  and  C_13 
REMARK       I    between atoms: C_13  and  N_14 
REMARK    5  A    between atoms: N_14  and  N_15 
REMARK       I    between atoms: N_15  and  C_16 
REMARK    6  A    between atoms: C_16  and  C_17 
ROOT
HETATM    1  C   UNL     1      12.178  -1.112  -0.010  1.00  0.00     0.245 C 
HETATM    2  N   UNL     1      12.034   0.206   0.371  1.00  0.00    -0.267 N 
HETATM    3  O   UNL     1      13.279  -1.607  -0.260  1.00  0.00    -0.271 OA
HETATM    4  H   UNL     1      11.115   0.654   0.323  1.00  0.00     0.190 HD
ENDROOT
BRANCH   1   5
HETATM    5  C   UNL     1      10.907  -1.944   0.027  1.00  0.00     0.178 C 
BRANCH   5   6
HETATM    6  S   UNL     1       9.440  -0.990  -0.476  1.00  0.00    -0.154 SA
BRANCH   6   7
HETATM    7  C   UNL     1       8.165  -2.235  -0.089  1.00  0.00     0.135 C 
BRANCH   7   8
HETATM    8  C   UNL     1       6.809  -1.621  -0.118  1.00  0.00     0.062 A 
HETATM    9  C   UNL     1       6.061  -1.212  -1.206  1.00  0.00     0.126 A 
HETATM   10  N   UNL     1       4.910  -0.676  -0.687  1.00  0.00    -0.315 N 
HETATM   11  C   UNL     1       3.831  -0.091  -1.344  1.00  0.00     0.105 A 
HETATM   12  C   UNL     1       4.994  -0.807   0.693  1.00  0.00     0.134 A 
HETATM   13  C   UNL     1       2.795   0.384  -0.625  1.00  0.00    -0.046 A 
HETATM   14  C   UNL     1       1.593   1.039  -1.228  1.00  0.00     0.049 C 
HETATM   15  C   UNL     1       2.851   0.257   0.833  1.00  0.00     0.012 A 
HETATM   16  C   UNL     1       3.901  -0.312   1.457  1.00  0.00     0.051 A 
HETATM   17  N   UNL     1       6.122  -1.383   1.054  1.00  0.00    -0.233 NA
ENDBRANCH   7   8
ENDBRANCH   6   7
ENDBRANCH   5   6
ENDBRANCH   1   5
BRANCH   2  18
HETATM   18  N   UNL     1      13.147   1.048   0.271  1.00  0.00    -0.262 N 
HETATM   19  C   UNL     1      12.955   2.412   0.227  1.00  0.00     0.286 C 
HETATM   20  O   UNL     1      11.834   2.916   0.281  1.00  0.00    -0.264 OA
HETATM   21  H   UNL     1      14.051   0.600   0.148  1.00  0.00     0.190 HD
BRANCH  19  22
HETATM   22  C   UNL     1      14.156   3.211   0.119  1.00  0.00     0.103 A 
HETATM   23  N   UNL     1      14.094   4.591   0.067  1.00  0.00    -0.360 N 
HETATM   24  H   UNL     1      13.225   5.113   0.097  1.00  0.00     0.165 HD
HETATM   25  C   UNL     1      15.352   5.124  -0.015  1.00  0.00     0.107 A 
HETATM   26  C   UNL     1      16.232   4.074  -0.021  1.00  0.00     0.028 A 
HETATM   27 BR   UNL     1      18.099   4.170  -0.112  1.00  0.00    -0.050 Br
HETATM   28  C   UNL     1      15.501   2.872   0.059  1.00  0.00     0.055 A 
ENDBRANCH  19  22
ENDBRANCH   2  18
TORSDOF 6
