REMARK  11 active torsions:
REMARK  status: ('A' for Active; 'I' for Inactive)
REMARK    1  A    between atoms: C_8  and  C_9 
REMARK    2  A    between atoms: C_9  and  C_10 
REMARK    3  A    between atoms: N_14  and  C_15 
REMARK    4  A    between atoms: C_15  and  C_16 
REMARK    5  A    between atoms: C_16  and  C_17 
REMARK    6  A    between atoms: C_20  and  O_21 
REMARK    7  A    between atoms: C_27  and  N_28 
REMARK    8  A    between atoms: N_28  and  C_29 
REMARK    9  A    between atoms: C_29  and  C_30 
REMARK   10  A    between atoms: C_30  and  O_31 
REMARK   11  A    between atoms: C_30  and  C_32 
ROOT
HETATM    1  C   UNL     1      -1.310 -12.896   3.205  1.00  0.00     0.052 C 
HETATM    2  C   UNL     1      -2.240 -11.747   3.439  1.00  0.00    -0.015 A 
HETATM    3  C   UNL     1      -1.776 -10.377   3.020  1.00  0.00     0.144 A 
HETATM    4  N   UNL     1      -0.591 -10.236   2.520  1.00  0.00    -0.217 NA
HETATM    5  N   UNL     1      -2.665  -9.331   3.193  1.00  0.00    -0.272 N 
HETATM    6  C   UNL     1      -2.319  -8.064   2.756  1.00  0.00     0.266 C 
HETATM    7  O   UNL     1      -3.100  -7.108   2.728  1.00  0.00    -0.267 OA
HETATM    8  C   UNL     1      -0.911  -7.887   2.281  1.00  0.00     0.074 C 
HETATM    9  C   UNL     1      -0.141  -8.992   2.170  1.00  0.00     0.121 C 
HETATM   10  C   UNL     1      -3.915  -9.533   3.764  1.00  0.00     0.102 A 
HETATM   11  C   UNL     1      -4.316 -10.742   4.173  1.00  0.00     0.018 A 
HETATM   12  C   UNL     1      -3.454 -11.879   3.996  1.00  0.00     0.012 A 
ENDROOT
BRANCH   8  13
HETATM   13  C   UNL     1      -0.442  -6.535   2.008  1.00  0.00     0.045 C 
BRANCH  13  14
HETATM   14  C   UNL     1      -0.271  -5.564   2.916  1.00  0.00     0.077 A 
HETATM   15  S   UNL     1      -0.533  -5.654   4.607  1.00  0.00    -0.055 SA
HETATM   16  C   UNL     1      -0.135  -3.961   4.847  1.00  0.00     0.148 A 
HETATM   17  S   UNL     1      -0.241  -3.243   6.353  1.00  0.00    -0.052 SA
HETATM   18  N   UNL     1       0.260  -3.382   3.649  1.00  0.00    -0.298 N 
HETATM   19  C   UNL     1       0.190  -4.201   2.534  1.00  0.00     0.266 A 
HETATM   20  O   UNL     1       0.454  -3.902   1.378  1.00  0.00    -0.266 OA
BRANCH  18  21
HETATM   21  C   UNL     1       0.710  -1.979   3.598  1.00  0.00     0.138 C 
BRANCH  21  22
HETATM   22  C   UNL     1       1.226  -1.413   2.269  1.00  0.00     0.059 C 
BRANCH  22  23
HETATM   23  C   UNL     1       1.769   0.004   2.302  1.00  0.00    -0.057 A 
HETATM   24  C   UNL     1       1.966   0.742   3.474  1.00  0.00     0.010 A 
HETATM   25  C   UNL     1       2.520   2.026   3.422  1.00  0.00     0.037 A 
HETATM   26  C   UNL     1       2.890   2.599   2.206  1.00  0.00     0.068 A 
HETATM   27  C   UNL     1       2.683   1.882   1.031  1.00  0.00     0.037 A 
HETATM   28  C   UNL     1       2.130   0.597   1.080  1.00  0.00     0.010 A 
BRANCH  26  29
HETATM   29  O   UNL     1       3.434   3.850   2.303  1.00  0.00    -0.356 OA
HETATM   30  C   UNL     1       3.980   4.404   1.113  1.00  0.00     0.210 C 
ENDBRANCH  26  29
ENDBRANCH  22  23
ENDBRANCH  21  22
ENDBRANCH  18  21
ENDBRANCH  13  14
ENDBRANCH   8  13
BRANCH   9  31
HETATM   31  N   UNL     1       1.188  -8.957   1.754  1.00  0.00    -0.274 NA
HETATM   32  H   UNL     1       1.540  -9.905   1.938  1.00  0.00     0.129 HD
BRANCH  31  33
HETATM   33  C   UNL     1       1.559  -8.649   0.361  1.00  0.00     0.130 C 
BRANCH  33  34
HETATM   34  C   UNL     1       2.982  -9.163   0.029  1.00  0.00     0.164 C 
BRANCH  34  35
HETATM   35  O   UNL     1       3.117 -10.530   0.447  1.00  0.00    -0.390 OA
HETATM   36  H   UNL     1       4.057 -10.672   0.654  1.00  0.00     0.210 HD
ENDBRANCH  34  35
BRANCH  34  37
HETATM   37  C   UNL     1       4.106  -8.324   0.606  1.00  0.00    -0.029 A 
HETATM   38  C   UNL     1       4.934  -7.577  -0.245  1.00  0.00     0.010 A 
HETATM   39  C   UNL     1       5.980  -6.810   0.272  1.00  0.00     0.001 A 
HETATM   40  C   UNL     1       6.213  -6.782   1.645  1.00  0.00     0.000 A 
HETATM   41  C   UNL     1       5.400  -7.518   2.503  1.00  0.00     0.001 A 
HETATM   42  C   UNL     1       4.353  -8.284   1.987  1.00  0.00     0.010 A 
ENDBRANCH  34  37
ENDBRANCH  33  34
ENDBRANCH  31  33
ENDBRANCH   9  31
TORSDOF 11
