REMARK  8 active torsions:
REMARK  status: ('A' for Active; 'I' for Inactive)
REMARK    1  A    between atoms: C_2  and  O_3 
REMARK    2  A    between atoms: O_3  and  C_4 
REMARK    3  A    between atoms: C_4  and  C_5 
REMARK    4  A    between atoms: C_6  and  C_7 
REMARK    5  A    between atoms: C_7  and  N_8 
REMARK    6  A    between atoms: C_12  and  N_13 
REMARK    7  A    between atoms: C_12  and  C_20 
REMARK       I    between atoms: C_20  and  N_21 
REMARK    8  A    between atoms: N_25  and  C_26 
ROOT
HETATM    1  N   UNL     1       7.526   1.903   2.164  1.00  0.00    -0.066 N 
HETATM    2  H   UNL     1       8.480   1.794   1.764  1.00  0.00     0.280 HD
HETATM    3  C   UNL     1       7.478   3.139   3.008  1.00  0.00     0.238 C 
HETATM    4  C   UNL     1       8.515   3.032   4.129  1.00  0.00     0.077 C 
HETATM    5  C   UNL     1       8.315   1.775   5.004  1.00  0.00     0.210 C 
HETATM    6  C   UNL     1       8.291   0.536   4.065  1.00  0.00     0.077 C 
HETATM    7  C   UNL     1       7.251   0.656   2.952  1.00  0.00     0.238 C 
ENDROOT
BRANCH   1   8
HETATM    8  C   UNL     1       6.639   1.986   0.921  1.00  0.00     0.294 C 
BRANCH   8   9
HETATM    9  C   UNL     1       7.097   2.974  -0.093  1.00  0.00     0.080 C 
HETATM   10  C   UNL     1       8.374   3.329  -0.538  1.00  0.00     0.085 C 
HETATM   11  C   UNL     1       8.158   4.434  -1.379  1.00  0.00     0.159 C 
HETATM   12  N   UNL     1       6.878   4.783  -1.424  1.00  0.00    -0.178 NA
HETATM   13  N   UNL     1       6.212   3.777  -0.818  1.00  0.00    -0.235 N 
BRANCH  10  14
HETATM   14  C   UNL     1       9.645   2.753  -0.142  1.00  0.00     0.296 C 
HETATM   15  O   UNL     1       9.713   1.940   0.778  1.00  0.00    -0.259 OA
BRANCH  14  16
HETATM   16  O   UNL     1      10.698   3.264  -0.822  1.00  0.00    -0.318 OA
BRANCH  16  17
HETATM   17  C   UNL     1      12.000   2.764  -0.476  1.00  0.00     0.174 C 
HETATM   18  C   UNL     1      12.528   3.471   0.760  1.00  0.00     0.034 C 
ENDBRANCH  16  17
ENDBRANCH  14  16
ENDBRANCH  10  14
BRANCH  13  19
HETATM   19  C   UNL     1       4.790   3.765  -0.841  1.00  0.00     0.064 A 
HETATM   20  C   UNL     1       4.025   2.589  -0.975  1.00  0.00    -0.033 A 
HETATM   21  C   UNL     1       4.566   1.237  -1.348  1.00  0.00     0.050 C 
HETATM   22  C   UNL     1       2.622   2.693  -0.881  1.00  0.00     0.009 A 
HETATM   23  C   UNL     1       1.995   3.930  -0.730  1.00  0.00     0.001 A 
HETATM   24  C   UNL     1       2.755   5.092  -0.686  1.00  0.00     0.002 A 
HETATM   25  C   UNL     1       4.145   5.013  -0.749  1.00  0.00     0.032 A 
ENDBRANCH  13  19
ENDBRANCH   8   9
ENDBRANCH   1   8
BRANCH   5  26
HETATM   26  N   UNL     1       9.569   1.597   5.983  1.00  0.00    -0.053 N 
HETATM   27  H   UNL     1      10.388   1.403   5.390  1.00  0.00     0.281 HD
HETATM   28  C   UNL     1       9.935   2.819   6.818  1.00  0.00     0.236 C 
HETATM   29  C   UNL     1      11.260   2.584   7.532  1.00  0.00     0.028 C 
HETATM   30  C   UNL     1      11.213   1.348   8.418  1.00  0.00     0.003 C 
HETATM   31  C   UNL     1      10.761   0.132   7.624  1.00  0.00     0.028 C 
HETATM   32  C   UNL     1       9.435   0.380   6.916  1.00  0.00     0.236 C 
ENDBRANCH   5  26
BRANCH   5  33
HETATM   33  C   UNL     1       6.980   1.838   5.805  1.00  0.00     0.252 C 
HETATM   34  N   UNL     1       6.669   2.969   6.490  1.00  0.00    -0.368 N 
HETATM   35  H   UNL     1       7.192   3.834   6.550  1.00  0.00     0.159 HD
HETATM   36  H   UNL     1       5.800   2.956   7.025  1.00  0.00     0.159 HD
HETATM   37  O   UNL     1       6.228   0.869   5.858  1.00  0.00    -0.271 OA
ENDBRANCH   5  33
TORSDOF 8
