REMARK  5 active torsions:
REMARK  status: ('A' for Active; 'I' for Inactive)
REMARK    1  A    between atoms: C_2  and  C_3 
REMARK    2  A    between atoms: C_14  and  C_17 
REMARK       I    between atoms: C_17  and  N_19 
REMARK    3  A    between atoms: N_19  and  C_20 
REMARK    4  A    between atoms: C_20  and  C_22 
REMARK    5  A    between atoms: C_26  and  O_27 
ROOT
HETATM    1  C   UNL     1       2.238   1.546  -3.538  1.00  0.00     0.162 C 
HETATM    2  O   UNL     1       2.936   2.072  -2.394  1.00  0.00    -0.339 OA
HETATM    3  C   UNL     1       2.236   2.963  -1.629  1.00  0.00     0.098 A 
HETATM    4  C   UNL     1       2.970   3.857  -0.861  1.00  0.00     0.153 A 
HETATM    5  N   UNL     1       2.418   4.793  -0.057  1.00  0.00    -0.270 NA
HETATM    6  C   UNL     1       1.072   4.823  -0.016  1.00  0.00     0.117 A 
HETATM    7  C   UNL     1       0.255   3.957  -0.731  1.00  0.00     0.034 A 
HETATM    8  C   UNL     1       0.838   2.986  -1.556  1.00  0.00     0.011 A 
HETATM    9  C   UNL     1       0.074   2.000  -2.333  1.00  0.00    -0.014 A 
HETATM   10  C   UNL     1      -1.291   1.737  -2.152  1.00  0.00     0.014 A 
HETATM   11  C   UNL     1      -1.954   0.786  -2.939  1.00  0.00     0.018 A 
HETATM   12  C   UNL     1      -1.273   0.068  -3.928  1.00  0.00     0.032 A 
HETATM   13  C   UNL     1       0.093   0.310  -4.104  1.00  0.00     0.027 A 
HETATM   14  C   UNL     1       0.763   1.264  -3.310  1.00  0.00    -0.017 A 
ENDROOT
BRANCH  12  15
HETATM   15  C   UNL     1      -2.062  -0.897  -4.758  1.00  0.00     0.252 C 
HETATM   16  O   UNL     1      -3.263  -1.040  -4.553  1.00  0.00    -0.268 OA
HETATM   17  N   UNL     1      -1.398  -1.580  -5.752  1.00  0.00    -0.349 N 
HETATM   18  H   UNL     1      -0.406  -1.482  -5.890  1.00  0.00     0.163 HD
BRANCH  17  19
HETATM   19  C   UNL     1      -2.089  -2.474  -6.670  1.00  0.00     0.114 C 
HETATM   20  C   UNL     1      -2.305  -3.847  -6.030  1.00  0.00     0.037 C 
BRANCH  19  21
HETATM   21  C   UNL     1      -1.323  -2.489  -7.985  1.00  0.00    -0.033 A 
HETATM   22  C   UNL     1      -1.529  -1.433  -8.890  1.00  0.00     0.009 A 
HETATM   23  C   UNL     1      -0.809  -1.362 -10.081  1.00  0.00     0.003 A 
HETATM   24  C   UNL     1       0.131  -2.345 -10.381  1.00  0.00     0.037 A 
HETATM   25  C   UNL     1       0.357  -3.403  -9.499  1.00  0.00     0.068 A 
HETATM   26  C   UNL     1      -0.361  -3.466  -8.301  1.00  0.00     0.046 A 
BRANCH  25  27
HETATM   27  O   UNL     1       1.310  -4.293  -9.913  1.00  0.00    -0.356 OA
HETATM   28  C   UNL     1       1.448  -5.488  -9.154  1.00  0.00     0.210 C 
ENDBRANCH  25  27
ENDBRANCH  19  21
ENDBRANCH  17  19
ENDBRANCH  12  15
BRANCH   1  29
HETATM   29  C   UNL     1       2.454   2.462  -4.756  1.00  0.00     0.033 C 
HETATM   30  C   UNL     1       3.928   2.622  -5.105  1.00  0.00     0.008 C 
ENDBRANCH   1  29
TORSDOF 5
