REMARK  5 active torsions:
REMARK  status: ('A' for Active; 'I' for Inactive)
REMARK    1  A    between atoms: C_2  and  N_3 
REMARK    2  A    between atoms: C_2  and  C_16 
REMARK    3  A    between atoms: N_3  and  C_6 
REMARK    4  A    between atoms: C_6  and  C_7 
REMARK    5  A    between atoms: C_19  and  C_20 
ROOT
HETATM    1  C   UNL     1       0.846   0.067   0.039  1.00  0.00     0.049 C 
HETATM    2  C   UNL     1       2.363   0.135   0.187  1.00  0.00     0.260 C 
ENDROOT
BRANCH   2   3
HETATM    3  N   UNL     1       2.946   0.305  -1.193  1.00  0.00    -0.060 N 
HETATM    4  H   UNL     1       2.586  -0.438  -1.811  1.00  0.00     0.278 HD
HETATM    5  H   UNL     1       2.634   1.194  -1.606  1.00  0.00     0.278 HD
BRANCH   3   6
HETATM    6  C   UNL     1       4.437   0.241  -1.278  1.00  0.00     0.274 C 
BRANCH   6   7
HETATM    7  C   UNL     1       4.902   0.294  -2.699  1.00  0.00     0.004 A 
HETATM    8  C   UNL     1       4.434  -0.610  -3.642  1.00  0.00     0.113 A 
HETATM    9  C   UNL     1       4.855  -0.595  -4.951  1.00  0.00     0.105 A 
HETATM   10  O   UNL     1       3.500  -1.578  -3.410  1.00  0.00    -0.322 OA
HETATM   11  O   UNL     1       4.262  -1.560  -5.698  1.00  0.00    -0.323 OA
HETATM   12  C   UNL     1       5.770   0.328  -5.403  1.00  0.00     0.040 A 
HETATM   13  C   UNL     1       3.465  -2.233  -4.709  1.00  0.00     0.352 A 
HETATM   14  C   UNL     1       6.270   1.253  -4.483  1.00  0.00     0.003 A 
HETATM   15  C   UNL     1       5.844   1.236  -3.141  1.00  0.00     0.012 A 
ENDBRANCH   6   7
ENDBRANCH   3   6
ENDBRANCH   2   3
BRANCH   2  16
HETATM   16  C   UNL     1       2.754   1.198   1.157  1.00  0.00     0.203 A 
HETATM   17  O   UNL     1       2.666   2.486   0.724  1.00  0.00    -0.194 OA
HETATM   18  N   UNL     1       3.125   3.282   1.763  1.00  0.00    -0.106 NA
HETATM   19  C   UNL     1       3.426   2.410   2.741  1.00  0.00     0.189 A 
HETATM   20  N   UNL     1       3.237   1.090   2.370  1.00  0.00    -0.202 NA
BRANCH  19  21
HETATM   21  C   UNL     1       3.909   2.789   4.063  1.00  0.00     0.017 A 
HETATM   22  C   UNL     1       4.046   1.819   5.065  1.00  0.00     0.057 A 
HETATM   23  C   UNL     1       4.493   2.184   6.331  1.00  0.00     0.117 A 
HETATM   24  F   UNL     1       4.612   1.246   7.279  1.00  0.00    -0.206 F 
HETATM   25  C   UNL     1       4.813   3.503   6.628  1.00  0.00     0.042 A 
HETATM   26  C   UNL     1       4.684   4.477   5.641  1.00  0.00     0.004 A 
HETATM   27  C   UNL     1       4.233   4.122   4.365  1.00  0.00     0.016 A 
ENDBRANCH  19  21
ENDBRANCH   2  16
TORSDOF 5
