REMARK  6 active torsions:
REMARK  status: ('A' for Active; 'I' for Inactive)
REMARK       I    between atoms: N_2  and  C_3 
REMARK    1  A    between atoms: N_2  and  C_15 
REMARK       I    between atoms: C_3  and  N_4 
REMARK    2  A    between atoms: N_4  and  C_5 
REMARK    3  A    between atoms: C_15  and  C_16 
REMARK    4  A    between atoms: C_16  and  C_17 
REMARK    5  A    between atoms: C_17  and  C_18 
REMARK    6  A    between atoms: C_22  and  C_23 
ROOT
HETATM    1  C   UNL     1       2.579   0.688   1.250  1.00  0.00     0.127 C 
ENDROOT
BRANCH   1   2
HETATM    2  N   UNL     1       2.038  -0.306   0.316  1.00  0.00    -0.338 N 
HETATM    3  C   UNL     1       2.455  -0.161  -1.075  1.00  0.00     0.154 C 
HETATM    4  C   UNL     1       1.569  -1.566   0.686  1.00  0.00     0.322 C 
HETATM    5  N   UNL     1       1.077  -1.649   1.965  1.00  0.00    -0.309 N 
HETATM    6  O   UNL     1       1.678  -2.519  -0.081  1.00  0.00    -0.247 OA
HETATM    7  H   UNL     1       0.813  -0.777   2.394  1.00  0.00     0.170 HD
BRANCH   5   8
HETATM    8  C   UNL     1       0.741  -2.814   2.690  1.00  0.00     0.036 A 
HETATM    9  C   UNL     1       0.877  -4.112   2.188  1.00  0.00     0.039 A 
HETATM   10  C   UNL     1       0.530  -5.182   3.000  1.00  0.00    -0.024 A 
HETATM   11  C   UNL     1       0.080  -4.992   4.295  1.00  0.00    -0.026 A 
HETATM   12  C   UNL     1       0.580  -6.635   2.703  1.00  0.00     0.207 C 
HETATM   13  C   UNL     1      -0.168  -6.313   4.924  1.00  0.00     0.207 C 
HETATM   14  C   UNL     1      -0.051  -3.722   4.823  1.00  0.00     0.012 A 
HETATM   15  O   UNL     1      -0.073  -7.260   3.835  1.00  0.00    -0.382 OA
HETATM   16  C   UNL     1       0.273  -2.631   4.008  1.00  0.00     0.030 A 
ENDBRANCH   5   8
ENDBRANCH   1   2
BRANCH   1  17
HETATM   17  C   UNL     1       4.058   0.466   1.606  1.00  0.00     0.026 C 
BRANCH  17  18
HETATM   18  C   UNL     1       4.287  -0.629   2.654  1.00  0.00     0.060 C 
BRANCH  18  19
HETATM   19  C   UNL     1       5.086  -1.783   2.157  1.00  0.00     0.030 A 
HETATM   20  N   UNL     1       4.620  -2.715   1.269  1.00  0.00    -0.282 N 
HETATM   21  H   UNL     1       3.716  -2.759   0.804  1.00  0.00     0.189 HD
HETATM   22  N   UNL     1       5.501  -3.693   1.010  1.00  0.00    -0.174 NA
HETATM   23  C   UNL     1       6.571  -3.414   1.769  1.00  0.00     0.089 A 
HETATM   24  C   UNL     1       6.355  -2.206   2.487  1.00  0.00     0.060 A 
BRANCH  23  25
HETATM   25  C   UNL     1       7.741  -4.301   1.804  1.00  0.00    -0.003 A 
HETATM   26  C   UNL     1       8.841  -4.023   2.625  1.00  0.00     0.056 A 
HETATM   27  C   UNL     1       9.927  -4.894   2.655  1.00  0.00     0.117 A 
HETATM   28  F   UNL     1      10.969  -4.615   3.450  1.00  0.00    -0.206 F 
HETATM   29  C   UNL     1       9.952  -6.046   1.879  1.00  0.00     0.042 A 
HETATM   30  C   UNL     1       8.869  -6.336   1.056  1.00  0.00     0.004 A 
HETATM   31  C   UNL     1       7.772  -5.468   1.019  1.00  0.00     0.014 A 
ENDBRANCH  23  25
ENDBRANCH  18  19
ENDBRANCH  17  18
ENDBRANCH   1  17
TORSDOF 6
