REMARK  5 active torsions:
REMARK  status: ('A' for Active; 'I' for Inactive)
REMARK    1  A    between atoms: C_5  and  N_6 
REMARK    2  A    between atoms: N_6  and  C_7 
REMARK    3  A    between atoms: C_7  and  C_8 
REMARK       I    between atoms: C_8  and  N_9 
REMARK    4  A    between atoms: N_9  and  N_10 
REMARK    5  A    between atoms: C_11  and  C_12 
ROOT
HETATM    1  C   UNL     1       9.136  -0.857  -1.014  1.00  0.00     0.250 C 
HETATM    2  N   UNL     1       9.314   0.506  -1.216  1.00  0.00    -0.246 N 
HETATM    3  O   UNL     1      10.030  -1.701  -1.049  1.00  0.00    -0.270 OA
HETATM    4  H   UNL     1       8.529   1.141  -1.112  1.00  0.00     0.192 HD
ENDROOT
BRANCH   2   5
HETATM    5  N   UNL     1      10.553   0.965  -1.561  1.00  0.00    -0.184 NA
HETATM    6  C   UNL     1      10.676   2.233  -1.776  1.00  0.00     0.152 C 
BRANCH   6   7
HETATM    7  C   UNL     1      11.970   2.752  -2.176  1.00  0.00     0.011 A 
HETATM    8  C   UNL     1      12.326   4.108  -2.474  1.00  0.00     0.004 A 
HETATM    9  C   UNL     1      13.678   4.115  -2.833  1.00  0.00     0.043 A 
HETATM   10  C   UNL     1      11.628   5.333  -2.479  1.00  0.00     0.014 A 
HETATM   11  C   UNL     1      14.361   5.282  -3.198  1.00  0.00     0.030 A 
HETATM   12  N   UNL     1      14.128   2.821  -2.750  1.00  0.00    -0.364 N 
HETATM   13  C   UNL     1      13.645   6.481  -3.194  1.00  0.00     0.002 A 
HETATM   14  C   UNL     1      12.298   6.510  -2.839  1.00  0.00     0.001 A 
HETATM   15  H   UNL     1      15.074   2.525  -2.954  1.00  0.00     0.165 HD
HETATM   16  C   UNL     1      13.113   1.993  -2.357  1.00  0.00     0.102 A 
ENDBRANCH   6   7
ENDBRANCH   2   5
BRANCH   1  17
HETATM   17  C   UNL     1       7.680  -1.250  -0.768  1.00  0.00     0.197 C 
BRANCH  17  18
HETATM   18  N   UNL     1       7.137  -0.583   0.425  1.00  0.00    -0.284 NA
HETATM   19  H   UNL     1       7.840  -0.477   1.159  1.00  0.00     0.128 HD
BRANCH  18  20
HETATM   20  C   UNL     1       5.942  -1.078   0.979  1.00  0.00     0.008 A 
HETATM   21  C   UNL     1       5.060  -1.933   0.308  1.00  0.00     0.024 A 
HETATM   22  C   UNL     1       3.841  -2.320   0.882  1.00  0.00     0.008 A 
HETATM   23  C   UNL     1       3.455  -1.831   2.132  1.00  0.00    -0.062 A 
HETATM   24  C   UNL     1       2.124  -2.185   2.725  1.00  0.00     0.048 C 
HETATM   25  C   UNL     1       4.315  -0.957   2.801  1.00  0.00     0.008 A 
HETATM   26  C   UNL     1       5.537  -0.585   2.227  1.00  0.00     0.024 A 
ENDBRANCH  18  20
ENDBRANCH  17  18
ENDBRANCH   1  17
TORSDOF 5
