REMARK  7 active torsions:
REMARK  status: ('A' for Active; 'I' for Inactive)
REMARK    1  A    between atoms: C_2  and  N_3 
REMARK    2  A    between atoms: C_4  and  C_5 
REMARK       I    between atoms: C_5  and  N_6 
REMARK    3  A    between atoms: N_6  and  C_7 
REMARK    4  A    between atoms: C_7  and  C_8 
REMARK    5  A    between atoms: C_19  and  N_20 
REMARK       I    between atoms: N_20  and  C_21 
REMARK    6  A    between atoms: C_21  and  C_22 
REMARK    7  A    between atoms: C_25  and  O_26 
ROOT
HETATM    1  N   UNL     1      -3.360   5.757   2.298  1.00  0.00    -0.342 N 
HETATM    2  C   UNL     1      -2.109   5.977   1.739  1.00  0.00     0.104 A 
HETATM    3  C   UNL     1      -2.166   5.458   0.453  1.00  0.00     0.049 A 
HETATM    4  C   UNL     1      -3.443   4.885   0.243  1.00  0.00    -0.005 A 
HETATM    5  C   UNL     1      -4.171   5.056   1.417  1.00  0.00     0.045 A 
HETATM    6  C   UNL     1      -4.038   4.230  -0.856  1.00  0.00     0.043 A 
HETATM    7  C   UNL     1      -5.346   3.747  -0.763  1.00  0.00     0.035 A 
HETATM    8  C   UNL     1      -6.045   3.905   0.437  1.00  0.00     0.032 A 
HETATM    9  C   UNL     1      -5.479   4.562   1.540  1.00  0.00     0.033 A 
ENDROOT
BRANCH   7  10
HETATM   10  N   UNL     1      -6.008   3.087  -1.823  1.00  0.00    -0.323 N 
HETATM   11  C   UNL     1      -5.562   2.965  -3.127  1.00  0.00     0.256 C 
HETATM   12  O   UNL     1      -4.557   3.463  -3.616  1.00  0.00    -0.267 OA
HETATM   13  H   UNL     1      -6.941   2.753  -1.622  1.00  0.00     0.169 HD
BRANCH  11  14
HETATM   14  C   UNL     1      -6.448   2.173  -4.021  1.00  0.00     0.032 A 
HETATM   15  C   UNL     1      -6.636   2.615  -5.334  1.00  0.00     0.020 A 
HETATM   16  C   UNL     1      -7.429   1.874  -6.212  1.00  0.00     0.038 A 
HETATM   17  C   UNL     1      -8.012   0.675  -5.798  1.00  0.00     0.068 A 
HETATM   18  C   UNL     1      -7.830   0.236  -4.484  1.00  0.00     0.038 A 
HETATM   19  C   UNL     1      -7.046   0.981  -3.595  1.00  0.00     0.020 A 
BRANCH  17  20
HETATM   20  O   UNL     1      -8.746   0.031  -6.756  1.00  0.00    -0.356 OA
HETATM   21  C   UNL     1      -8.937  -1.366  -6.564  1.00  0.00     0.210 C 
ENDBRANCH  17  20
ENDBRANCH  11  14
ENDBRANCH   7  10
BRANCH   2  22
HETATM   22  C   UNL     1      -0.992   6.641   2.392  1.00  0.00     0.268 C 
HETATM   23  N   UNL     1       0.242   6.249   1.914  1.00  0.00    -0.353 N 
HETATM   24  H   UNL     1       0.270   5.450   1.297  1.00  0.00     0.162 HD
HETATM   25  O   UNL     1      -1.118   7.470   3.287  1.00  0.00    -0.266 OA
BRANCH  23  26
HETATM   26  C   UNL     1       1.480   6.669   2.545  1.00  0.00     0.160 C 
BRANCH  26  27
HETATM   27  C   UNL     1       1.962   5.718   3.676  1.00  0.00     0.073 C 
HETATM   28  O   UNL     1       0.969   5.630   4.716  1.00  0.00    -0.379 OA
HETATM   29  C   UNL     1       1.294   6.567   5.754  1.00  0.00     0.169 C 
HETATM   30  C   UNL     1       2.597   7.243   5.377  1.00  0.00     0.029 C 
HETATM   31  C   UNL     1       3.197   6.284   4.377  1.00  0.00     0.041 C 
HETATM   32  C   UNL     1       2.220   4.310   3.142  1.00  0.00     0.047 C 
ENDBRANCH  26  27
ENDBRANCH  23  26
ENDBRANCH   2  22
BRANCH   1  33
HETATM   33  C   UNL     1      -3.770   6.176   3.632  1.00  0.00     0.125 C 
HETATM   34  C   UNL     1      -3.279   5.233   4.716  1.00  0.00     0.027 C 
ENDBRANCH   1  33
TORSDOF 7
