REMARK  8 active torsions:
REMARK  status: ('A' for Active; 'I' for Inactive)
REMARK    1  A    between atoms: C_2  and  C_3 
REMARK    2  A    between atoms: C_3  and  N_4 
REMARK    3  A    between atoms: N_4  and  C_6 
REMARK    4  A    between atoms: N_4  and  C_23 
REMARK    5  A    between atoms: C_6  and  C_7 
REMARK       I    between atoms: C_7  and  N_8 
REMARK    6  A    between atoms: N_8  and  C_9 
REMARK    7  A    between atoms: C_23  and  C_24 
REMARK       I    between atoms: C_24  and  N_25 
REMARK    8  A    between atoms: N_25  and  C_26 
ROOT
HETATM    1  N   UNL     1       4.075   1.585   1.116  1.00  0.00    -0.055 N 
HETATM    2  H   UNL     1       4.273   0.582   1.260  1.00  0.00     0.281 HD
ENDROOT
BRANCH   1   3
HETATM    3  C   UNL     1       2.615   1.804   1.445  1.00  0.00     0.235 C 
BRANCH   3   4
HETATM    4  C   UNL     1       1.673   0.936   0.612  1.00  0.00     0.023 C 
HETATM    5  C   UNL     1       1.907  -0.558   0.769  1.00  0.00     0.007 C 
ENDBRANCH   3   4
ENDBRANCH   1   3
BRANCH   1   6
HETATM    6  C   UNL     1       4.454   1.937  -0.339  1.00  0.00     0.338 C 
BRANCH   6   7
HETATM    7  C   UNL     1       4.296   3.437  -0.652  1.00  0.00     0.249 C 
HETATM    8  N   UNL     1       3.616   3.902  -1.727  1.00  0.00    -0.304 N 
HETATM    9  H   UNL     1       3.493   4.907  -1.786  1.00  0.00     0.171 HD
HETATM   10  O   UNL     1       4.740   4.269   0.151  1.00  0.00    -0.271 OA
BRANCH   8  11
HETATM   11  C   UNL     1       3.161   3.174  -2.782  1.00  0.00     0.174 A 
HETATM   12  S   UNL     1       2.248   4.071  -3.897  1.00  0.00    -0.050 SA
HETATM   13  C   UNL     1       2.042   2.651  -4.849  1.00  0.00     0.040 A 
HETATM   14  C   UNL     1       2.725   1.593  -4.238  1.00  0.00     0.079 A 
HETATM   15  C   UNL     1       1.334   2.492  -6.050  1.00  0.00     0.061 A 
HETATM   16  N   UNL     1       3.343   1.906  -3.029  1.00  0.00    -0.223 NA
HETATM   17  C   UNL     1       2.735   0.336  -4.876  1.00  0.00     0.072 A 
HETATM   18  C   UNL     1       2.063   0.178  -6.092  1.00  0.00     0.104 A 
HETATM   19  C   UNL     1       1.345   1.234  -6.652  1.00  0.00     0.103 A 
HETATM   20  O   UNL     1       2.153  -1.059  -6.680  1.00  0.00    -0.346 OA
HETATM   21  O   UNL     1       0.629   1.122  -7.818  1.00  0.00    -0.346 OA
HETATM   22  C   UNL     1       0.450  -0.246  -8.203  1.00  0.00     0.202 C 
HETATM   23  C   UNL     1       1.753  -1.014  -8.057  1.00  0.00     0.202 C 
ENDBRANCH   8  11
ENDBRANCH   6   7
ENDBRANCH   1   6
BRANCH   1  24
HETATM   24  C   UNL     1       4.988   2.286   2.142  1.00  0.00     0.338 C 
BRANCH  24  25
HETATM   25  C   UNL     1       4.992   1.548   3.485  1.00  0.00     0.248 C 
HETATM   26  N   UNL     1       5.209   2.373   4.568  1.00  0.00    -0.323 N 
HETATM   27  H   UNL     1       5.350   3.370   4.408  1.00  0.00     0.169 HD
HETATM   28  O   UNL     1       4.760   0.341   3.500  1.00  0.00    -0.271 OA
BRANCH  26  29
HETATM   29  C   UNL     1       5.212   2.021   5.938  1.00  0.00     0.077 A 
HETATM   30  C   UNL     1       5.343   3.076   6.855  1.00  0.00     0.184 A 
HETATM   31  F   UNL     1       5.449   4.330   6.384  1.00  0.00    -0.200 F 
HETATM   32  C   UNL     1       5.346   2.848   8.224  1.00  0.00     0.195 A 
HETATM   33  F   UNL     1       5.457   3.876   9.076  1.00  0.00    -0.199 F 
HETATM   34  C   UNL     1       5.226   1.552   8.696  1.00  0.00     0.158 A 
HETATM   35  F   UNL     1       5.227   1.310  10.013  1.00  0.00    -0.203 F 
HETATM   36  C   UNL     1       5.102   0.486   7.807  1.00  0.00     0.048 A 
HETATM   37  C   UNL     1       5.093   0.718   6.425  1.00  0.00     0.036 A 
ENDBRANCH  26  29
ENDBRANCH  24  25
ENDBRANCH   1  24
TORSDOF 8
