REMARK  8 active torsions:
REMARK  status: ('A' for Active; 'I' for Inactive)
REMARK    1  A    between atoms: C_3  and  N_4 
REMARK       I    between atoms: N_4  and  C_5 
REMARK    2  A    between atoms: C_5  and  C_6 
REMARK    3  A    between atoms: C_7  and  C_8 
REMARK    4  A    between atoms: C_17  and  C_18 
REMARK    5  A    between atoms: C_20  and  O_21 
REMARK    6  A    between atoms: C_23  and  O_24 
REMARK    7  A    between atoms: O_24  and  C_25 
REMARK    8  A    between atoms: C_25  and  C_26 
REMARK       I    between atoms: C_26  and  N_27 
ROOT
HETATM    1  C   UNL     1       4.663   3.607  -0.811  1.00  0.00     0.062 C 
HETATM    2  C   UNL     1       5.182   5.024  -0.811  1.00  0.00     0.176 C 
HETATM    3  N   UNL     1       6.600   5.013  -0.486  1.00  0.00    -0.277 N 
HETATM    4  C   UNL     1       7.331   3.872  -0.580  1.00  0.00     0.177 C 
HETATM    5  S   UNL     1       9.026   4.186  -0.343  1.00  0.00    -0.046 SA
HETATM    6  C   UNL     1       8.755   5.887  -0.185  1.00  0.00     0.077 C 
HETATM    7  C   UNL     1       9.749   6.787  -0.185  1.00  0.00     0.036 C 
HETATM    8  C   UNL     1       7.285   6.161  -0.164  1.00  0.00     0.267 C 
HETATM    9  O   UNL     1       6.779   7.233   0.127  1.00  0.00    -0.266 OA
HETATM   10  N   UNL     1       6.866   2.689  -0.789  1.00  0.00    -0.228 NA
HETATM   11  C   UNL     1       5.496   2.546  -0.861  1.00  0.00     0.047 C 
HETATM   12  C   UNL     1       5.047   1.117  -1.031  1.00  0.00     0.071 C 
ENDROOT
BRANCH   7  13
HETATM   13  C   UNL     1       9.550   8.236  -0.250  1.00  0.00    -0.032 A 
HETATM   14  C   UNL     1       9.397   8.850  -1.504  1.00  0.00     0.051 A 
HETATM   15  C   UNL     1       9.165  10.225  -1.598  1.00  0.00     0.102 A 
HETATM   16  C   UNL     1       9.094  10.984  -0.419  1.00  0.00     0.102 A 
HETATM   17  C   UNL     1       9.241  10.376   0.832  1.00  0.00     0.040 A 
HETATM   18  C   UNL     1       9.478   9.003   0.915  1.00  0.00     0.014 A 
BRANCH  15  19
HETATM   19  O   UNL     1       9.007  10.920  -2.771  1.00  0.00    -0.353 OA
HETATM   20  C   UNL     1       9.103  10.182  -3.982  1.00  0.00     0.210 C 
ENDBRANCH  15  19
BRANCH  16  21
HETATM   21  O   UNL     1       8.795  12.316  -0.541  1.00  0.00    -0.339 OA
BRANCH  21  22
HETATM   22  C   UNL     1       9.676  13.172   0.187  1.00  0.00     0.278 C 
BRANCH  22  23
HETATM   23  C   UNL     1       9.713  14.540  -0.487  1.00  0.00     0.239 C 
HETATM   24  N   UNL     1       9.384  14.549  -1.814  1.00  0.00    -0.368 N 
HETATM   25  H   UNL     1       8.933  13.731  -2.214  1.00  0.00     0.159 HD
HETATM   26  H   UNL     1       9.312  15.438  -2.287  1.00  0.00     0.159 HD
HETATM   27  O   UNL     1      10.065  15.566   0.087  1.00  0.00    -0.271 OA
ENDBRANCH  22  23
ENDBRANCH  21  22
ENDBRANCH  16  21
ENDBRANCH   7  13
BRANCH   2  28
HETATM   28  C   UNL     1       5.039   5.742  -2.147  1.00  0.00     0.011 A 
HETATM   29  S   UNL     1       4.212   7.247  -2.224  1.00  0.00    -0.104 SA
HETATM   30  C   UNL     1       4.489   7.389  -3.903  1.00  0.00     0.050 A 
HETATM   31  C   UNL     1       5.186   6.315  -4.406  1.00  0.00     0.008 A 
HETATM   32  C   UNL     1       5.502   5.362  -3.395  1.00  0.00     0.017 A 
ENDBRANCH   2  28
BRANCH   1  33
HETATM   33  C   UNL     1       3.179   3.489  -0.787  1.00  0.00     0.256 C 
HETATM   34  N   UNL     1       2.713   2.705   0.249  1.00  0.00    -0.323 N 
HETATM   35  H   UNL     1       3.409   2.259   0.831  1.00  0.00     0.169 HD
HETATM   36  O   UNL     1       2.515   4.098  -1.614  1.00  0.00    -0.267 OA
BRANCH  34  37
HETATM   37  C   UNL     1       1.364   2.426   0.580  1.00  0.00     0.041 A 
HETATM   38  C   UNL     1       1.090   1.474   1.587  1.00  0.00    -0.035 A 
HETATM   39  C   UNL     1       2.177   0.710   2.295  1.00  0.00     0.050 C 
HETATM   40  C   UNL     1      -0.246   1.196   1.930  1.00  0.00     0.009 A 
HETATM   41  C   UNL     1      -1.299   1.850   1.297  1.00  0.00     0.001 A 
HETATM   42  C   UNL     1      -1.030   2.788   0.309  1.00  0.00     0.002 A 
HETATM   43  C   UNL     1       0.291   3.072  -0.048  1.00  0.00     0.030 A 
ENDBRANCH  34  37
ENDBRANCH   1  33
TORSDOF 8
