REMARK  5 active torsions:
REMARK  status: ('A' for Active; 'I' for Inactive)
REMARK    1  A    between atoms: O_2  and  C_3 
REMARK    2  A    between atoms: C_4  and  N_5 
REMARK    3  A    between atoms: N_5  and  C_6 
REMARK    4  A    between atoms: C_6  and  C_7 
REMARK       I    between atoms: C_7  and  N_8 
REMARK    5  A    between atoms: N_8  and  C_9 
ROOT
HETATM    1  C   UNL     1       0.644   4.597  -1.183  1.00  0.00     0.235 C 
HETATM    2  N   UNL     1       0.354   3.494  -1.970  1.00  0.00    -0.326 N 
HETATM    3  O   UNL     1       0.124   5.707  -1.264  1.00  0.00    -0.272 OA
HETATM    4  H   UNL     1       0.713   2.606  -1.642  1.00  0.00     0.169 HD
ENDROOT
BRANCH   1   5
HETATM    5  C   UNL     1       1.731   4.318  -0.136  1.00  0.00     0.195 C 
BRANCH   5   6
HETATM    6  N   UNL     1       1.159   3.895   1.140  1.00  0.00    -0.282 NA
HETATM    7  H   UNL     1       0.371   4.491   1.411  1.00  0.00     0.128 HD
BRANCH   6   8
HETATM    8  C   UNL     1       0.858   2.560   1.425  1.00  0.00     0.042 A 
HETATM    9  C   UNL     1      -0.085   2.269   2.434  1.00  0.00     0.089 A 
HETATM   10  C   UNL     1      -0.418   0.959   2.783  1.00  0.00     0.038 A 
HETATM   11  C   UNL     1       0.247  -0.101   2.179  1.00  0.00     0.003 A 
HETATM   12  C   UNL     1       1.239   0.157   1.235  1.00  0.00     0.002 A 
HETATM   13  C   UNL     1       1.549   1.476   0.873  1.00  0.00     0.026 A 
BRANCH   9  14
HETATM   14  O   UNL     1      -0.758   3.281   3.079  1.00  0.00    -0.354 OA
HETATM   15  C   UNL     1       0.058   3.841   4.112  1.00  0.00     0.210 C 
ENDBRANCH   9  14
ENDBRANCH   6   8
ENDBRANCH   5   6
ENDBRANCH   1   5
BRANCH   2  16
HETATM   16  C   UNL     1      -0.439   3.456  -3.136  1.00  0.00     0.035 A 
HETATM   17  C   UNL     1      -1.015   4.584  -3.725  1.00  0.00     0.042 A 
HETATM   18  C   UNL     1      -1.754   4.489  -4.920  1.00  0.00    -0.024 A 
HETATM   19  C   UNL     1      -1.915   3.230  -5.538  1.00  0.00    -0.026 A 
HETATM   20  C   UNL     1      -2.331   5.623  -5.515  1.00  0.00     0.012 A 
HETATM   21  C   UNL     1      -1.342   2.099  -4.940  1.00  0.00     0.014 A 
HETATM   22  C   UNL     1      -2.642   3.139  -6.737  1.00  0.00     0.012 A 
HETATM   23  C   UNL     1      -0.613   2.213  -3.752  1.00  0.00     0.030 A 
HETATM   24  C   UNL     1      -3.206   4.277  -7.317  1.00  0.00     0.001 A 
HETATM   25  C   UNL     1      -3.052   5.517  -6.706  1.00  0.00     0.001 A 
ENDBRANCH   2  16
TORSDOF 5
