REMARK  11 active torsions:
REMARK  status: ('A' for Active; 'I' for Inactive)
REMARK    1  A    between atoms: C_1  and  C_17 
REMARK    2  A    between atoms: C_1  and  S_18 
REMARK    3  A    between atoms: C_2  and  N_23 
REMARK    4  A    between atoms: C_3  and  C_13 
REMARK    5  A    between atoms: C_6  and  S_18 
REMARK    6  A    between atoms: C_6  and  S_19 
REMARK    7  A    between atoms: C_7  and  C_20 
REMARK    8  A    between atoms: C_7  and  C_21 
REMARK    9  A    between atoms: C_9  and  C_24 
REMARK   10  A    between atoms: C_16  and  C_17 
REMARK   11  A    between atoms: S_19  and  C_20 
ROOT
HETATM    1  C           1      -1.833  -1.343  -0.407  0.00  0.00     0.092 C 
HETATM    2  C           1       0.450  -0.767   0.090  0.00  0.00     0.156 C 
HETATM    3  C           1      -1.849   0.042   0.176  0.00  0.00     0.127 C 
HETATM    4  C           1      -0.528   0.067   0.986  0.00  0.00     0.136 C 
HETATM    5  C           1      -0.703  -0.615   2.305  0.00  0.00     0.079 C 
HETATM    6  N           1      -0.984  -1.027   3.353  0.00  0.00    -0.196 NA
HETATM    7  C           1      -2.970   0.692   1.088  0.00  0.00     0.248 C 
HETATM    8  C           1      -1.269   2.444   1.542  0.00  0.00     0.105 C 
HETATM    9  N           1      -0.592  -1.750  -0.482  0.00  0.00    -0.350 N 
HETATM   10  N           1      -2.689   2.213   1.314  0.00  0.00    -0.040 N 
HETATM   11  C           1      -0.923   3.850   1.967  0.00  0.00     0.075 C 
HETATM   12  C           1      -0.295   1.519   1.364  0.00  0.00     0.036 C 
HETATM   13  H           1      -0.333  -2.662  -0.882  0.00  0.00     0.163 HD
HETATM   14  H           1      -3.206   2.498   2.178  0.00  0.00     0.284 HD
HETATM   15  H           1      -3.045   2.797   0.529  0.00  0.00     0.284 HD
ENDROOT
BRANCH   2  16
HETATM   16  S           1       1.661  -1.724   1.061  0.00  0.00    -0.125 SA
BRANCH  16  17
HETATM   17  C           1       2.940  -0.490   1.439  0.00  0.00     0.077 C 
BRANCH  17  18
HETATM   18  C           1       4.018  -1.146   2.317  0.00  0.00     0.010 C 
BRANCH  18  19
HETATM   19  C           1       5.130  -0.149   2.686  0.00  0.00    -0.004 C 
HETATM   20  C           1       6.211  -0.797   3.561  0.00  0.00     0.005 C 
ENDBRANCH  18  19
ENDBRANCH  17  18
ENDBRANCH  16  17
ENDBRANCH   2  16
BRANCH   2  21
HETATM   21  S           1       1.106   0.263  -1.266  0.00  0.00    -0.125 SA
BRANCH  21  22
HETATM   22  C           1       1.827  -1.021  -2.337  0.00  0.00     0.077 C 
BRANCH  22  23
HETATM   23  C           1       2.522  -0.338  -3.527  0.00  0.00     0.010 C 
BRANCH  23  24
HETATM   24  C           1       3.157  -1.366  -4.477  0.00  0.00    -0.004 C 
HETATM   25  C           1       3.851  -0.691  -5.668  0.00  0.00     0.005 C 
ENDBRANCH  23  24
ENDBRANCH  22  23
ENDBRANCH  21  22
ENDBRANCH   2  21
BRANCH   3  26
HETATM   26  C           1      -1.863   1.082  -0.885  0.00  0.00     0.105 C 
HETATM   27  N           1      -2.119   2.210  -0.958  0.00  0.00    -0.151 N 
ENDBRANCH   3  26
BRANCH   1  28
HETATM   28  N           1      -2.837  -1.980  -0.846  0.00  0.00    -0.388 N 
HETATM   29  H           1      -3.794  -1.547  -0.829  0.00  0.00     0.157 HD
HETATM   30  H           1      -2.730  -2.949  -1.233  0.00  0.00     0.157 HD
ENDBRANCH   1  28
BRANCH   7  31
HETATM   31  C           1      -4.378   0.445   0.569  0.00  0.00    -0.026 A 
HETATM   32  C           1      -5.055   1.338  -0.176  0.00  0.00     0.009 A 
HETATM   33  C           1      -6.295   1.078  -0.622  0.00  0.00     0.001 A 
HETATM   34  C           1      -6.887  -0.088  -0.326  0.00  0.00     0.000 A 
HETATM   35  C           1      -6.233  -0.986   0.424  0.00  0.00     0.001 A 
HETATM   36  C           1      -4.996  -0.714   0.867  0.00  0.00     0.009 A 
ENDBRANCH   7  31
TORSDOF 11
