REMARK  4 active torsions:
REMARK  status: ('A' for Active; 'I' for Inactive)
REMARK    1  A    between atoms: N_2  and  C_4 
REMARK    2  A    between atoms: C_4  and  C_5 
REMARK    3  A    between atoms: C_8  and  C_9 
REMARK       I    between atoms: C_9  and  N_10 
REMARK    4  A    between atoms: N_10  and  C_11 
ROOT
HETATM    1  C   UNL     1       2.170  -3.756  -5.287  1.00  0.00     0.269 C 
HETATM    2  N   UNL     1       1.815  -3.426  -6.580  1.00  0.00    -0.153 N 
HETATM    3  O   UNL     1       2.470  -4.859  -4.847  1.00  0.00    -0.267 OA
HETATM    4  H   UNL     1       1.385  -2.536  -6.775  1.00  0.00     0.187 HD
ENDROOT
BRANCH   1   5
HETATM    5  C   UNL     1       2.170  -2.625  -4.319  1.00  0.00     0.032 A 
HETATM    6  C   UNL     1       1.865  -2.896  -2.979  1.00  0.00     0.017 A 
HETATM    7  C   UNL     1       1.989  -1.898  -2.010  1.00  0.00     0.010 A 
HETATM    8  C   UNL     1       2.435  -0.617  -2.366  1.00  0.00    -0.033 A 
HETATM    9  C   UNL     1       2.712  -0.341  -3.715  1.00  0.00     0.010 A 
HETATM   10  C   UNL     1       2.585  -1.340  -4.687  1.00  0.00     0.017 A 
BRANCH   8  11
HETATM   11  C   UNL     1       2.697   0.418  -1.302  1.00  0.00     0.272 C 
BRANCH  11  12
HETATM   12  N   UNL     1       4.173   0.610  -1.020  1.00  0.00    -0.075 N 
HETATM   13  C   UNL     1       4.831  -0.613  -0.437  1.00  0.00     0.269 C 
HETATM   14  H   UNL     1       4.626   0.775  -1.927  1.00  0.00     0.279 HD
HETATM   15  C   UNL     1       4.423   1.824  -0.173  1.00  0.00     0.269 C 
ENDBRANCH  11  12
ENDBRANCH   8  11
ENDBRANCH   1   5
BRANCH   2  16
HETATM   16  C   UNL     1       2.035  -4.296  -7.621  1.00  0.00     0.708 A 
HETATM   17  N   UNL     1       2.671  -5.443  -7.601  1.00  0.00    -0.062 NA
HETATM   18  C   UNL     1       2.691  -5.893  -8.896  1.00  0.00     0.103 A 
HETATM   19  C   UNL     1       2.044  -4.997  -9.738  1.00  0.00     0.078 A 
HETATM   20  C   UNL     1       3.254  -7.057  -9.434  1.00  0.00     0.034 A 
HETATM   21  N   UNL     1       1.625  -3.997  -8.898  1.00  0.00    -0.187 N 
HETATM   22  C   UNL     1       1.922  -5.189 -11.115  1.00  0.00     0.032 A 
HETATM   23  H   UNL     1       1.109  -3.179  -9.180  1.00  0.00     0.184 HD
HETATM   24  C   UNL     1       2.495  -6.355 -11.637  1.00  0.00     0.002 A 
HETATM   25  C   UNL     1       3.149  -7.276 -10.814  1.00  0.00     0.002 A 
ENDBRANCH   2  16
TORSDOF 4
