REMARK  8 active torsions:
REMARK  status: ('A' for Active; 'I' for Inactive)
REMARK    1  A    between atoms: C_2  and  C_3 
REMARK    2  A    between atoms: C_3  and  O_4 
REMARK    3  A    between atoms: O_4  and  C_5 
REMARK    4  A    between atoms: C_8  and  C_9 
REMARK    5  A    between atoms: N_10  and  C_11 
REMARK    6  A    between atoms: C_11  and  C_12 
REMARK    7  A    between atoms: C_25  and  C_26 
REMARK    8  A    between atoms: C_27  and  O_28 
ROOT
HETATM    1  C   UNL     1       7.318   4.080  -4.240  1.00  0.00     0.159 A 
HETATM    2  N   UNL     1       8.797   4.207  -4.143  1.00  0.00    -0.329 N 
HETATM    3  C   UNL     1       9.224   5.404  -3.551  1.00  0.00     0.273 A 
HETATM    4  O   UNL     1      10.357   5.750  -3.269  1.00  0.00    -0.266 OA
HETATM    5  C   UNL     1       8.021   6.118  -3.338  1.00  0.00     0.129 A 
HETATM    6  C   UNL     1       6.923   5.410  -3.722  1.00  0.00     0.034 A 
HETATM    7  N   UNL     1       7.604   7.317  -2.903  1.00  0.00    -0.272 N 
HETATM    8  H   UNL     1       8.148   8.098  -2.548  1.00  0.00     0.189 HD
HETATM    9  N   UNL     1       6.255   7.446  -3.016  1.00  0.00    -0.173 NA
HETATM   10  C   UNL     1       5.832   6.273  -3.543  1.00  0.00     0.101 A 
ENDROOT
BRANCH   1  11
HETATM   11  C   UNL     1       6.768   3.987  -5.643  1.00  0.00    -0.030 A 
HETATM   12  C   UNL     1       5.677   3.133  -5.887  1.00  0.00     0.012 A 
HETATM   13  C   UNL     1       5.025   3.143  -7.119  1.00  0.00     0.037 A 
HETATM   14  C   UNL     1       5.447   4.017  -8.115  1.00  0.00     0.069 A 
HETATM   15  C   UNL     1       6.577   4.810  -7.928  1.00  0.00     0.037 A 
HETATM   16  C   UNL     1       7.235   4.795  -6.696  1.00  0.00     0.012 A 
BRANCH  14  17
HETATM   17  O   UNL     1       4.708   4.065  -9.266  1.00  0.00    -0.348 OA
BRANCH  17  18
HETATM   18  C   UNL     1       4.135   5.367  -9.453  1.00  0.00     0.202 C 
BRANCH  18  19
HETATM   19  C   UNL     1       2.805   5.188 -10.122  1.00  0.00    -0.011 C 
HETATM   20  C   UNL     1       2.421   5.811 -11.244  1.00  0.00     0.009 C 
ENDBRANCH  18  19
ENDBRANCH  17  18
ENDBRANCH  14  17
ENDBRANCH   1  11
BRANCH   2  21
HETATM   21  C   UNL     1       9.674   3.071  -4.326  1.00  0.00     0.167 C 
BRANCH  21  22
HETATM   22  C   UNL     1       9.687   2.171  -3.122  1.00  0.00    -0.023 A 
HETATM   23  C   UNL     1       8.977   0.975  -3.107  1.00  0.00     0.125 A 
HETATM   24  N   UNL     1       8.917   0.141  -2.045  1.00  0.00    -0.273 NA
HETATM   25  C   UNL     1       9.601   0.510  -0.941  1.00  0.00     0.116 A 
HETATM   26  C   UNL     1      10.342   1.676  -0.851  1.00  0.00     0.020 A 
HETATM   27  C   UNL     1      10.382   2.517  -1.959  1.00  0.00     0.012 A 
ENDBRANCH  21  22
ENDBRANCH   2  21
BRANCH  10  28
HETATM   28  C   UNL     1       4.442   6.041  -3.913  1.00  0.00     0.028 A 
HETATM   29  C   UNL     1       3.740   4.900  -3.503  1.00  0.00     0.078 A 
HETATM   30  C   UNL     1       2.462   4.634  -3.991  1.00  0.00     0.037 A 
HETATM   31  C   UNL     1       1.856   5.526  -4.875  1.00  0.00     0.003 A 
HETATM   32  C   UNL     1       2.527   6.684  -5.267  1.00  0.00     0.001 A 
HETATM   33  C   UNL     1       3.815   6.940  -4.788  1.00  0.00     0.017 A 
BRANCH  29  34
HETATM   34  O   UNL     1       4.252   3.995  -2.611  1.00  0.00    -0.360 OA
HETATM   35  H   UNL     1       4.839   4.488  -2.009  1.00  0.00     0.217 HD
ENDBRANCH  29  34
ENDBRANCH  10  28
TORSDOF 8
