REMARK  4 active torsions:
REMARK  status: ('A' for Active; 'I' for Inactive)
REMARK    1  A    between atoms: O_2  and  C_3 
REMARK    2  A    between atoms: C_6  and  C_7 
REMARK    3  A    between atoms: C_12  and  N_13 
REMARK    4  A    between atoms: C_15  and  C_16 
ROOT
HETATM    1  C   UNL     1       4.839  -5.124  -1.910  1.00  0.00     0.135 C 
HETATM    2  N   UNL     1       4.427  -6.516  -1.761  1.00  0.00    -0.214 N 
HETATM    3  C   UNL     1       3.423  -7.009  -2.512  1.00  0.00     0.736 A 
HETATM    4  N   UNL     1       2.932  -6.319  -3.586  1.00  0.00    -0.074 N 
HETATM    5  N   UNL     1       1.964  -7.005  -4.216  1.00  0.00     0.037 NA
HETATM    6  C   UNL     1       1.915  -8.103  -3.464  1.00  0.00     0.753 A 
HETATM    7  N   UNL     1       2.767  -8.134  -2.399  1.00  0.00     0.131 NA
HETATM    8  C   UNL     1       3.384  -4.996  -3.990  1.00  0.00     0.164 C 
HETATM    9  C   UNL     1       4.773  -4.710  -3.394  1.00  0.00     0.063 C 
HETATM   10  H   UNL     1       4.586  -6.942  -0.851  1.00  0.00     0.178 HD
ENDROOT
BRANCH   1  11
HETATM   11  C   UNL     1       6.247  -4.918  -1.378  1.00  0.00    -0.035 A 
HETATM   12  C   UNL     1       7.234  -5.910  -1.481  1.00  0.00     0.012 A 
HETATM   13  C   UNL     1       8.534  -5.672  -1.028  1.00  0.00     0.037 A 
HETATM   14  C   UNL     1       8.884  -4.435  -0.487  1.00  0.00     0.068 A 
HETATM   15  C   UNL     1       7.912  -3.442  -0.375  1.00  0.00     0.037 A 
HETATM   16  C   UNL     1       6.605  -3.682  -0.818  1.00  0.00     0.012 A 
BRANCH  14  17
HETATM   17  O   UNL     1      10.191  -4.326  -0.103  1.00  0.00    -0.356 OA
HETATM   18  C   UNL     1      10.661  -3.018   0.198  1.00  0.00     0.210 C 
ENDBRANCH  14  17
ENDBRANCH   1  11
BRANCH   8  19
HETATM   19  C   UNL     1       2.384  -3.893  -3.652  1.00  0.00    -0.031 A 
HETATM   20  C   UNL     1       1.529  -3.947  -2.536  1.00  0.00     0.028 A 
HETATM   21  C   UNL     1       0.651  -2.896  -2.266  1.00  0.00     0.011 A 
HETATM   22 BR   UNL     1      -0.491  -2.995  -0.762  1.00  0.00    -0.051 Br
HETATM   23  C   UNL     1       0.609  -1.775  -3.090  1.00  0.00     0.019 A 
HETATM   24  C   UNL     1       1.453  -1.703  -4.195  1.00  0.00     0.002 A 
HETATM   25  C   UNL     1       2.334  -2.751  -4.473  1.00  0.00     0.009 A 
ENDBRANCH   8  19
BRANCH   6  26
HETATM   26  N   UNL     1       1.090  -9.129  -3.651  1.00  0.00    -0.229 N 
HETATM   27  H   UNL     1       0.276  -8.962  -4.225  1.00  0.00     0.174 HD
HETATM   28  H   UNL     1       0.940  -9.741  -2.861  1.00  0.00     0.174 HD
ENDBRANCH   6  26
TORSDOF 4
