REMARK  5 active torsions:
REMARK  status: ('A' for Active; 'I' for Inactive)
REMARK    1  A    between atoms: C_2  and  C_3 
REMARK    2  A    between atoms: C_3  and  N_4 
REMARK    3  A    between atoms: C_3  and  C_14 
REMARK       I    between atoms: N_4  and  C_5 
REMARK    4  A    between atoms: C_5  and  C_6 
REMARK    5  A    between atoms: C_17  and  O_18 
ROOT
HETATM    1  C   UNL     1       3.143   0.929   0.775  1.00  0.00     0.117 C 
ENDROOT
BRANCH   1   2
HETATM    2  C   UNL     1       2.715  -0.316  -0.029  1.00  0.00     0.025 C 
HETATM    3  C   UNL     1       1.229  -0.336  -0.365  1.00  0.00     0.007 C 
ENDBRANCH   1   2
BRANCH   1   4
HETATM    4  N   UNL     1       2.611   0.906   2.133  1.00  0.00    -0.348 N 
HETATM    5  C   UNL     1       1.444   1.550   2.477  1.00  0.00     0.253 C 
HETATM    6  O   UNL     1       0.756   2.180   1.683  1.00  0.00    -0.268 OA
HETATM    7  H   UNL     1       3.218   0.541   2.851  1.00  0.00     0.163 HD
BRANCH   5   8
HETATM    8  C   UNL     1       1.041   1.480   3.902  1.00  0.00     0.050 A 
HETATM    9  C   UNL     1       0.189   2.461   4.401  1.00  0.00     0.133 A 
HETATM   10  N   UNL     1      -0.246   2.506   5.686  1.00  0.00    -0.271 NA
HETATM   11  C   UNL     1       0.179   1.515   6.504  1.00  0.00     0.135 A 
HETATM   12  C   UNL     1       1.013   0.486   6.091  1.00  0.00     0.029 A 
HETATM   13 BR   UNL     1       1.544  -0.864   7.296  1.00  0.00    -0.050 Br
HETATM   14  C   UNL     1       1.450   0.462   4.769  1.00  0.00     0.039 A 
ENDBRANCH   5   8
ENDBRANCH   1   4
BRANCH   1  15
HETATM   15  C   UNL     1       4.658   1.059   0.851  1.00  0.00    -0.035 A 
HETATM   16  C   UNL     1       5.269   2.272   0.507  1.00  0.00     0.012 A 
HETATM   17  C   UNL     1       6.656   2.422   0.600  1.00  0.00     0.037 A 
HETATM   18  C   UNL     1       7.458   1.372   1.049  1.00  0.00     0.068 A 
HETATM   19  C   UNL     1       6.861   0.162   1.397  1.00  0.00     0.037 A 
HETATM   20  C   UNL     1       5.473   0.007   1.301  1.00  0.00     0.012 A 
BRANCH  18  21
HETATM   21  O   UNL     1       8.795   1.655   1.101  1.00  0.00    -0.356 OA
HETATM   22  C   UNL     1       9.645   0.649   1.637  1.00  0.00     0.210 C 
ENDBRANCH  18  21
ENDBRANCH   1  15
TORSDOF 5
