REMARK  5 active torsions:
REMARK  status: ('A' for Active; 'I' for Inactive)
REMARK    1  A    between atoms: O_2  and  C_3 
REMARK    2  A    between atoms: C_4  and  O_5 
REMARK    3  A    between atoms: C_8  and  C_9 
REMARK    4  A    between atoms: N_10  and  N_11 
REMARK       I    between atoms: N_11  and  C_12 
REMARK    5  A    between atoms: C_12  and  C_13 
ROOT
HETATM    1  N   UNL     1       0.812  -6.478   0.978  1.00  0.00    -0.242 N 
HETATM    2  C   UNL     1      -0.111  -6.671   1.995  1.00  0.00     0.292 C 
HETATM    3  O   UNL     1      -0.580  -7.757   2.328  1.00  0.00    -0.264 OA
HETATM    4  H   UNL     1       1.127  -5.526   0.808  1.00  0.00     0.192 HD
ENDROOT
BRANCH   2   5
HETATM    5  C   UNL     1      -0.484  -5.413   2.664  1.00  0.00     0.154 A 
HETATM    6  N   UNL     1       0.049  -4.219   2.308  1.00  0.00    -0.168 NA
HETATM    7  N   UNL     1      -0.511  -3.338   3.168  1.00  0.00    -0.276 N 
HETATM    8  H   UNL     1      -0.255  -2.360   3.091  1.00  0.00     0.189 HD
HETATM    9  C   UNL     1      -1.374  -3.910   4.050  1.00  0.00     0.069 A 
HETATM   10  C   UNL     1      -1.394  -5.251   3.739  1.00  0.00     0.007 A 
HETATM   11  C   UNL     1      -2.149  -3.307   5.121  1.00  0.00    -0.001 A 
HETATM   12  C   UNL     1      -2.217  -6.221   4.511  1.00  0.00     0.048 C 
HETATM   13  C   UNL     1      -3.425  -5.518   5.173  1.00  0.00     0.044 C 
HETATM   14  C   UNL     1      -3.136  -4.126   5.724  1.00  0.00    -0.045 A 
HETATM   15  C   UNL     1      -3.911  -3.614   6.772  1.00  0.00     0.008 A 
HETATM   16  C   UNL     1      -3.692  -2.316   7.234  1.00  0.00     0.001 A 
HETATM   17  C   UNL     1      -2.712  -1.517   6.645  1.00  0.00     0.001 A 
HETATM   18  C   UNL     1      -1.941  -2.007   5.589  1.00  0.00     0.014 A 
ENDBRANCH   2   5
BRANCH   1  19
HETATM   19  N   UNL     1       1.303  -7.539   0.281  1.00  0.00    -0.184 NA
HETATM   20  C   UNL     1       2.155  -7.267  -0.653  1.00  0.00     0.150 C 
BRANCH  20  21
HETATM   21  C   UNL     1       2.760  -8.347  -1.462  1.00  0.00    -0.014 A 
HETATM   22  C   UNL     1       2.467  -9.686  -1.175  1.00  0.00     0.016 A 
HETATM   23  C   UNL     1       3.047 -10.701  -1.932  1.00  0.00     0.040 A 
HETATM   24  C   UNL     1       3.906 -10.363  -2.969  1.00  0.00     0.099 A 
HETATM   25  C   UNL     1       4.201  -9.028  -3.278  1.00  0.00     0.102 A 
HETATM   26  C   UNL     1       3.628  -8.012  -2.512  1.00  0.00     0.052 A 
BRANCH  24  27
HETATM   27  O   UNL     1       4.464 -11.378  -3.699  1.00  0.00    -0.358 OA
HETATM   28  H   UNL     1       5.029 -10.936  -4.361  1.00  0.00     0.218 HD
ENDBRANCH  24  27
BRANCH  25  29
HETATM   29  O   UNL     1       5.060  -8.860  -4.334  1.00  0.00    -0.353 OA
HETATM   30  C   UNL     1       5.252  -7.529  -4.798  1.00  0.00     0.210 C 
ENDBRANCH  25  29
ENDBRANCH  20  21
ENDBRANCH   1  19
TORSDOF 5
