REMARK  11 active torsions:
REMARK  status: ('A' for Active; 'I' for Inactive)
REMARK    1  A    between atoms: C_2  and  O_3 
REMARK    2  A    between atoms: O_3  and  C_4 
REMARK    3  A    between atoms: C_7  and  C_8 
REMARK       I    between atoms: C_8  and  N_9 
REMARK    4  A    between atoms: N_9  and  C_10 
REMARK    5  A    between atoms: C_10  and  N_11 
REMARK    6  A    between atoms: N_11  and  C_12 
REMARK    7  A    between atoms: C_13  and  C_14 
REMARK       I    between atoms: C_14  and  N_15 
REMARK    8  A    between atoms: N_15  and  C_16 
REMARK    9  A    between atoms: C_16  and  C_17 
REMARK   10  A    between atoms: C_17  and  C_18 
REMARK   11  A    between atoms: C_18  and  O_19 
ROOT
HETATM    1  N   UNL     1       6.240   4.714  -1.820  1.00  0.00    -0.332 N 
HETATM    2  H   UNL     1       5.407   5.219  -2.114  1.00  0.00     0.168 HD
ENDROOT
BRANCH   1   3
HETATM    3  C   UNL     1       6.936   4.120  -2.874  1.00  0.00     0.179 C 
HETATM    4  S   UNL     1       7.472   2.536  -2.892  1.00  0.00    -0.040 SA
BRANCH   3   5
HETATM    5  N   UNL     1       7.051   5.042  -3.923  1.00  0.00    -0.299 N 
HETATM    6  C   UNL     1       7.576   4.834  -5.196  1.00  0.00     0.257 C 
HETATM    7  O   UNL     1       7.525   3.782  -5.823  1.00  0.00    -0.267 OA
HETATM    8  H   UNL     1       7.096   5.989  -3.576  1.00  0.00     0.171 HD
BRANCH   6   9
HETATM    9  C   UNL     1       8.167   6.025  -5.863  1.00  0.00     0.032 A 
HETATM   10  C   UNL     1       9.271   5.821  -6.700  1.00  0.00     0.020 A 
HETATM   11  C   UNL     1       9.869   6.897  -7.364  1.00  0.00     0.038 A 
HETATM   12  C   UNL     1       9.358   8.184  -7.207  1.00  0.00     0.068 A 
HETATM   13  C   UNL     1       8.255   8.387  -6.372  1.00  0.00     0.038 A 
HETATM   14  C   UNL     1       7.652   7.315  -5.705  1.00  0.00     0.020 A 
BRANCH  12  15
HETATM   15  O   UNL     1       9.837   9.316  -7.808  1.00  0.00    -0.352 OA
BRANCH  15  16
HETATM   16  C   UNL     1      10.818   9.137  -8.830  1.00  0.00     0.171 C 
HETATM   17  C   UNL     1      11.075  10.487  -9.476  1.00  0.00     0.034 C 
ENDBRANCH  15  16
ENDBRANCH  12  15
ENDBRANCH   6   9
ENDBRANCH   3   5
ENDBRANCH   1   3
BRANCH   1  18
HETATM   18  C   UNL     1       6.293   4.389  -0.439  1.00  0.00     0.050 A 
HETATM   19  C   UNL     1       5.164   4.568   0.382  1.00  0.00     0.058 A 
HETATM   20  C   UNL     1       5.255   4.380   1.770  1.00  0.00     0.019 A 
HETATM   21  C   UNL     1       6.463   3.992   2.346  1.00  0.00     0.001 A 
HETATM   22  C   UNL     1       7.582   3.802   1.541  1.00  0.00     0.002 A 
HETATM   23  C   UNL     1       7.502   4.008   0.160  1.00  0.00     0.030 A 
BRANCH  19  24
HETATM   24  C   UNL     1       3.821   4.905  -0.156  1.00  0.00     0.253 C 
HETATM   25  N   UNL     1       3.453   4.224  -1.300  1.00  0.00    -0.357 N 
HETATM   26  H   UNL     1       4.023   3.433  -1.587  1.00  0.00     0.162 HD
HETATM   27  O   UNL     1       3.104   5.710   0.423  1.00  0.00    -0.268 OA
BRANCH  25  28
HETATM   28  C   UNL     1       2.097   4.296  -1.813  1.00  0.00     0.125 C 
BRANCH  28  29
HETATM   29  C   UNL     1       1.178   3.310  -1.100  1.00  0.00     0.046 C 
BRANCH  29  30
HETATM   30  C   UNL     1      -0.241   3.380  -1.644  1.00  0.00     0.165 C 
BRANCH  30  31
HETATM   31  O   UNL     1      -1.069   2.440  -0.972  1.00  0.00    -0.401 OA
HETATM   32  H   UNL     1      -0.694   1.554  -1.116  1.00  0.00     0.209 HD
ENDBRANCH  30  31
ENDBRANCH  29  30
ENDBRANCH  28  29
ENDBRANCH  25  28
ENDBRANCH  19  24
ENDBRANCH   1  18
TORSDOF 11
