REMARK  9 active torsions:
REMARK  status: ('A' for Active; 'I' for Inactive)
REMARK    1  A    between atoms: C_6  and  C_7 
REMARK    2  A    between atoms: C_7  and  C_8 
REMARK       I    between atoms: C_8  and  N_9 
REMARK    3  A    between atoms: N_9  and  C_10 
REMARK    4  A    between atoms: C_10  and  C_11 
REMARK    5  A    between atoms: C_11  and  N_12 
REMARK    6  A    between atoms: C_17  and  C_18 
REMARK    7  A    between atoms: C_21  and  C_22 
REMARK    8  A    between atoms: C_29  and  C_30 
REMARK       I    between atoms: C_30  and  N_31 
REMARK    9  A    between atoms: N_31  and  C_32 
ROOT
HETATM    1  C   UNL     1       1.912   1.507   0.186  1.00  0.00     0.071 C 
HETATM    2  C   UNL     1       3.115   0.606   0.058  1.00  0.00     0.047 C 
HETATM    3  N   UNL     1       4.295   1.154   0.598  1.00  0.00    -0.229 NA
HETATM    4  C   UNL     1       5.161   0.318   1.083  1.00  0.00     0.170 C 
HETATM    5  N   UNL     1       5.003  -1.264   0.904  1.00  0.00    -0.319 N 
HETATM    6  C   UNL     1       4.953  -1.636   2.151  1.00  0.00     0.011 C 
HETATM    7  C   UNL     1       4.357  -1.391  -0.412  1.00  0.00     0.165 C 
HETATM    8  S   UNL     1       6.325   0.667   2.322  1.00  0.00    -0.086 SA
HETATM    9  C   UNL     1       6.165  -1.084   2.908  1.00  0.00     0.135 C 
HETATM   10  C   UNL     1       3.053  -0.681  -0.378  1.00  0.00     0.062 C 
ENDROOT
BRANCH   6  11
HETATM   11  C   UNL     1       3.624  -1.787   2.850  1.00  0.00     0.156 C 
BRANCH  11  12
HETATM   12  C   UNL     1       2.955  -3.128   2.905  1.00  0.00     0.223 C 
HETATM   13  N   UNL     1       1.576  -3.041   2.970  1.00  0.00    -0.359 N 
HETATM   14  H   UNL     1       1.163  -2.304   2.385  1.00  0.00     0.162 HD
HETATM   15  O   UNL     1       3.591  -4.163   3.025  1.00  0.00    -0.273 OA
BRANCH  13  16
HETATM   16  C   UNL     1       0.735  -4.227   3.139  1.00  0.00     0.150 C 
BRANCH  16  17
HETATM   17  C   UNL     1       0.607  -4.668   4.612  1.00  0.00     0.253 C 
BRANCH  17  18
HETATM   18  N   UNL     1       0.294  -3.480   5.522  1.00  0.00    -0.077 N 
HETATM   19  H   UNL     1       0.950  -2.739   5.247  1.00  0.00     0.279 HD
HETATM   20  C   UNL     1      -1.096  -2.927   5.354  1.00  0.00     0.269 C 
HETATM   21  C   UNL     1       0.565  -3.802   6.970  1.00  0.00     0.269 C 
ENDBRANCH  17  18
ENDBRANCH  16  17
ENDBRANCH  13  16
ENDBRANCH  11  12
ENDBRANCH   6  11
BRANCH   7  22
HETATM   22  C   UNL     1       4.667  -2.567  -1.314  1.00  0.00    -0.030 A 
HETATM   23  C   UNL     1       5.279  -3.751  -0.895  1.00  0.00     0.010 A 
HETATM   24  C   UNL     1       5.843  -4.626  -1.843  1.00  0.00     0.008 A 
HETATM   25  C   UNL     1       5.795  -4.351  -3.221  1.00  0.00    -0.055 A 
HETATM   26  C   UNL     1       5.079  -3.233  -3.643  1.00  0.00     0.008 A 
HETATM   27  C   UNL     1       4.543  -2.349  -2.709  1.00  0.00     0.010 A 
BRANCH  25  28
HETATM   28  C   UNL     1       6.547  -5.234  -4.210  1.00  0.00     0.010 C 
HETATM   29  C   UNL     1       5.625  -6.290  -4.817  1.00  0.00     0.015 C 
HETATM   30  C   UNL     1       7.245  -4.438  -5.325  1.00  0.00     0.015 C 
ENDBRANCH  25  28
ENDBRANCH   7  22
BRANCH  10  31
HETATM   31  C   UNL     1       1.783  -1.452  -0.282  1.00  0.00     0.256 C 
HETATM   32  N   UNL     1       1.531  -2.335  -1.297  1.00  0.00    -0.323 N 
HETATM   33  H   UNL     1       2.158  -2.388  -2.090  1.00  0.00     0.169 HD
HETATM   34  O   UNL     1       1.171  -1.373   0.785  1.00  0.00    -0.267 OA
BRANCH  32  35
HETATM   35  C   UNL     1       0.517  -3.323  -1.313  1.00  0.00     0.035 A 
HETATM   36  C   UNL     1      -0.595  -3.311  -0.468  1.00  0.00     0.029 A 
HETATM   37  C   UNL     1      -1.543  -4.338  -0.531  1.00  0.00     0.002 A 
HETATM   38  C   UNL     1      -1.383  -5.386  -1.433  1.00  0.00     0.000 A 
HETATM   39  C   UNL     1      -0.284  -5.401  -2.287  1.00  0.00     0.002 A 
HETATM   40  C   UNL     1       0.656  -4.368  -2.236  1.00  0.00     0.029 A 
ENDBRANCH  32  35
ENDBRANCH  10  31
TORSDOF 9
