REMARK  7 active torsions:
REMARK  status: ('A' for Active; 'I' for Inactive)
REMARK    1  A    between atoms: C_3  and  C_4 
REMARK    2  A    between atoms: N_5  and  C_6 
REMARK    3  A    between atoms: C_9  and  N_10 
REMARK       I    between atoms: N_10  and  C_11 
REMARK       I    between atoms: C_11  and  N_12 
REMARK    4  A    between atoms: N_12  and  C_13 
REMARK    5  A    between atoms: C_15  and  C_16 
REMARK    6  A    between atoms: C_32  and  C_33 
REMARK    7  A    between atoms: C_33  and  N_34 
ROOT
HETATM    1  C   UNL     1       3.334   3.025   0.561  1.00  0.00     0.169 C 
HETATM    2  C   UNL     1       2.615   3.629  -0.635  1.00  0.00     0.179 C 
HETATM    3  C   UNL     1       3.136   5.056  -0.729  1.00  0.00     0.177 C 
HETATM    4  C   UNL     1       1.900   5.944  -0.675  1.00  0.00     0.141 C 
HETATM    5  C   UNL     1       0.748   4.964  -0.891  1.00  0.00     0.196 C 
HETATM    6  O   UNL     1       1.197   3.688  -0.400  1.00  0.00    -0.379 OA
HETATM    7  O   UNL     1       3.979   5.279   0.416  1.00  0.00    -0.379 OA
HETATM    8  C   UNL     1       4.498   3.987   0.771  1.00  0.00     0.198 C 
ENDROOT
BRANCH   1   9
HETATM    9  N   UNL     1       3.691   1.644   0.370  1.00  0.00    -0.221 N 
HETATM   10  C   UNL     1       2.916   0.502   0.402  1.00  0.00     0.182 A 
HETATM   11  N   UNL     1       3.687  -0.495  -0.001  1.00  0.00    -0.108 NA
HETATM   12  N   UNL     1       4.924   0.025  -0.249  1.00  0.00    -0.023 NA
HETATM   13  N   UNL     1       4.934   1.328  -0.039  1.00  0.00    -0.043 NA
BRANCH  10  14
HETATM   14  C   UNL     1       1.493   0.350   0.711  1.00  0.00     0.014 A 
HETATM   15  C   UNL     1       0.839   1.047   1.730  1.00  0.00     0.015 A 
HETATM   16  C   UNL     1      -0.518   0.828   1.986  1.00  0.00     0.002 A 
HETATM   17  C   UNL     1      -1.235  -0.114   1.250  1.00  0.00     0.009 A 
HETATM   18  C   UNL     1      -0.596  -0.864   0.256  1.00  0.00    -0.032 A 
HETATM   19  C   UNL     1       0.761  -0.613  -0.008  1.00  0.00     0.024 A 
BRANCH  18  20
HETATM   20  C   UNL     1      -1.342  -1.918  -0.514  1.00  0.00     0.273 C 
BRANCH  20  21
HETATM   21  N   UNL     1      -2.117  -1.365  -1.678  1.00  0.00    -0.067 N 
HETATM   22  H   UNL     1      -2.668  -0.578  -1.313  1.00  0.00     0.280 HD
HETATM   23  C   UNL     1      -3.086  -2.358  -2.290  1.00  0.00     0.235 C 
HETATM   24  C   UNL     1      -2.602  -2.542  -3.714  1.00  0.00     0.029 C 
HETATM   25  C   UNL     1      -2.020  -1.187  -4.060  1.00  0.00     0.029 C 
HETATM   26  C   UNL     1      -1.256  -0.821  -2.803  1.00  0.00     0.235 C 
ENDBRANCH  20  21
ENDBRANCH  18  20
ENDBRANCH  10  14
ENDBRANCH   1   9
BRANCH   4  27
HETATM   27  N   UNL     1       1.944   7.086  -1.584  1.00  0.00    -0.334 N 
HETATM   28  C   UNL     1       2.056   6.918  -2.950  1.00  0.00     0.321 C 
HETATM   29  N   UNL     1       2.189   8.126  -3.595  1.00  0.00    -0.309 N 
HETATM   30  O   UNL     1       2.025   5.808  -3.465  1.00  0.00    -0.247 OA
HETATM   31  H   UNL     1       2.209   8.947  -3.010  1.00  0.00     0.170 HD
HETATM   32  H   UNL     1       2.364   7.924  -1.205  1.00  0.00     0.164 HD
BRANCH  29  33
HETATM   33  C   UNL     1       2.295   8.353  -4.983  1.00  0.00     0.037 A 
HETATM   34  C   UNL     1       2.196   7.347  -5.948  1.00  0.00     0.045 A 
HETATM   35  C   UNL     1       2.289   7.646  -7.320  1.00  0.00     0.050 A 
HETATM   36  C   UNL     1       2.508   8.973  -7.715  1.00  0.00     0.016 A 
HETATM   37  C   UNL     1       2.612   9.982  -6.760  1.00  0.00     0.003 A 
HETATM   38  C   UNL     1       2.500   9.673  -5.403  1.00  0.00     0.029 A 
BRANCH  35  39
HETATM   39  C   UNL     1       2.178   6.556  -8.357  1.00  0.00     0.417 C 
HETATM   40  F   UNL     1       1.658   5.393  -7.873  1.00  0.00    -0.166 F 
HETATM   41  F   UNL     1       1.377   6.909  -9.402  1.00  0.00    -0.166 F 
HETATM   42  F   UNL     1       3.382   6.230  -8.901  1.00  0.00    -0.166 F 
ENDBRANCH  35  39
ENDBRANCH  29  33
ENDBRANCH   4  27
TORSDOF 7
