REMARK  2 active torsions:
REMARK  status: ('A' for Active; 'I' for Inactive)
REMARK    1  A    between atoms: C_2  and  C_3 
REMARK    2  A    between atoms: C_6  and  C_7 
ROOT
HETATM    1  C   UNL     1       4.561   3.290   4.615  1.00  0.00     0.197 C 
HETATM    2  N   UNL     1       4.162   4.660   4.254  1.00  0.00    -0.345 N 
HETATM    3  C   UNL     1       4.768   5.714   4.792  1.00  0.00     0.113 C 
HETATM    4  N   UNL     1       4.395   6.945   4.469  1.00  0.00    -0.376 N 
HETATM    5  H   UNL     1       4.921   7.717   4.862  1.00  0.00     0.161 HD
HETATM    6  C   UNL     1       5.887   5.510   5.726  1.00  0.00     0.029 A 
HETATM    7  C   UNL     1       6.500   4.252   5.678  1.00  0.00     0.025 A 
HETATM    8  N   UNL     1       6.005   3.297   4.778  1.00  0.00    -0.267 NA
HETATM    9  C   UNL     1       6.365   6.477   6.623  1.00  0.00     0.019 A 
HETATM   10  C   UNL     1       7.482   6.204   7.418  1.00  0.00     0.025 A 
HETATM   11  C   UNL     1       8.129   4.976   7.308  1.00  0.00     0.035 A 
HETATM   12 CL   UNL     1       9.519   4.654   8.265  1.00  0.00    -0.084 Cl
HETATM   13  C   UNL     1       7.651   4.004   6.432  1.00  0.00     0.048 A 
HETATM   14  C   UNL     1       3.069   4.811   3.282  1.00  0.00     0.128 C 
HETATM   15  C   UNL     1       3.223   6.111   2.525  1.00  0.00     0.039 C 
HETATM   16  C   UNL     1       3.311   7.229   3.533  1.00  0.00     0.123 C 
HETATM   17  H   UNL     1       6.358   2.367   4.993  1.00  0.00     0.130 HD
ENDROOT
BRANCH   1  18
HETATM   18  C   UNL     1       3.837   2.751   5.839  1.00  0.00    -0.021 A 
HETATM   19  C   UNL     1       2.991   3.534   6.641  1.00  0.00     0.011 A 
HETATM   20  C   UNL     1       2.373   2.997   7.775  1.00  0.00     0.007 A 
HETATM   21  C   UNL     1       2.586   1.665   8.139  1.00  0.00    -0.059 A 
HETATM   22  C   UNL     1       3.407   0.868   7.336  1.00  0.00     0.007 A 
HETATM   23  C   UNL     1       4.023   1.403   6.202  1.00  0.00     0.011 A 
BRANCH  21  24
HETATM   24  C   UNL     1       1.923   1.089   9.366  1.00  0.00     0.034 C 
HETATM   25  C   UNL     1       0.594   0.429   9.036  1.00  0.00     0.010 C 
ENDBRANCH  21  24
ENDBRANCH   1  18
TORSDOF 2
