REMARK  5 active torsions:
REMARK  status: ('A' for Active; 'I' for Inactive)
REMARK    1  A    between atoms: C_2  and  O_3 
REMARK    2  A    between atoms: C_4  and  C_5 
REMARK    3  A    between atoms: C_5  and  O_6 
REMARK    4  A    between atoms: C_9  and  C_10 
REMARK    5  A    between atoms: C_22  and  O_23 
ROOT
HETATM    1  C   UNL     1       2.162  -0.164   1.716  1.00  0.00     0.047 C 
HETATM    2  C   UNL     1       2.402  -0.164   0.196  1.00  0.00     0.073 C 
HETATM    3  C   UNL     1       2.767   1.260  -0.340  1.00  0.00     0.133 C 
HETATM    4  C   UNL     1       3.277   1.354  -1.809  1.00  0.00     0.074 C 
HETATM    5  C   UNL     1       3.919   0.091  -2.266  1.00  0.00     0.030 A 
HETATM    6  C   UNL     1       3.963  -1.070  -1.524  1.00  0.00     0.042 A 
HETATM    7  N   UNL     1       4.671  -1.982  -2.255  1.00  0.00    -0.279 N 
HETATM    8  H   UNL     1       4.915  -2.938  -2.014  1.00  0.00     0.189 HD
HETATM    9  N   UNL     1       5.098  -1.486  -3.435  1.00  0.00    -0.149 NA
HETATM   10  C   UNL     1       4.659  -0.236  -3.404  1.00  0.00     0.190 A 
HETATM   11  C   UNL     1       3.428  -1.279  -0.156  1.00  0.00     0.097 C 
ENDROOT
BRANCH   4  12
HETATM   12  C   UNL     1       2.181   1.727  -2.806  1.00  0.00    -0.048 A 
HETATM   13  C   UNL     1       1.977   3.095  -3.075  1.00  0.00     0.009 A 
HETATM   14  C   UNL     1       0.990   3.519  -3.969  1.00  0.00     0.024 A 
HETATM   15  C   UNL     1       0.182   2.581  -4.601  1.00  0.00     0.034 A 
HETATM   16 CL   UNL     1      -1.033   3.099  -5.704  1.00  0.00    -0.084 Cl
HETATM   17  C   UNL     1       0.355   1.224  -4.349  1.00  0.00     0.024 A 
HETATM   18  C   UNL     1       1.349   0.800  -3.459  1.00  0.00     0.009 A 
ENDBRANCH   4  12
BRANCH   3  19
HETATM   19  C   UNL     1       3.835   1.886   0.533  1.00  0.00     0.266 C 
HETATM   20  O   UNL     1       4.909   1.368   0.805  1.00  0.00    -0.265 OA
BRANCH  19  21
HETATM   21  O   UNL     1       3.425   3.108   0.975  1.00  0.00    -0.326 OA
HETATM   22  C   UNL     1       4.350   3.759   1.848  1.00  0.00     0.213 C 
ENDBRANCH  19  21
ENDBRANCH   3  19
BRANCH   2  23
HETATM   23  O   UNL     1       1.119  -0.532  -0.352  1.00  0.00    -0.389 OA
HETATM   24  H   UNL     1       1.253  -0.806  -1.275  1.00  0.00     0.210 HD
ENDBRANCH   2  23
BRANCH  10  25
HETATM   25  O   UNL     1       4.992   0.513  -4.449  1.00  0.00    -0.343 OA
HETATM   26  H   UNL     1       5.512  -0.079  -5.019  1.00  0.00     0.219 HD
ENDBRANCH  10  25
TORSDOF 5
