REMARK  10 active torsions:
REMARK  status: ('A' for Active; 'I' for Inactive)
REMARK    1  A    between atoms: C_2  and  C_3 
REMARK    2  A    between atoms: C_3  and  C_4 
REMARK    3  A    between atoms: C_4  and  O_5 
REMARK    4  A    between atoms: O_5  and  C_6 
REMARK    5  A    between atoms: C_9  and  C_10 
REMARK       I    between atoms: C_10  and  N_11 
REMARK    6  A    between atoms: N_11  and  C_12 
REMARK    7  A    between atoms: C_12  and  N_13 
REMARK    8  A    between atoms: N_13  and  C_14 
REMARK    9  A    between atoms: C_16  and  O_17 
REMARK   10  A    between atoms: C_18  and  C_19 
ROOT
HETATM    1  N   UNL     1       9.358   5.820   2.719  1.00  0.00    -0.333 N 
HETATM    2  H   UNL     1       9.053   6.509   2.041  1.00  0.00     0.168 HD
ENDROOT
BRANCH   1   3
HETATM    3  C   UNL     1      10.697   5.635   2.720  1.00  0.00     0.179 C 
HETATM    4  S   UNL     1      11.675   6.810   2.037  1.00  0.00    -0.040 SA
BRANCH   3   5
HETATM    5  N   UNL     1      11.294   4.519   3.214  1.00  0.00    -0.299 N 
HETATM    6  C   UNL     1      10.832   3.206   3.143  1.00  0.00     0.257 C 
HETATM    7  O   UNL     1       9.679   2.863   2.913  1.00  0.00    -0.267 OA
HETATM    8  H   UNL     1      12.293   4.637   3.283  1.00  0.00     0.171 HD
BRANCH   6   9
HETATM    9  C   UNL     1      11.854   2.150   3.419  1.00  0.00     0.032 A 
HETATM   10  C   UNL     1      11.420   0.948   3.995  1.00  0.00     0.020 A 
HETATM   11  C   UNL     1      12.335  -0.064   4.302  1.00  0.00     0.038 A 
HETATM   12  C   UNL     1      13.687   0.115   4.013  1.00  0.00     0.068 A 
HETATM   13  C   UNL     1      14.128   1.303   3.436  1.00  0.00     0.038 A 
HETATM   14  C   UNL     1      13.214   2.314   3.120  1.00  0.00     0.020 A 
BRANCH  12  15
HETATM   15  O   UNL     1      14.644  -0.797   4.359  1.00  0.00    -0.351 OA
BRANCH  15  16
HETATM   16  C   UNL     1      14.430  -2.088   3.779  1.00  0.00     0.175 C 
BRANCH  16  17
HETATM   17  C   UNL     1      15.552  -3.019   4.239  1.00  0.00     0.026 C 
BRANCH  17  18
HETATM   18  C   UNL     1      15.513  -3.257   5.751  1.00  0.00    -0.002 C 
HETATM   19  C   UNL     1      16.600  -4.224   6.194  1.00  0.00     0.005 C 
ENDBRANCH  17  18
ENDBRANCH  16  17
ENDBRANCH  15  16
ENDBRANCH  12  15
ENDBRANCH   6   9
ENDBRANCH   3   5
ENDBRANCH   1   3
BRANCH   1  20
HETATM   20  C   UNL     1       8.412   5.549   3.736  1.00  0.00     0.036 A 
HETATM   21  C   UNL     1       7.085   5.914   3.481  1.00  0.00     0.067 A 
HETATM   22  C   UNL     1       6.102   5.789   4.473  1.00  0.00     0.082 A 
HETATM   23  C   UNL     1       6.417   5.295   5.746  1.00  0.00     0.050 A 
HETATM   24  C   UNL     1       7.752   4.924   5.983  1.00  0.00     0.021 A 
HETATM   25  C   UNL     1       8.739   5.052   4.995  1.00  0.00     0.030 A 
BRANCH  22  26
HETATM   26  O   UNL     1       4.828   6.202   4.181  1.00  0.00    -0.360 OA
HETATM   27  H   UNL     1       4.767   6.445   3.243  1.00  0.00     0.217 HD
ENDBRANCH  22  26
BRANCH  23  28
HETATM   28  C   UNL     1       5.463   5.184   6.853  1.00  0.00     0.183 A 
HETATM   29  O   UNL     1       4.124   5.233   6.552  1.00  0.00    -0.289 OA
HETATM   30  C   UNL     1       3.504   5.136   7.761  1.00  0.00     0.107 A 
HETATM   31  C   UNL     1       4.484   5.014   8.730  1.00  0.00     0.093 A 
HETATM   32  C   UNL     1       2.137   5.159   8.011  1.00  0.00     0.046 A 
HETATM   33  N   UNL     1       5.724   5.029   8.143  1.00  0.00    -0.221 NA
HETATM   34  C   UNL     1       4.098   4.911  10.071  1.00  0.00     0.035 A 
HETATM   35  C   UNL     1       2.726   4.934  10.370  1.00  0.00     0.009 A 
HETATM   36  C   UNL     1       1.753   5.044   9.359  1.00  0.00    -0.059 A 
HETATM   37  C   UNL     1       0.297   5.098   9.730  1.00  0.00     0.048 C 
ENDBRANCH  23  28
ENDBRANCH   1  20
TORSDOF 10
