REMARK  6 active torsions:
REMARK  status: ('A' for Active; 'I' for Inactive)
REMARK    1  A    between atoms: N_7  and  C_8 
REMARK    2  A    between atoms: C_8  and  C_9 
REMARK    3  A    between atoms: C_9  and  N_10 
REMARK    4  A    between atoms: C_17  and  C_18 
REMARK    5  A    between atoms: C_18  and  N_19 
REMARK       I    between atoms: N_19  and  C_20 
REMARK    6  A    between atoms: C_20  and  C_21 
ROOT
HETATM    1  C   UNL     1      -2.527   0.408  -0.100  1.00  0.00     0.001 A 
HETATM    2  C   UNL     1      -1.344   1.148  -0.011  1.00  0.00     0.014 A 
HETATM    3  C   UNL     1      -0.109   0.491   0.025  1.00  0.00     0.008 A 
HETATM    4  C   UNL     1      -0.068  -0.901  -0.036  1.00  0.00     0.046 A 
HETATM    5  C   UNL     1       1.234  -1.594  -0.023  1.00  0.00     0.274 A 
HETATM    6  O   UNL     1       1.293  -2.815  -0.140  1.00  0.00    -0.266 OA
HETATM    7  N   UNL     1       2.362  -0.792   0.121  1.00  0.00    -0.232 N 
HETATM    8  N   UNL     1       2.329   0.570   0.163  1.00  0.00    -0.172 NA
HETATM    9  C   UNL     1       1.190   1.195   0.122  1.00  0.00     0.084 A 
HETATM   10  C   UNL     1      -1.254  -1.641  -0.126  1.00  0.00     0.018 A 
HETATM   11  C   UNL     1      -2.482  -0.984  -0.156  1.00  0.00     0.001 A 
ENDROOT
BRANCH   9  12
HETATM   12  C   UNL     1       1.236   2.720   0.154  1.00  0.00     0.185 C 
BRANCH  12  13
HETATM   13  N   UNL     1       1.179   3.236  -1.198  1.00  0.00    -0.351 N 
HETATM   14  C   UNL     1       2.316   3.513  -1.924  1.00  0.00     0.253 C 
HETATM   15  O   UNL     1       3.443   3.230  -1.525  1.00  0.00    -0.268 OA
HETATM   16  H   UNL     1       0.277   3.466  -1.597  1.00  0.00     0.163 HD
BRANCH  14  17
HETATM   17  C   UNL     1       2.131   4.116  -3.280  1.00  0.00     0.048 A 
HETATM   18  C   UNL     1       1.129   5.026  -3.661  1.00  0.00     0.022 A 
HETATM   19  I   UNL     1      -0.307   5.864  -2.370  1.00  0.00    -0.043 I 
HETATM   20  C   UNL     1       1.077   5.493  -4.985  1.00  0.00     0.019 A 
HETATM   21  C   UNL     1       2.021   5.080  -5.925  1.00  0.00     0.001 A 
HETATM   22  C   UNL     1       3.029   4.200  -5.552  1.00  0.00     0.001 A 
HETATM   23  C   UNL     1       3.084   3.724  -4.241  1.00  0.00     0.018 A 
ENDBRANCH  14  17
ENDBRANCH  12  13
ENDBRANCH   9  12
BRANCH   7  24
HETATM   24  C   UNL     1       3.679  -1.402  -0.004  1.00  0.00     0.182 C 
BRANCH  24  25
HETATM   25  C   UNL     1       4.813  -0.523   0.538  1.00  0.00     0.256 C 
BRANCH  25  26
HETATM   26  N   UNL     1       6.174  -1.168   0.334  1.00  0.00    -0.070 N 
HETATM   27  H   UNL     1       6.136  -2.117   0.731  1.00  0.00     0.279 HD
HETATM   28  C   UNL     1       7.286  -0.422   1.056  1.00  0.00     0.235 C 
HETATM   29  C   UNL     1       8.136   0.161  -0.054  1.00  0.00     0.029 C 
HETATM   30  C   UNL     1       8.049  -0.891  -1.138  1.00  0.00     0.029 C 
HETATM   31  C   UNL     1       6.582  -1.269  -1.127  1.00  0.00     0.235 C 
ENDBRANCH  25  26
ENDBRANCH  24  25
ENDBRANCH   7  24
TORSDOF 6
