REMARK  7 active torsions:
REMARK  status: ('A' for Active; 'I' for Inactive)
REMARK    1  A    between atoms: C_2  and  N_3 
REMARK       I    between atoms: N_3  and  C_4 
REMARK    2  A    between atoms: C_4  and  C_5 
REMARK    3  A    between atoms: C_9  and  N_10 
REMARK       I    between atoms: N_10  and  C_11 
REMARK    4  A    between atoms: C_11  and  C_12 
REMARK    5  A    between atoms: C_12  and  S_13 
REMARK    6  A    between atoms: S_13  and  C_14 
REMARK    7  A    between atoms: C_14  and  C_15 
ROOT
HETATM    1  N   UNL     1      11.444  -3.726  -3.023  1.00  0.00    -0.326 N 
HETATM    2  C   UNL     1      10.073  -3.904  -2.895  1.00  0.00     0.231 C 
HETATM    3  O   UNL     1       9.295  -4.273  -3.769  1.00  0.00    -0.272 OA
HETATM    4  H   UNL     1      11.922  -3.433  -2.181  1.00  0.00     0.169 HD
ENDROOT
BRANCH   2   5
HETATM    5  C   UNL     1       9.570  -3.591  -1.488  1.00  0.00     0.177 C 
BRANCH   5   6
HETATM    6  S   UNL     1      10.035  -4.973  -0.384  1.00  0.00    -0.147 SA
BRANCH   6   7
HETATM    7  C   UNL     1       9.211  -4.468   1.176  1.00  0.00     0.113 C 
HETATM    8  C   UNL     1       9.799  -3.163   1.708  1.00  0.00     0.029 C 
BRANCH   7   9
HETATM    9  C   UNL     1       7.716  -4.417   1.061  1.00  0.00     0.118 A 
HETATM   10  N   UNL     1       6.912  -3.526   1.609  1.00  0.00    -0.232 NA
HETATM   11  C   UNL     1       5.636  -3.935   1.310  1.00  0.00     0.085 A 
HETATM   12  C   UNL     1       5.654  -5.092   0.542  1.00  0.00     0.062 A 
HETATM   13  C   UNL     1       4.404  -3.368   1.668  1.00  0.00     0.034 A 
HETATM   14  N   UNL     1       6.986  -5.379   0.397  1.00  0.00    -0.342 N 
HETATM   15  C   UNL     1       4.497  -5.728   0.087  1.00  0.00     0.032 A 
HETATM   16  H   UNL     1       7.377  -6.159  -0.113  1.00  0.00     0.167 HD
HETATM   17  C   UNL     1       3.277  -5.148   0.453  1.00  0.00     0.002 A 
HETATM   18  C   UNL     1       3.227  -3.990   1.234  1.00  0.00     0.002 A 
ENDBRANCH   7   9
ENDBRANCH   6   7
ENDBRANCH   5   6
ENDBRANCH   2   5
BRANCH   1  19
HETATM   19  C   UNL     1      12.262  -4.002  -4.143  1.00  0.00     0.040 A 
HETATM   20  C   UNL     1      13.650  -3.749  -4.050  1.00  0.00    -0.034 A 
HETATM   21  C   UNL     1      14.491  -4.070  -5.136  1.00  0.00     0.026 A 
HETATM   22  C   UNL     1      14.278  -3.143  -2.823  1.00  0.00     0.050 C 
HETATM   23  C   UNL     1      13.971  -4.639  -6.303  1.00  0.00     0.032 A 
HETATM   24  C   UNL     1      12.596  -4.848  -6.404  1.00  0.00     0.019 A 
HETATM   25  C   UNL     1      11.752  -4.535  -5.332  1.00  0.00     0.031 A 
BRANCH  23  26
HETATM   26  C   UNL     1      14.836  -5.021  -7.457  1.00  0.00     0.251 C 
HETATM   27  N   UNL     1      16.142  -5.356  -7.157  1.00  0.00    -0.357 N 
HETATM   28  H   UNL     1      16.406  -5.496  -6.192  1.00  0.00     0.162 HD
HETATM   29  O   UNL     1      14.370  -5.062  -8.589  1.00  0.00    -0.268 OA
BRANCH  27  30
HETATM   30  C   UNL     1      17.046  -5.855  -8.173  1.00  0.00     0.118 C 
HETATM   31  C   UNL     1      16.939  -7.362  -8.319  1.00  0.00     0.026 C 
ENDBRANCH  27  30
ENDBRANCH  23  26
ENDBRANCH   1  19
TORSDOF 7
