REMARK  5 active torsions:
REMARK  status: ('A' for Active; 'I' for Inactive)
REMARK    1  A    between atoms: C_4  and  C_5 
REMARK    2  A    between atoms: C_10  and  C_11 
REMARK    3  A    between atoms: N_12  and  N_13 
REMARK       I    between atoms: N_13  and  C_14 
REMARK    4  A    between atoms: C_14  and  C_15 
REMARK    5  A    between atoms: C_16  and  O_17 
ROOT
HETATM    1  C   UNL     1       2.755   0.023  -0.123  1.00  0.00     0.055 A 
HETATM    2  N   UNL     1       3.469   1.199  -0.096  1.00  0.00    -0.354 N 
HETATM    3  H   UNL     1       3.059   2.116   0.004  1.00  0.00     0.166 HD
HETATM    4  C   UNL     1       4.817   0.961  -0.193  1.00  0.00     0.043 A 
HETATM    5  C   UNL     1       4.982  -0.421  -0.285  1.00  0.00     0.005 A 
HETATM    6  C   UNL     1       3.675  -1.014  -0.248  1.00  0.00     0.023 A 
HETATM    7  C   UNL     1       5.890   1.861  -0.203  1.00  0.00     0.030 A 
HETATM    8  C   UNL     1       7.179   1.332  -0.313  1.00  0.00     0.002 A 
HETATM    9  C   UNL     1       7.382  -0.041  -0.408  1.00  0.00     0.001 A 
HETATM   10  C   UNL     1       6.297  -0.925  -0.395  1.00  0.00     0.014 A 
ENDROOT
BRANCH   6  11
HETATM   11  C   UNL     1       3.315  -2.417  -0.339  1.00  0.00     0.153 C 
HETATM   12  N   UNL     1       4.236  -3.325  -0.330  1.00  0.00    -0.183 NA
BRANCH  12  13
HETATM   13  N   UNL     1       3.807  -4.618  -0.420  1.00  0.00    -0.243 N 
HETATM   14  C   UNL     1       4.730  -5.647  -0.316  1.00  0.00     0.274 C 
HETATM   15  O   UNL     1       5.934  -5.505  -0.105  1.00  0.00    -0.266 OA
HETATM   16  H   UNL     1       2.812  -4.805  -0.441  1.00  0.00     0.192 HD
BRANCH  14  17
HETATM   17  C   UNL     1       4.191  -7.031  -0.408  1.00  0.00     0.066 A 
HETATM   18  C   UNL     1       4.880  -8.080   0.222  1.00  0.00     0.081 A 
HETATM   19  C   UNL     1       4.387  -9.382   0.176  1.00  0.00     0.037 A 
HETATM   20  C   UNL     1       3.212  -9.657  -0.521  1.00  0.00     0.003 A 
HETATM   21  C   UNL     1       2.534  -8.631  -1.178  1.00  0.00     0.001 A 
HETATM   22  C   UNL     1       3.022  -7.321  -1.127  1.00  0.00     0.020 A 
BRANCH  18  23
HETATM   23  O   UNL     1       6.053  -7.900   0.908  1.00  0.00    -0.360 OA
HETATM   24  H   UNL     1       6.375  -6.989   0.718  1.00  0.00     0.217 HD
ENDBRANCH  18  23
ENDBRANCH  14  17
ENDBRANCH  12  13
ENDBRANCH   6  11
BRANCH   1  25
HETATM   25  C   UNL     1       1.299   0.020  -0.004  1.00  0.00    -0.009 A 
HETATM   26  C   UNL     1       0.511   0.710  -0.933  1.00  0.00     0.014 A 
HETATM   27  C   UNL     1      -0.881   0.711  -0.815  1.00  0.00     0.001 A 
HETATM   28  C   UNL     1      -1.493   0.022   0.231  1.00  0.00     0.000 A 
HETATM   29  C   UNL     1      -0.715  -0.666   1.162  1.00  0.00     0.001 A 
HETATM   30  C   UNL     1       0.676  -0.666   1.046  1.00  0.00     0.014 A 
ENDBRANCH   1  25
TORSDOF 5
