REMARK  10 active torsions:
REMARK  status: ('A' for Active; 'I' for Inactive)
REMARK    1  A    between atoms: O_2  and  C_3 
REMARK    2  A    between atoms: C_4  and  O_5 
REMARK    3  A    between atoms: O_5  and  C_6 
REMARK    4  A    between atoms: C_6  and  C_7 
REMARK    5  A    between atoms: C_16  and  C_17 
REMARK       I    between atoms: C_17  and  N_18 
REMARK    6  A    between atoms: N_18  and  C_19 
REMARK    7  A    between atoms: C_19  and  N_20 
REMARK    8  A    between atoms: N_20  and  C_21 
REMARK    9  A    between atoms: C_24  and  C_25 
REMARK   10  A    between atoms: C_25  and  N_26 
ROOT
HETATM    1  C   UNL     1       3.307  -5.141   1.272  1.00  0.00     0.257 C 
HETATM    2  N   UNL     1       4.436  -4.578   1.859  1.00  0.00    -0.299 N 
HETATM    3  O   UNL     1       3.276  -6.228   0.713  1.00  0.00    -0.267 OA
HETATM    4  H   UNL     1       4.421  -3.573   1.940  1.00  0.00     0.171 HD
ENDROOT
BRANCH   2   5
HETATM    5  C   UNL     1       5.257  -5.150   2.808  1.00  0.00     0.179 C 
HETATM    6  S   UNL     1       5.044  -6.631   3.547  1.00  0.00    -0.040 SA
BRANCH   5   7
HETATM    7  N   UNL     1       6.273  -4.349   3.275  1.00  0.00    -0.333 N 
HETATM    8  H   UNL     1       6.652  -4.674   4.162  1.00  0.00     0.168 HD
BRANCH   7   9
HETATM    9  C   UNL     1       6.938  -3.263   2.673  1.00  0.00     0.034 A 
HETATM   10  C   UNL     1       7.695  -2.427   3.497  1.00  0.00     0.030 A 
HETATM   11  C   UNL     1       8.414  -1.346   2.966  1.00  0.00     0.011 A 
HETATM   12  C   UNL     1       8.423  -1.099   1.587  1.00  0.00    -0.032 A 
HETATM   13  C   UNL     1       7.677  -1.964   0.765  1.00  0.00     0.011 A 
HETATM   14  C   UNL     1       6.940  -3.029   1.300  1.00  0.00     0.030 A 
BRANCH  12  15
HETATM   15  C   UNL     1       9.192   0.013   0.908  1.00  0.00     0.273 C 
BRANCH  15  16
HETATM   16  N   UNL     1       9.871   1.037   1.797  1.00  0.00    -0.067 N 
HETATM   17  H   UNL     1       9.243   1.192   2.595  1.00  0.00     0.280 HD
HETATM   18  C   UNL     1      11.213   0.559   2.310  1.00  0.00     0.235 C 
HETATM   19  C   UNL     1      11.760   1.575   3.303  1.00  0.00     0.028 C 
HETATM   20  C   UNL     1      11.879   2.961   2.679  1.00  0.00     0.003 C 
HETATM   21  C   UNL     1      10.556   3.406   2.067  1.00  0.00     0.028 C 
HETATM   22  C   UNL     1      10.004   2.373   1.095  1.00  0.00     0.235 C 
ENDBRANCH  15  16
ENDBRANCH  12  15
ENDBRANCH   7   9
ENDBRANCH   5   7
ENDBRANCH   2   5
BRANCH   1  23
HETATM   23  C   UNL     1       2.155  -4.205   1.161  1.00  0.00     0.035 A 
HETATM   24  C   UNL     1       1.863  -3.317   2.207  1.00  0.00     0.020 A 
HETATM   25  C   UNL     1       0.855  -2.367   2.049  1.00  0.00     0.040 A 
HETATM   26  C   UNL     1       0.124  -2.316   0.862  1.00  0.00     0.102 A 
HETATM   27  C   UNL     1       0.400  -3.219  -0.170  1.00  0.00     0.102 A 
HETATM   28  C   UNL     1       1.394  -4.187  -0.011  1.00  0.00     0.056 A 
BRANCH  26  29
HETATM   29  O   UNL     1      -0.742  -1.268   0.741  1.00  0.00    -0.344 OA
BRANCH  29  30
HETATM   30  C   UNL     1      -2.107  -1.668   0.595  1.00  0.00     0.214 C 
BRANCH  30  31
HETATM   31  C   UNL     1      -2.921  -0.416   0.827  1.00  0.00    -0.034 A 
HETATM   32  C   UNL     1      -2.987   0.571  -0.170  1.00  0.00     0.011 A 
HETATM   33  C   UNL     1      -3.662   1.771   0.063  1.00  0.00     0.024 A 
HETATM   34  C   UNL     1      -4.273   1.991   1.295  1.00  0.00     0.034 A 
HETATM   35 CL   UNL     1      -5.080   3.481   1.593  1.00  0.00    -0.084 Cl
HETATM   36  C   UNL     1      -4.221   1.020   2.292  1.00  0.00     0.024 A 
HETATM   37  C   UNL     1      -3.544  -0.181   2.061  1.00  0.00     0.011 A 
ENDBRANCH  30  31
ENDBRANCH  29  30
ENDBRANCH  26  29
BRANCH  27  38
HETATM   38  O   UNL     1      -0.294  -3.205  -1.349  1.00  0.00    -0.353 OA
HETATM   39  C   UNL     1       0.233  -2.211  -2.229  1.00  0.00     0.210 C 
ENDBRANCH  27  38
ENDBRANCH   1  23
TORSDOF 10
