REMARK  6 active torsions:
REMARK  status: ('A' for Active; 'I' for Inactive)
REMARK    1  A    between atoms: C_4  and  C_5 
REMARK    2  A    between atoms: C_10  and  C_11 
REMARK    3  A    between atoms: C_11  and  N_12 
REMARK    4  A    between atoms: N_12  and  C_14 
REMARK    5  A    between atoms: C_14  and  C_15 
REMARK       I    between atoms: C_15  and  N_16 
REMARK    6  A    between atoms: N_16  and  C_17 
ROOT
HETATM    1  N   UNL     1       6.562  -0.867  -1.017  1.00  0.00    -0.063 N 
HETATM    2  H   UNL     1       5.951  -1.009  -0.198  1.00  0.00     0.280 HD
HETATM    3  C   UNL     1       6.591  -2.175  -1.756  1.00  0.00     0.270 C 
ENDROOT
BRANCH   1   4
HETATM    4  C   UNL     1       7.931  -0.493  -0.515  1.00  0.00     0.277 C 
BRANCH   4   5
HETATM    5  C   UNL     1       7.950   0.706   0.355  1.00  0.00     0.018 A 
HETATM    6  C   UNL     1       8.426   2.010   0.041  1.00  0.00     0.120 A 
HETATM    7  N   UNL     1       8.292   2.846   1.076  1.00  0.00    -0.172 NA
HETATM    8  N   UNL     1       7.770   2.096   2.054  1.00  0.00    -0.288 N 
HETATM    9  H   UNL     1       7.605   2.529   2.960  1.00  0.00     0.188 HD
HETATM   10  C   UNL     1       7.520   0.810   1.665  1.00  0.00     0.120 A 
BRANCH   6  11
HETATM   11  C   UNL     1       8.982   2.462  -1.271  1.00  0.00     0.106 A 
HETATM   12  O   UNL     1       9.047   1.685  -2.398  1.00  0.00    -0.313 OA
HETATM   13  C   UNL     1       9.632   2.435  -3.376  1.00  0.00     0.050 A 
HETATM   14  C   UNL     1       9.848   1.782  -4.684  1.00  0.00     0.076 C 
HETATM   15  C   UNL     1       9.921   3.693  -2.899  1.00  0.00     0.035 A 
HETATM   16  C   UNL     1       9.496   3.713  -1.549  1.00  0.00     0.042 A 
ENDBRANCH   6  11
ENDBRANCH   4   5
ENDBRANCH   1   4
BRANCH   1  17
HETATM   17  C   UNL     1       5.867   0.243  -1.826  1.00  0.00     0.337 C 
BRANCH  17  18
HETATM   18  C   UNL     1       4.362  -0.012  -1.916  1.00  0.00     0.248 C 
HETATM   19  N   UNL     1       3.593   0.551  -2.888  1.00  0.00    -0.326 N 
HETATM   20  H   UNL     1       2.665   0.131  -2.929  1.00  0.00     0.169 HD
HETATM   21  O   UNL     1       3.849  -0.814  -1.126  1.00  0.00    -0.271 OA
BRANCH  19  22
HETATM   22  C   UNL     1       3.831   1.596  -3.799  1.00  0.00     0.040 A 
HETATM   23  C   UNL     1       2.945   1.702  -4.879  1.00  0.00     0.072 A 
HETATM   24  C   UNL     1       3.097   2.720  -5.820  1.00  0.00     0.121 A 
HETATM   25  F   UNL     1       2.251   2.784  -6.856  1.00  0.00    -0.206 F 
HETATM   26  C   UNL     1       4.105   3.661  -5.702  1.00  0.00     0.084 A 
HETATM   27  C   UNL     1       4.963   3.569  -4.619  1.00  0.00     0.121 A 
HETATM   28  F   UNL     1       5.929   4.483  -4.464  1.00  0.00    -0.206 F 
HETATM   29  C   UNL     1       4.838   2.552  -3.669  1.00  0.00     0.072 A 
ENDBRANCH  19  22
ENDBRANCH  17  18
ENDBRANCH   1  17
TORSDOF 6
