REMARK  5 active torsions:
REMARK  status: ('A' for Active; 'I' for Inactive)
REMARK    1  A    between atoms: C_4  and  N_5 
REMARK       I    between atoms: N_5  and  C_6 
REMARK       I    between atoms: C_6  and  N_7 
REMARK    2  A    between atoms: N_7  and  C_8 
REMARK    3  A    between atoms: C_8  and  C_9 
REMARK    4  A    between atoms: C_9  and  N_10 
REMARK    5  A    between atoms: C_9  and  C_14 
ROOT
HETATM    1  N   UNL     1      -0.451   2.880   4.698  1.00  0.00    -0.307 N 
HETATM    2  C   UNL     1      -0.083   3.396   3.504  1.00  0.00     0.320 C 
HETATM    3  N   UNL     1      -0.128   2.583   2.415  1.00  0.00    -0.340 N 
HETATM    4  O   UNL     1       0.195   4.588   3.390  1.00  0.00    -0.247 OA
HETATM    5  H   UNL     1      -0.622   3.590   5.413  1.00  0.00     0.170 HD
HETATM    6  H   UNL     1      -0.662   1.729   2.495  1.00  0.00     0.164 HD
ENDROOT
BRANCH   1   7
HETATM    7  C   UNL     1      -0.596   1.566   5.207  1.00  0.00     0.066 A 
HETATM    8  C   UNL     1      -0.122   0.419   4.558  1.00  0.00     0.038 A 
HETATM    9  C   UNL     1      -0.322  -0.849   5.115  1.00  0.00    -0.059 A 
HETATM   10  C   UNL     1       0.193  -2.081   4.428  1.00  0.00     0.048 C 
HETATM   11  C   UNL     1      -0.941  -0.952   6.364  1.00  0.00     0.020 A 
HETATM   12  C   UNL     1      -1.366   0.197   7.050  1.00  0.00    -0.005 A 
HETATM   13  C   UNL     1      -1.199   1.474   6.474  1.00  0.00     0.093 A 
HETATM   14  C   UNL     1      -1.953   0.113   8.319  1.00  0.00     0.015 A 
HETATM   15  N   UNL     1      -1.598   2.600   7.111  1.00  0.00    -0.258 NA
HETATM   16  C   UNL     1      -2.152   2.478   8.339  1.00  0.00     0.117 A 
HETATM   17  C   UNL     1      -2.349   1.270   8.978  1.00  0.00     0.020 A 
ENDBRANCH   1   7
BRANCH   3  18
HETATM   18  C   UNL     1       0.436   2.979   1.134  1.00  0.00     0.164 C 
BRANCH  18  19
HETATM   19  C   UNL     1      -0.564   3.246  -0.020  1.00  0.00     0.261 C 
BRANCH  19  20
HETATM   20  N   UNL     1      -1.525   4.412   0.217  1.00  0.00    -0.067 N 
HETATM   21  H   UNL     1      -2.094   4.398  -0.641  1.00  0.00     0.280 HD
HETATM   22  C   UNL     1      -2.528   4.246   1.321  1.00  0.00     0.270 C 
HETATM   23  C   UNL     1      -0.855   5.751   0.269  1.00  0.00     0.270 C 
ENDBRANCH  19  20
BRANCH  19  24
HETATM   24  C   UNL     1      -1.294   2.014  -0.473  1.00  0.00     0.085 A 
HETATM   25  O   UNL     1      -2.432   2.242  -1.201  1.00  0.00    -0.325 OA
HETATM   26  C   UNL     1      -2.938   1.029  -1.543  1.00  0.00     0.142 A 
HETATM   27  C   UNL     1      -2.144   0.022  -1.050  1.00  0.00     0.027 A 
HETATM   28  C   UNL     1      -1.078   0.654  -0.365  1.00  0.00     0.037 A 
ENDBRANCH  19  24
ENDBRANCH  18  19
ENDBRANCH   3  18
TORSDOF 5
