REMARK  6 active torsions:
REMARK  status: ('A' for Active; 'I' for Inactive)
REMARK    1  A    between atoms: C_8  and  N_9 
REMARK       I    between atoms: N_9  and  C_10 
REMARK       I    between atoms: C_10  and  N_11 
REMARK    2  A    between atoms: N_11  and  C_12 
REMARK    3  A    between atoms: C_15  and  O_16 
REMARK    4  A    between atoms: O_16  and  C_17 
REMARK    5  A    between atoms: C_17  and  C_18 
REMARK    6  A    between atoms: C_18  and  C_19 
ROOT
HETATM    1  C   UNL     1       0.416  -0.301  -0.444  1.00  0.00     0.054 A 
HETATM    2  C   UNL     1      -0.367   0.733   0.060  1.00  0.00     0.149 A 
HETATM    3  N   UNL     1      -0.042   2.046  -0.029  1.00  0.00    -0.235 NA
HETATM    4  C   UNL     1       1.113   2.349  -0.652  1.00  0.00     0.164 A 
HETATM    5  C   UNL     1       1.942   1.401  -1.227  1.00  0.00     0.060 A 
HETATM    6  C   UNL     1       1.590   0.056  -1.111  1.00  0.00     0.035 A 
ENDROOT
BRANCH   1   7
HETATM    7  N   UNL     1       0.139  -1.672  -0.266  1.00  0.00    -0.307 N 
HETATM    8  C   UNL     1      -1.029  -2.209   0.254  1.00  0.00     0.325 C 
HETATM    9  N   UNL     1      -0.831  -3.527   0.616  1.00  0.00    -0.305 N 
HETATM   10  O   UNL     1      -2.067  -1.581   0.405  1.00  0.00    -0.247 OA
HETATM   11  H   UNL     1       0.121  -3.786   0.824  1.00  0.00     0.171 HD
HETATM   12  H   UNL     1       0.795  -2.330  -0.660  1.00  0.00     0.170 HD
BRANCH   9  13
HETATM   13  C   UNL     1      -1.804  -4.380   1.113  1.00  0.00     0.086 A 
HETATM   14  C   UNL     1      -1.488  -5.507   1.848  1.00  0.00     0.052 A 
HETATM   15  C   UNL     1      -0.199  -6.077   2.304  1.00  0.00     0.072 C 
HETATM   16  N   UNL     1      -2.682  -6.085   2.173  1.00  0.00    -0.280 N 
HETATM   17  H   UNL     1      -2.846  -6.919   2.727  1.00  0.00     0.189 HD
HETATM   18  N   UNL     1      -3.745  -5.445   1.678  1.00  0.00    -0.177 NA
HETATM   19  C   UNL     1      -3.226  -4.395   1.023  1.00  0.00     0.079 A 
HETATM   20  C   UNL     1      -4.154  -3.486   0.303  1.00  0.00     0.075 C 
ENDBRANCH   9  13
ENDBRANCH   1   7
BRANCH   4  21
HETATM   21  O   UNL     1       1.524   3.666  -0.720  1.00  0.00    -0.334 OA
BRANCH  21  22
HETATM   22  C   UNL     1       0.834   4.484   0.235  1.00  0.00     0.182 C 
BRANCH  22  23
HETATM   23  C   UNL     1       1.506   5.855   0.290  1.00  0.00     0.065 C 
BRANCH  23  24
HETATM   24  C   UNL     1       0.985   6.670   1.447  1.00  0.00    -0.056 A 
HETATM   25  C   UNL     1       1.655   6.659   2.678  1.00  0.00     0.007 A 
HETATM   26  C   UNL     1       1.141   7.359   3.770  1.00  0.00     0.001 A 
HETATM   27  C   UNL     1      -0.048   8.074   3.642  1.00  0.00     0.000 A 
HETATM   28  C   UNL     1      -0.723   8.091   2.423  1.00  0.00     0.001 A 
HETATM   29  C   UNL     1      -0.210   7.392   1.329  1.00  0.00     0.007 A 
ENDBRANCH  23  24
ENDBRANCH  22  23
ENDBRANCH  21  22
ENDBRANCH   4  21
TORSDOF 6
