REMARK  6 active torsions:
REMARK  status: ('A' for Active; 'I' for Inactive)
REMARK    1  A    between atoms: C_4  and  O_5 
REMARK    2  A    between atoms: O_5  and  C_6 
REMARK    3  A    between atoms: C_6  and  C_7 
REMARK       I    between atoms: C_7  and  N_8 
REMARK    4  A    between atoms: N_8  and  N_9 
REMARK    5  A    between atoms: C_10  and  C_11 
REMARK    6  A    between atoms: C_23  and  C_24 
ROOT
HETATM    1  C   UNL     1       5.553   4.668  -1.208  1.00  0.00     0.261 C 
HETATM    2  N   UNL     1       6.210   5.360  -0.195  1.00  0.00    -0.246 N 
HETATM    3  O   UNL     1       5.650   4.888  -2.414  1.00  0.00    -0.269 OA
HETATM    4  H   UNL     1       6.253   4.912   0.719  1.00  0.00     0.192 HD
ENDROOT
BRANCH   2   5
HETATM    5  N   UNL     1       7.074   6.424  -0.344  1.00  0.00    -0.184 NA
HETATM    6  C   UNL     1       7.002   7.146  -1.415  1.00  0.00     0.152 C 
BRANCH   6   7
HETATM    7  C   UNL     1       7.899   8.271  -1.608  1.00  0.00     0.011 A 
HETATM    8  C   UNL     1       8.819   8.898  -0.704  1.00  0.00     0.005 A 
HETATM    9  C   UNL     1       9.423   9.957  -1.390  1.00  0.00     0.043 A 
HETATM   10  C   UNL     1       9.189   8.681   0.641  1.00  0.00     0.033 A 
HETATM   11  C   UNL     1      10.374  10.803  -0.807  1.00  0.00     0.031 A 
HETATM   12  N   UNL     1       8.902   9.967  -2.662  1.00  0.00    -0.364 N 
HETATM   13  C   UNL     1      10.719  10.569   0.526  1.00  0.00     0.021 A 
HETATM   14  C   UNL     1      10.134   9.523   1.236  1.00  0.00     0.012 A 
HETATM   15 BR   UNL     1      10.621   9.242   3.043  1.00  0.00    -0.051 Br
HETATM   16  H   UNL     1       9.163  10.626  -3.383  1.00  0.00     0.165 HD
HETATM   17  C   UNL     1       7.978   8.969  -2.801  1.00  0.00     0.102 A 
ENDBRANCH   6   7
ENDBRANCH   2   5
BRANCH   1  18
HETATM   18  C   UNL     1       4.565   3.637  -0.673  1.00  0.00     0.280 C 
BRANCH  18  19
HETATM   19  O   UNL     1       5.155   2.796   0.313  1.00  0.00    -0.341 OA
BRANCH  19  20
HETATM   20  C   UNL     1       4.455   1.628   0.518  1.00  0.00     0.076 A 
HETATM   21  C   UNL     1       3.054   1.609   0.599  1.00  0.00     0.044 A 
HETATM   22  C   UNL     1       2.359   0.409   0.784  1.00  0.00    -0.059 A 
HETATM   23  C   UNL     1       0.860   0.385   0.814  1.00  0.00     0.048 C 
HETATM   24  C   UNL     1       3.083  -0.779   0.885  1.00  0.00     0.007 A 
HETATM   25  C   UNL     1       4.479  -0.764   0.837  1.00  0.00     0.011 A 
HETATM   26  C   UNL     1       5.191   0.438   0.675  1.00  0.00    -0.021 A 
BRANCH  26  27
HETATM   27  C   UNL     1       6.712   0.434   0.602  1.00  0.00     0.013 C 
HETATM   28  C   UNL     1       7.369  -0.467   1.657  1.00  0.00     0.015 C 
HETATM   29  C   UNL     1       7.175   0.037  -0.802  1.00  0.00     0.015 C 
ENDBRANCH  26  27
ENDBRANCH  19  20
ENDBRANCH  18  19
ENDBRANCH   1  18
TORSDOF 6
