REMARK  2 active torsions:
REMARK  status: ('A' for Active; 'I' for Inactive)
REMARK    1  A    between atoms: O_2  and  C_3 
REMARK    2  A    between atoms: C_5  and  N_6 
ROOT
HETATM    1  N   UNL     1      -0.465   3.858   0.971  1.00  0.00    -0.252 N 
HETATM    2  C   UNL     1       0.343   3.154   0.101  1.00  0.00     0.239 C 
HETATM    3  O   UNL     1       1.452   3.414  -0.337  1.00  0.00    -0.272 OA
HETATM    4  C   UNL     1      -0.283   1.829  -0.179  1.00  0.00     0.145 C 
HETATM    5  C   UNL     1      -1.668   1.936   0.415  1.00  0.00     0.126 C 
HETATM    6  C   UNL     1      -1.540   3.090   1.368  1.00  0.00     0.238 C 
HETATM    7  O   UNL     1      -2.304   3.215   2.312  1.00  0.00    -0.272 OA
HETATM    8  C   UNL     1       0.414   0.664   0.516  1.00  0.00     0.250 A 
HETATM    9  C   UNL     1       1.472   0.015  -0.441  1.00  0.00     0.264 A 
HETATM   10  O   UNL     1       1.249  -0.445  -1.549  1.00  0.00    -0.270 OA
HETATM   11  N   UNL     1       2.682  -0.010   0.226  1.00  0.00    -0.324 N 
HETATM   12  C   UNL     1       2.568   0.514   1.504  1.00  0.00     0.044 A 
HETATM   13  C   UNL     1       1.252   0.917   1.755  1.00  0.00     0.015 A 
HETATM   14  C   UNL     1       3.574   0.608   2.441  1.00  0.00     0.030 A 
HETATM   15  C   UNL     1       3.236   1.116   3.695  1.00  0.00     0.002 A 
HETATM   16  C   UNL     1       1.917   1.505   3.978  1.00  0.00     0.001 A 
HETATM   17  C   UNL     1       0.912   1.403   3.010  1.00  0.00     0.012 A 
HETATM   18  N   UNL     1      -0.764  -0.264   0.868  1.00  0.00    -0.043 N 
HETATM   19  H   UNL     1      -0.522  -0.774   1.732  1.00  0.00     0.282 HD
HETATM   20  C   UNL     1      -1.988   0.619   1.110  1.00  0.00     0.204 C 
HETATM   21  C   UNL     1      -1.171  -1.305  -0.150  1.00  0.00     0.237 C 
HETATM   22  C   UNL     1      -2.612  -1.561   0.235  1.00  0.00     0.030 C 
HETATM   23  C   UNL     1      -3.147  -0.158   0.476  1.00  0.00     0.036 C 
HETATM   24  H   UNL     1       3.538  -0.370  -0.181  1.00  0.00     0.169 HD
ENDROOT
BRANCH   1  25
HETATM   25  C   UNL     1      -0.140   5.152   1.484  1.00  0.00     0.048 A 
HETATM   26  C   UNL     1       0.752   5.993   0.798  1.00  0.00     0.066 A 
HETATM   27  C   UNL     1       1.057   7.285   1.250  1.00  0.00     0.070 A 
HETATM   28  C   UNL     1       0.485   7.750   2.427  1.00  0.00     0.037 A 
HETATM   29  C   UNL     1      -0.402   6.935   3.129  1.00  0.00     0.005 A 
HETATM   30  C   UNL     1      -0.720   5.656   2.656  1.00  0.00     0.030 A 
BRANCH  27  31
HETATM   31  O   UNL     1       1.915   7.978   0.442  1.00  0.00    -0.356 OA
HETATM   32  C   UNL     1       2.205   9.323   0.805  1.00  0.00     0.210 C 
ENDBRANCH  27  31
ENDBRANCH   1  25
TORSDOF 2
