REMARK  6 active torsions:
REMARK  status: ('A' for Active; 'I' for Inactive)
REMARK    1  A    between atoms: C_3  and  N_4 
REMARK       I    between atoms: N_4  and  C_5 
REMARK       I    between atoms: C_5  and  N_6 
REMARK    2  A    between atoms: N_6  and  C_7 
REMARK    3  A    between atoms: C_7  and  C_8 
REMARK    4  A    between atoms: C_16  and  N_17 
REMARK       I    between atoms: N_17  and  C_18 
REMARK    5  A    between atoms: C_18  and  C_19 
REMARK    6  A    between atoms: C_19  and  C_20 
ROOT
HETATM    1  C   UNL     1      -0.062   1.410  -1.250  1.00  0.00     0.004 A 
HETATM    2  C   UNL     1       1.251   1.338  -0.786  1.00  0.00     0.029 A 
HETATM    3  C   UNL     1       1.783   0.119  -0.366  1.00  0.00     0.038 A 
HETATM    4  C   UNL     1       0.980  -1.031  -0.426  1.00  0.00     0.059 A 
HETATM    5  C   UNL     1      -0.337  -0.972  -0.893  1.00  0.00     0.036 A 
HETATM    6  C   UNL     1      -0.852   0.262  -1.304  1.00  0.00     0.029 A 
ENDROOT
BRANCH   3   7
HETATM    7  N   UNL     1       3.103  -0.042   0.106  1.00  0.00    -0.309 N 
HETATM    8  C   UNL     1       4.027   0.946   0.364  1.00  0.00     0.320 C 
HETATM    9  N   UNL     1       5.243   0.405   0.727  1.00  0.00    -0.339 N 
HETATM   10  O   UNL     1       3.842   2.153   0.302  1.00  0.00    -0.247 OA
HETATM   11  H   UNL     1       5.443  -0.543   0.448  1.00  0.00     0.164 HD
HETATM   12  H   UNL     1       3.362  -0.973   0.397  1.00  0.00     0.170 HD
BRANCH   9  13
HETATM   13  C   UNL     1       6.376   1.251   1.036  1.00  0.00     0.163 C 
BRANCH  13  14
HETATM   14  C   UNL     1       7.373   1.371  -0.091  1.00  0.00    -0.038 A 
HETATM   15  C   UNL     1       7.001   1.321  -1.438  1.00  0.00     0.028 A 
HETATM   16  C   UNL     1       7.978   1.484  -2.410  1.00  0.00     0.116 A 
HETATM   17  N   UNL     1       9.281   1.705  -2.137  1.00  0.00    -0.273 NA
HETATM   18  C   UNL     1       9.619   1.781  -0.834  1.00  0.00     0.116 A 
HETATM   19  C   UNL     1       8.717   1.625   0.207  1.00  0.00     0.028 A 
ENDBRANCH  13  14
ENDBRANCH   9  13
ENDBRANCH   3   7
BRANCH   5  20
HETATM   20  N   UNL     1      -1.196  -2.088  -0.982  1.00  0.00    -0.327 N 
HETATM   21  C   UNL     1      -0.908  -3.403  -0.658  1.00  0.00     0.227 C 
HETATM   22  O   UNL     1       0.170  -3.832  -0.245  1.00  0.00    -0.273 OA
HETATM   23  H   UNL     1      -2.115  -1.905  -1.366  1.00  0.00     0.169 HD
BRANCH  21  24
HETATM   24  C   UNL     1      -2.077  -4.356  -0.900  1.00  0.00     0.159 C 
BRANCH  24  25
HETATM   25  C   UNL     1      -1.801  -5.241  -2.074  1.00  0.00     0.017 A 
HETATM   26  N   UNL     1      -0.567  -5.821  -2.273  1.00  0.00    -0.369 N 
HETATM   27  H   UNL     1       0.242  -5.681  -1.674  1.00  0.00     0.165 HD
HETATM   28  C   UNL     1      -0.593  -6.578  -3.414  1.00  0.00     0.088 A 
HETATM   29  C   UNL     1      -1.861  -6.503  -3.945  1.00  0.00     0.019 A 
HETATM   30  C   UNL     1      -2.625  -5.663  -3.099  1.00  0.00     0.027 A 
ENDBRANCH  24  25
ENDBRANCH  21  24
ENDBRANCH   5  20
TORSDOF 6
