REMARK  6 active torsions:
REMARK  status: ('A' for Active; 'I' for Inactive)
REMARK    1  A    between atoms: C_2  and  C_3 
REMARK    2  A    between atoms: C_3  and  N_4 
REMARK    3  A    between atoms: N_8  and  C_10 
REMARK    4  A    between atoms: C_10  and  C_11 
REMARK    5  A    between atoms: C_11  and  C_12 
REMARK    6  A    between atoms: C_20  and  N_21 
ROOT
HETATM    1  N   UNL     1       6.158  -1.995  -8.227  1.00  0.00    -0.064 N 
HETATM    2  H   UNL     1       6.536  -1.847  -9.177  1.00  0.00     0.280 HD
HETATM    3  C   UNL     1       4.674  -1.664  -8.285  1.00  0.00     0.263 C 
HETATM    4  C   UNL     1       3.937  -2.056  -6.975  1.00  0.00     0.262 C 
HETATM    5  N   UNL     1       4.220  -3.500  -6.543  1.00  0.00    -0.068 N 
HETATM    6  H   UNL     1       3.716  -4.134  -7.186  1.00  0.00     0.280 HD
HETATM    7  C   UNL     1       5.710  -3.882  -6.594  1.00  0.00     0.262 C 
HETATM    8  C   UNL     1       6.370  -3.473  -7.927  1.00  0.00     0.263 C 
ENDROOT
BRANCH   5   9
HETATM    9  C   UNL     1       3.677  -3.823  -5.141  1.00  0.00     0.238 C 
BRANCH   9  10
HETATM   10  C   UNL     1       2.159  -3.716  -5.087  1.00  0.00     0.070 C 
BRANCH  10  11
HETATM   11  C   UNL     1       1.629  -4.139  -3.703  1.00  0.00     0.222 C 
HETATM   12  O   UNL     1       2.107  -5.451  -3.456  1.00  0.00    -0.334 OA
HETATM   13  C   UNL     1       1.159  -6.433  -3.425  1.00  0.00     0.099 A 
HETATM   14  C   UNL     1      -0.218  -6.195  -3.449  1.00  0.00     0.068 A 
HETATM   15  C   UNL     1       1.643  -7.738  -3.361  1.00  0.00     0.075 A 
HETATM   16  N   UNL     1      -0.702  -4.890  -3.530  1.00  0.00    -0.323 N 
HETATM   17  C   UNL     1      -1.119  -7.260  -3.405  1.00  0.00     0.035 A 
HETATM   18  C   UNL     1       0.129  -3.818  -3.653  1.00  0.00     0.251 C 
HETATM   19  H   UNL     1      -1.700  -4.704  -3.513  1.00  0.00     0.169 HD
HETATM   20  O   UNL     1      -0.287  -2.671  -3.794  1.00  0.00    -0.270 OA
HETATM   21  C   UNL     1      -0.642  -8.575  -3.357  1.00  0.00     0.038 A 
HETATM   22  C   UNL     1       0.739  -8.808  -3.340  1.00  0.00     0.105 A 
BRANCH  22  23
HETATM   23  N   UNL     1       1.254 -10.181  -3.334  1.00  0.00    -0.116 N 
HETATM   24  O   UNL     1       2.465 -10.331  -3.558  1.00  0.00    -0.532 OA
HETATM   25  O   UNL     1       0.449 -11.097  -3.134  1.00  0.00    -0.532 OA
ENDBRANCH  22  23
ENDBRANCH  10  11
ENDBRANCH   9  10
ENDBRANCH   5   9
BRANCH   1  26
HETATM   26  C   UNL     1       6.947  -1.011  -7.365  1.00  0.00     0.273 C 
BRANCH  26  27
HETATM   27  C   UNL     1       8.401  -1.353  -7.213  1.00  0.00    -0.030 A 
HETATM   28  C   UNL     1       8.907  -1.766  -5.956  1.00  0.00     0.012 A 
HETATM   29  C   UNL     1      10.254  -2.110  -5.799  1.00  0.00     0.040 A 
HETATM   30  C   UNL     1      11.071  -2.026  -6.903  1.00  0.00     0.105 A 
HETATM   31  C   UNL     1      10.593  -1.617  -8.123  1.00  0.00     0.105 A 
HETATM   32  O   UNL     1      12.396  -2.314  -6.935  1.00  0.00    -0.323 OA
HETATM   33  C   UNL     1       9.271  -1.273  -8.314  1.00  0.00     0.048 A 
HETATM   34  O   UNL     1      11.559  -1.597  -9.077  1.00  0.00    -0.323 OA
HETATM   35  C   UNL     1      12.720  -1.985  -8.304  1.00  0.00     0.352 A 
ENDBRANCH  26  27
ENDBRANCH   1  26
TORSDOF 6
