REMARK  8 active torsions:
REMARK  status: ('A' for Active; 'I' for Inactive)
REMARK    1  A    between atoms: O_2  and  C_3 
REMARK    2  A    between atoms: C_6  and  C_7 
REMARK    3  A    between atoms: C_11  and  S_12 
REMARK    4  A    between atoms: S_12  and  C_13 
REMARK    5  A    between atoms: C_13  and  C_14 
REMARK       I    between atoms: C_14  and  N_15 
REMARK    6  A    between atoms: N_15  and  C_16 
REMARK    7  A    between atoms: C_16  and  C_17 
REMARK       I    between atoms: C_17  and  N_18 
REMARK    8  A    between atoms: N_18  and  C_19 
ROOT
HETATM    1  C   UNL     1       5.929  -1.063  -9.771  1.00  0.00     0.185 C 
ENDROOT
BRANCH   1   2
HETATM    2  S   UNL     1       6.174  -1.892  -8.167  1.00  0.00    -0.081 SA
BRANCH   2   3
HETATM    3  C   UNL     1       6.006  -0.549  -7.106  1.00  0.00     0.185 A 
HETATM    4  N   UNL     1       6.121  -0.685  -5.762  1.00  0.00    -0.253 N 
HETATM    5  N   UNL     1       5.914   0.487  -5.140  1.00  0.00    -0.152 NA
HETATM    6  H   UNL     1       6.322  -1.517  -5.221  1.00  0.00     0.191 HD
HETATM    7  C   UNL     1       5.678   1.314  -6.175  1.00  0.00     0.182 A 
HETATM    8  N   UNL     1       5.738   0.693  -7.409  1.00  0.00    -0.201 NA
BRANCH   7   9
HETATM    9  C   UNL     1       5.373   2.735  -6.036  1.00  0.00     0.014 A 
HETATM   10  C   UNL     1       5.253   3.329  -4.773  1.00  0.00     0.018 A 
HETATM   11  C   UNL     1       4.959   4.691  -4.655  1.00  0.00     0.037 A 
HETATM   12  C   UNL     1       4.786   5.485  -5.790  1.00  0.00     0.068 A 
HETATM   13  C   UNL     1       4.897   4.901  -7.052  1.00  0.00     0.037 A 
HETATM   14  C   UNL     1       5.189   3.535  -7.172  1.00  0.00     0.018 A 
BRANCH  12  15
HETATM   15  O   UNL     1       4.509   6.799  -5.534  1.00  0.00    -0.356 OA
HETATM   16  C   UNL     1       4.446   7.671  -6.656  1.00  0.00     0.210 C 
ENDBRANCH  12  15
ENDBRANCH   7   9
ENDBRANCH   2   3
ENDBRANCH   1   2
BRANCH   1  17
HETATM   17  C   UNL     1       5.763  -2.031 -10.935  1.00  0.00     0.227 C 
HETATM   18  N   UNL     1       6.108  -3.342 -10.730  1.00  0.00    -0.352 N 
HETATM   19  H   UNL     1       6.464  -3.612  -9.820  1.00  0.00     0.162 HD
HETATM   20  O   UNL     1       5.389  -1.645 -12.045  1.00  0.00    -0.273 OA
BRANCH  18  21
HETATM   21  C   UNL     1       5.874  -4.383 -11.717  1.00  0.00     0.225 C 
BRANCH  21  22
HETATM   22  C   UNL     1       6.965  -4.458 -12.792  1.00  0.00     0.239 C 
HETATM   23  N   UNL     1       7.031  -3.314 -13.569  1.00  0.00    -0.326 N 
HETATM   24  H   UNL     1       6.391  -2.563 -13.300  1.00  0.00     0.169 HD
HETATM   25  O   UNL     1       7.637  -5.477 -12.929  1.00  0.00    -0.271 OA
BRANCH  23  26
HETATM   26  C   UNL     1       7.867  -3.061 -14.671  1.00  0.00     0.035 A 
HETATM   27  C   UNL     1       8.796  -3.977 -15.174  1.00  0.00     0.032 A 
HETATM   28  C   UNL     1       9.584  -3.648 -16.282  1.00  0.00     0.044 A 
HETATM   29  C   UNL     1       9.441  -2.405 -16.884  1.00  0.00     0.116 A 
HETATM   30  F   UNL     1      10.195  -2.093 -17.946  1.00  0.00    -0.206 F 
HETATM   31  C   UNL     1       8.525  -1.481 -16.399  1.00  0.00     0.044 A 
HETATM   32  C   UNL     1       7.738  -1.810 -15.292  1.00  0.00     0.032 A 
ENDBRANCH  23  26
ENDBRANCH  21  22
ENDBRANCH  18  21
ENDBRANCH   1  17
TORSDOF 8
