REMARK  8 active torsions:
REMARK  status: ('A' for Active; 'I' for Inactive)
REMARK    1  A    between atoms: C_2  and  C_3 
REMARK    2  A    between atoms: C_4  and  N_5 
REMARK       I    between atoms: N_5  and  C_6 
REMARK    3  A    between atoms: C_6  and  C_7 
REMARK    4  A    between atoms: C_7  and  N_8 
REMARK    5  A    between atoms: C_11  and  C_12 
REMARK       I    between atoms: C_12  and  N_13 
REMARK    6  A    between atoms: N_13  and  C_14 
REMARK    7  A    between atoms: C_15  and  O_16 
REMARK    8  A    between atoms: C_24  and  N_25 
ROOT
HETATM    1  N   UNL     1       2.578   4.455  -1.536  1.00  0.00    -0.252 N 
HETATM    2  N   UNL     1       2.782   4.906  -2.788  1.00  0.00     0.007 NA
HETATM    3  N   UNL     1       2.697   3.866  -3.608  1.00  0.00    -0.151 NA
HETATM    4  C   UNL     1       2.414   2.745  -2.859  1.00  0.00     0.181 A 
HETATM    5  C   UNL     1       2.282   3.113  -1.531  1.00  0.00     0.130 A 
ENDROOT
BRANCH   1   6
HETATM    6  C   UNL     1       2.775   5.323  -0.398  1.00  0.00     0.251 C 
BRANCH   6   7
HETATM    7  C   UNL     1       4.184   5.257   0.165  1.00  0.00     0.241 C 
HETATM    8  N   UNL     1       4.680   3.977   0.375  1.00  0.00    -0.325 N 
HETATM    9  H   UNL     1       4.064   3.206   0.131  1.00  0.00     0.169 HD
HETATM   10  O   UNL     1       4.749   6.304   0.478  1.00  0.00    -0.271 OA
BRANCH   8  11
HETATM   11  C   UNL     1       5.966   3.600   0.840  1.00  0.00     0.041 A 
HETATM   12  C   UNL     1       6.297   2.225   0.922  1.00  0.00    -0.032 A 
HETATM   13  C   UNL     1       7.585   1.850   1.358  1.00  0.00     0.009 A 
HETATM   14  C   UNL     1       8.529   2.806   1.720  1.00  0.00     0.001 A 
HETATM   15  C   UNL     1       8.201   4.152   1.649  1.00  0.00     0.002 A 
HETATM   16  C   UNL     1       6.932   4.544   1.211  1.00  0.00     0.030 A 
BRANCH  12  17
HETATM   17  C   UNL     1       5.357   1.107   0.522  1.00  0.00     0.036 C 
HETATM   18  C   UNL     1       5.387   0.847  -0.977  1.00  0.00     0.010 C 
ENDBRANCH  12  17
ENDBRANCH   8  11
ENDBRANCH   6   7
ENDBRANCH   1   6
BRANCH   5  19
HETATM   19  N   UNL     1       2.047   2.402  -0.395  1.00  0.00    -0.285 NA
HETATM   20  H   UNL     1       1.777   1.420  -0.549  1.00  0.00     0.125 HD
HETATM   21  H   UNL     1       1.447   2.799   0.329  1.00  0.00     0.125 HD
ENDBRANCH   5  19
BRANCH   4  22
HETATM   22  C   UNL     1       2.319   1.400  -3.414  1.00  0.00     0.279 C 
HETATM   23  N   UNL     1       2.601   1.361  -4.762  1.00  0.00    -0.319 N 
HETATM   24  H   UNL     1       2.776   2.254  -5.220  1.00  0.00     0.169 HD
HETATM   25  O   UNL     1       2.027   0.442  -2.704  1.00  0.00    -0.265 OA
BRANCH  23  26
HETATM   26  C   UNL     1       2.711   0.237  -5.608  1.00  0.00     0.069 A 
HETATM   27  C   UNL     1       2.979   0.485  -6.970  1.00  0.00     0.095 A 
HETATM   28  C   UNL     1       3.136  -0.587  -7.851  1.00  0.00     0.039 A 
HETATM   29  C   UNL     1       3.019  -1.901  -7.389  1.00  0.00     0.009 A 
HETATM   30  C   UNL     1       2.733  -2.158  -6.045  1.00  0.00    -0.060 A 
HETATM   31  C   UNL     1       2.649  -3.567  -5.537  1.00  0.00     0.048 C 
HETATM   32  C   UNL     1       2.592  -1.081  -5.158  1.00  0.00     0.039 A 
BRANCH  27  33
HETATM   33  O   UNL     1       3.080   1.812  -7.320  1.00  0.00    -0.354 OA
HETATM   34  C   UNL     1       3.195   2.106  -8.707  1.00  0.00     0.210 C 
ENDBRANCH  27  33
ENDBRANCH  23  26
ENDBRANCH   4  22
TORSDOF 8
