REMARK  4 active torsions:
REMARK  status: ('A' for Active; 'I' for Inactive)
REMARK    1  A    between atoms: O_2  and  C_3 
REMARK    2  A    between atoms: C_6  and  C_7 
REMARK    3  A    between atoms: C_12  and  N_13 
REMARK    4  A    between atoms: C_15  and  C_16 
ROOT
HETATM    1  C   UNL     1       5.558   4.602  -1.417  1.00  0.00     0.135 C 
HETATM    2  N   UNL     1       6.927   4.178  -1.695  1.00  0.00    -0.214 N 
HETATM    3  C   UNL     1       7.167   3.322  -2.709  1.00  0.00     0.736 A 
HETATM    4  N   UNL     1       6.252   3.125  -3.707  1.00  0.00    -0.074 N 
HETATM    5  N   UNL     1       6.714   2.264  -4.631  1.00  0.00     0.037 NA
HETATM    6  C   UNL     1       7.901   1.957  -4.112  1.00  0.00     0.753 A 
HETATM    7  N   UNL     1       8.212   2.569  -2.933  1.00  0.00     0.131 NA
HETATM    8  C   UNL     1       4.972   3.813  -3.804  1.00  0.00     0.164 C 
HETATM    9  C   UNL     1       4.876   4.949  -2.761  1.00  0.00     0.063 C 
HETATM   10  H   UNL     1       7.562   4.151  -0.903  1.00  0.00     0.178 HD
ENDROOT
BRANCH   1  11
HETATM   11  C   UNL     1       4.802   3.629  -0.519  1.00  0.00    -0.035 A 
HETATM   12  C   UNL     1       5.413   2.510   0.075  1.00  0.00     0.012 A 
HETATM   13  C   UNL     1       4.701   1.646   0.918  1.00  0.00     0.037 A 
HETATM   14  C   UNL     1       3.360   1.887   1.199  1.00  0.00     0.068 A 
HETATM   15  C   UNL     1       2.741   2.998   0.628  1.00  0.00     0.037 A 
HETATM   16  C   UNL     1       3.452   3.864  -0.211  1.00  0.00     0.012 A 
BRANCH  14  17
HETATM   17  O   UNL     1       2.557   1.130   2.006  1.00  0.00    -0.356 OA
HETATM   18  C   UNL     1       3.173   0.038   2.677  1.00  0.00     0.210 C 
ENDBRANCH  14  17
ENDBRANCH   1  11
BRANCH   8  19
HETATM   19  C   UNL     1       3.760   2.889  -3.765  1.00  0.00    -0.031 A 
HETATM   20  C   UNL     1       3.754   1.653  -3.101  1.00  0.00     0.028 A 
HETATM   21  C   UNL     1       2.595   0.876  -3.060  1.00  0.00     0.011 A 
HETATM   22 BR   UNL     1       2.607  -0.773  -2.135  1.00  0.00    -0.051 Br
HETATM   23  C   UNL     1       1.428   1.307  -3.686  1.00  0.00     0.019 A 
HETATM   24  C   UNL     1       1.419   2.526  -4.357  1.00  0.00     0.002 A 
HETATM   25  C   UNL     1       2.572   3.312  -4.394  1.00  0.00     0.009 A 
ENDBRANCH   8  19
BRANCH   6  26
HETATM   26  N   UNL     1       8.768   1.090  -4.626  1.00  0.00    -0.229 N 
HETATM   27  H   UNL     1       8.400   0.424  -5.292  1.00  0.00     0.174 HD
HETATM   28  H   UNL     1       9.466   0.721  -3.995  1.00  0.00     0.174 HD
ENDBRANCH   6  26
TORSDOF 4
