REMARK  9 active torsions:
REMARK  status: ('A' for Active; 'I' for Inactive)
REMARK    1  A    between atoms: C_2  and  C_3 
REMARK    2  A    between atoms: C_3  and  O_4 
REMARK    3  A    between atoms: O_4  and  C_5 
REMARK    4  A    between atoms: C_7  and  C_8 
REMARK       I    between atoms: C_8  and  N_9 
REMARK    5  A    between atoms: N_9  and  C_10 
REMARK    6  A    between atoms: C_10  and  N_11 
REMARK    7  A    between atoms: N_11  and  C_12 
REMARK    8  A    between atoms: C_14  and  O_15 
REMARK    9  A    between atoms: C_16  and  C_17 
ROOT
HETATM    1  C   UNL     1       7.601   0.217   4.752  1.00  0.00     0.036 A 
HETATM    2  C   UNL     1       7.041  -1.023   4.448  1.00  0.00     0.067 A 
HETATM    3  C   UNL     1       6.596  -1.310   3.152  1.00  0.00     0.082 A 
HETATM    4  C   UNL     1       6.709  -0.366   2.121  1.00  0.00     0.050 A 
HETATM    5  C   UNL     1       7.338   0.855   2.428  1.00  0.00     0.021 A 
HETATM    6  C   UNL     1       7.800   1.136   3.723  1.00  0.00     0.030 A 
ENDROOT
BRANCH   1   7
HETATM    7  N   UNL     1       8.017   0.563   6.055  1.00  0.00    -0.333 N 
HETATM    8  H   UNL     1       8.700   1.319   6.128  1.00  0.00     0.168 HD
BRANCH   7   9
HETATM    9  C   UNL     1       7.475   0.184   7.262  1.00  0.00     0.179 C 
HETATM   10  S   UNL     1       6.000  -0.550   7.568  1.00  0.00    -0.040 SA
BRANCH   9  11
HETATM   11  N   UNL     1       8.242   0.460   8.373  1.00  0.00    -0.299 N 
HETATM   12  C   UNL     1       9.521   0.992   8.452  1.00  0.00     0.257 C 
HETATM   13  O   UNL     1      10.041   1.660   7.565  1.00  0.00    -0.267 OA
HETATM   14  H   UNL     1       7.814   0.126   9.226  1.00  0.00     0.171 HD
BRANCH  12  15
HETATM   15  C   UNL     1      10.197   0.784   9.763  1.00  0.00     0.035 A 
HETATM   16  C   UNL     1       9.950  -0.366  10.524  1.00  0.00     0.053 A 
HETATM   17  C   UNL     1      10.534  -0.527  11.781  1.00  0.00     0.069 A 
HETATM   18  C   UNL     1      11.412   0.444  12.260  1.00  0.00     0.037 A 
HETATM   19  C   UNL     1      11.694   1.576  11.485  1.00  0.00     0.004 A 
HETATM   20  C   UNL     1      11.089   1.748  10.238  1.00  0.00     0.017 A 
BRANCH  17  21
HETATM   21  O   UNL     1      10.180  -1.679  12.422  1.00  0.00    -0.351 OA
BRANCH  21  22
HETATM   22  C   UNL     1      10.381  -1.722  13.836  1.00  0.00     0.175 C 
BRANCH  22  23
HETATM   23  C   UNL     1       9.640  -2.948  14.362  1.00  0.00     0.022 C 
HETATM   24  C   UNL     1       9.753  -3.082  15.869  1.00  0.00     0.007 C 
ENDBRANCH  22  23
ENDBRANCH  21  22
ENDBRANCH  17  21
ENDBRANCH  12  15
ENDBRANCH   9  11
ENDBRANCH   7   9
ENDBRANCH   1   7
BRANCH   3  25
HETATM   25  O   UNL     1       6.031  -2.537   2.926  1.00  0.00    -0.360 OA
HETATM   26  H   UNL     1       5.974  -3.030   3.760  1.00  0.00     0.217 HD
ENDBRANCH   3  25
BRANCH   4  27
HETATM   27  C   UNL     1       6.168  -0.558   0.773  1.00  0.00     0.183 A 
HETATM   28  O   UNL     1       5.757  -1.821   0.434  1.00  0.00    -0.288 OA
HETATM   29  C   UNL     1       5.216  -1.686  -0.808  1.00  0.00     0.112 A 
HETATM   30  C   UNL     1       5.349  -0.359  -1.176  1.00  0.00     0.094 A 
HETATM   31  C   UNL     1       4.619  -2.683  -1.577  1.00  0.00    -0.025 A 
HETATM   32  N   UNL     1       5.979   0.345  -0.178  1.00  0.00    -0.221 NA
HETATM   33  C   UNL     1       4.845   0.052  -2.417  1.00  0.00     0.041 A 
HETATM   34  C   UNL     1       4.205  -0.902  -3.233  1.00  0.00    -0.059 A 
HETATM   35  C   UNL     1       4.111  -2.242  -2.815  1.00  0.00     0.016 A 
HETATM   36  C   UNL     1       3.650  -0.481  -4.564  1.00  0.00     0.048 C 
HETATM   37  C   UNL     1       4.483  -4.106  -1.142  1.00  0.00     0.051 C 
ENDBRANCH   4  27
TORSDOF 9
