REMARK  11 active torsions:
REMARK  status: ('A' for Active; 'I' for Inactive)
REMARK    1  A    between atoms: C_4  and  C_5 
REMARK    2  A    between atoms: C_5  and  N_6 
REMARK    3  A    between atoms: C_7  and  S_8 
REMARK    4  A    between atoms: C_9  and  C_10 
REMARK       I    between atoms: C_10  and  N_11 
REMARK    5  A    between atoms: N_11  and  C_12 
REMARK    6  A    between atoms: C_15  and  O_16 
REMARK    7  A    between atoms: O_16  and  C_17 
REMARK    8  A    between atoms: C_27  and  C_28 
REMARK       I    between atoms: C_28  and  N_29 
REMARK    9  A    between atoms: N_29  and  C_30 
REMARK   10  A    between atoms: C_30  and  C_31 
REMARK   11  A    between atoms: C_31  and  O_32 
ROOT
HETATM    1  N   UNL     1       1.922  -3.002  -0.338  1.00  0.00    -0.321 N 
HETATM    2  C   UNL     1       0.569  -3.356  -0.513  1.00  0.00     0.104 A 
HETATM    3  C   UNL     1       0.468  -4.748  -0.457  1.00  0.00     0.142 A 
HETATM    4  N   UNL     1       1.790  -5.162  -0.258  1.00  0.00    -0.301 N 
HETATM    5  C   UNL     1       2.622  -4.130  -0.173  1.00  0.00     0.116 A 
HETATM    6  C   UNL     1       2.273  -6.563  -0.106  1.00  0.00     0.100 A 
HETATM    7  C   UNL     1       3.639  -6.706   0.119  1.00  0.00     0.035 A 
HETATM    8  C   UNL     1       4.478  -5.590   0.191  1.00  0.00     0.036 A 
HETATM    9  C   UNL     1       3.980  -4.292   0.047  1.00  0.00     0.066 A 
ENDROOT
BRANCH   3  10
HETATM   10  C   UNL     1      -0.672  -5.653  -0.584  1.00  0.00     0.276 C 
HETATM   11  N   UNL     1      -1.896  -5.028  -0.387  1.00  0.00    -0.322 N 
HETATM   12  H   UNL     1      -1.913  -4.027  -0.224  1.00  0.00     0.169 HD
HETATM   13  O   UNL     1      -0.565  -6.858  -0.808  1.00  0.00    -0.266 OA
BRANCH  11  14
HETATM   14  C   UNL     1      -3.183  -5.616  -0.403  1.00  0.00     0.035 A 
HETATM   15  C   UNL     1      -3.433  -6.977  -0.574  1.00  0.00     0.032 A 
HETATM   16  C   UNL     1      -4.748  -7.460  -0.571  1.00  0.00     0.039 A 
HETATM   17  C   UNL     1      -5.834  -6.599  -0.402  1.00  0.00     0.075 A 
HETATM   18  C   UNL     1      -5.588  -5.241  -0.229  1.00  0.00     0.039 A 
HETATM   19  C   UNL     1      -4.274  -4.755  -0.228  1.00  0.00     0.032 A 
BRANCH  17  20
HETATM   20  O   UNL     1      -7.054  -7.209  -0.425  1.00  0.00    -0.290 OA
BRANCH  20  21
HETATM   21  C   UNL     1      -8.217  -6.400  -0.296  1.00  0.00     0.505 C 
HETATM   22  F   UNL     1      -8.190  -5.743   0.889  1.00  0.00    -0.184 F 
HETATM   23  F   UNL     1      -8.250  -5.479  -1.289  1.00  0.00    -0.184 F 
ENDBRANCH  20  21
ENDBRANCH  17  20
ENDBRANCH  11  14
ENDBRANCH   3  10
BRANCH   2  24
HETATM   24  S   UNL     1      -0.754  -2.225  -0.779  1.00  0.00    -0.123 SA
HETATM   25  H   UNL     1      -0.164  -1.053  -0.513  1.00  0.00     0.108 HD
ENDBRANCH   2  24
BRANCH   1  26
HETATM   26  C   UNL     1       2.504  -1.653  -0.319  1.00  0.00     0.177 C 
BRANCH  26  27
HETATM   27  C   UNL     1       2.777  -1.238   1.093  1.00  0.00     0.001 A 
HETATM   28  S   UNL     1       1.485  -1.017   2.201  1.00  0.00    -0.105 SA
HETATM   29  C   UNL     1       2.552  -0.605   3.469  1.00  0.00     0.050 A 
HETATM   30  C   UNL     1       3.866  -0.614   3.060  1.00  0.00     0.008 A 
HETATM   31  C   UNL     1       3.997  -0.970   1.687  1.00  0.00     0.017 A 
ENDBRANCH  26  27
ENDBRANCH   1  26
BRANCH   8  32
HETATM   32  C   UNL     1       5.921  -5.713   0.500  1.00  0.00     0.251 C 
HETATM   33  N   UNL     1       6.579  -6.823   0.032  1.00  0.00    -0.355 N 
HETATM   34  H   UNL     1       6.119  -7.481  -0.582  1.00  0.00     0.162 HD
HETATM   35  O   UNL     1       6.466  -4.805   1.117  1.00  0.00    -0.268 OA
BRANCH  33  36
HETATM   36  C   UNL     1       7.990  -7.076   0.327  1.00  0.00     0.148 C 
BRANCH  36  37
HETATM   37  C   UNL     1       8.947  -6.061  -0.311  1.00  0.00     0.183 C 
BRANCH  37  38
HETATM   38  O   UNL     1       9.047  -4.863   0.453  1.00  0.00    -0.399 OA
HETATM   39  H   UNL     1       8.158  -4.665   0.816  1.00  0.00     0.209 HD
ENDBRANCH  37  38
ENDBRANCH  36  37
ENDBRANCH  33  36
ENDBRANCH   8  32
TORSDOF 11
