REMARK  6 active torsions:
REMARK  status: ('A' for Active; 'I' for Inactive)
REMARK    1  A    between atoms: C_7  and  S_8 
REMARK    2  A    between atoms: S_8  and  C_9 
REMARK    3  A    between atoms: C_9  and  C_10 
REMARK    4  A    between atoms: C_18  and  C_19 
REMARK    5  A    between atoms: C_27  and  C_28 
REMARK    6  A    between atoms: C_28  and  O_29 
ROOT
HETATM    1  C   UNL     1       0.763   0.294   0.158  1.00  0.00     0.070 C 
HETATM    2  C   UNL     1       2.265   0.154   0.168  1.00  0.00     0.037 A 
HETATM    3  N   UNL     1       2.972   1.306   0.494  1.00  0.00    -0.192 N 
HETATM    4  C   UNL     1       4.315   1.362   0.546  1.00  0.00     0.726 A 
HETATM    5  N   UNL     1       5.045   0.254   0.215  1.00  0.00    -0.082 N 
HETATM    6  N   UNL     1       6.366   0.474   0.370  1.00  0.00    -0.128 NA
HETATM    7  C   UNL     1       6.364   1.755   0.758  1.00  0.00     0.226 A 
HETATM    8  N   UNL     1       5.124   2.334   0.880  1.00  0.00    -0.035 NA
HETATM    9  C   UNL     1       4.458  -1.034  -0.180  1.00  0.00     0.208 A 
HETATM   10  C   UNL     1       2.934  -0.987  -0.138  1.00  0.00     0.070 A 
HETATM   11  H   UNL     1       2.437   2.137   0.731  1.00  0.00     0.184 HD
ENDROOT
BRANCH   7  12
HETATM   12  S   UNL     1       7.854   2.597   1.079  1.00  0.00    -0.083 SA
BRANCH  12  13
HETATM   13  C   UNL     1       7.195   4.133   1.784  1.00  0.00     0.123 C 
BRANCH  13  14
HETATM   14  C   UNL     1       8.297   5.095   2.163  1.00  0.00    -0.027 A 
HETATM   15  C   UNL     1       8.938   5.065   3.412  1.00  0.00     0.041 A 
HETATM   16 CL   UNL     1       8.508   3.924   4.636  1.00  0.00    -0.084 Cl
HETATM   17  C   UNL     1       9.958   5.975   3.710  1.00  0.00     0.024 A 
HETATM   18  C   UNL     1      10.354   6.922   2.767  1.00  0.00     0.002 A 
HETATM   19  C   UNL     1       9.735   6.959   1.521  1.00  0.00     0.001 A 
HETATM   20  C   UNL     1       8.718   6.051   1.219  1.00  0.00     0.009 A 
ENDBRANCH  13  14
ENDBRANCH  12  13
ENDBRANCH   7  12
BRANCH   9  21
HETATM   21  C   UNL     1       5.075  -1.508  -1.486  1.00  0.00     0.032 A 
HETATM   22  C   UNL     1       4.893  -0.893  -2.735  1.00  0.00     0.045 A 
HETATM   23 CL   UNL     1       3.910   0.510  -2.951  1.00  0.00    -0.084 Cl
HETATM   24  C   UNL     1       5.516  -1.404  -3.884  1.00  0.00     0.024 A 
HETATM   25  C   UNL     1       6.333  -2.530  -3.808  1.00  0.00     0.005 A 
HETATM   26  C   UNL     1       6.527  -3.150  -2.580  1.00  0.00     0.043 A 
HETATM   27  C   UNL     1       5.904  -2.640  -1.444  1.00  0.00     0.126 A 
HETATM   28  F   UNL     1       6.108  -3.272  -0.278  1.00  0.00    -0.205 F 
ENDBRANCH   9  21
BRANCH  10  29
HETATM   29  C   UNL     1       2.256  -2.276  -0.389  1.00  0.00     0.293 C 
HETATM   30  O   UNL     1       2.544  -3.031  -1.303  1.00  0.00    -0.259 OA
BRANCH  29  31
HETATM   31  O   UNL     1       1.344  -2.520   0.585  1.00  0.00    -0.323 OA
HETATM   32  C   UNL     1       0.649  -3.758   0.433  1.00  0.00     0.213 C 
ENDBRANCH  29  31
ENDBRANCH  10  29
TORSDOF 6
