REMARK  7 active torsions:
REMARK  status: ('A' for Active; 'I' for Inactive)
REMARK    1  A    between atoms: C_2  and  C_3 
REMARK    2  A    between atoms: N_16  and  C_17 
REMARK    3  A    between atoms: C_17  and  C_18 
REMARK       I    between atoms: C_18  and  N_19 
REMARK    4  A    between atoms: N_19  and  C_20 
REMARK    5  A    between atoms: C_21  and  C_22 
REMARK       I    between atoms: C_22  and  N_23 
REMARK    6  A    between atoms: N_23  and  C_24 
REMARK    7  A    between atoms: C_24  and  C_25 
ROOT
HETATM    1  C   UNL     1       5.073  -1.376   2.492  1.00  0.00     0.240 C 
ENDROOT
BRANCH   1   2
HETATM    2  N   UNL     1       3.889  -0.641   2.088  1.00  0.00    -0.259 N 
HETATM    3  C   UNL     1       3.483  -0.503   0.799  1.00  0.00     0.326 A 
HETATM    4  N   UNL     1       2.367   0.294   0.770  1.00  0.00    -0.321 N 
HETATM    5  O   UNL     1       3.973  -1.028  -0.184  1.00  0.00    -0.247 OA
HETATM    6  C   UNL     1       2.038   0.846   2.064  1.00  0.00     0.140 A 
HETATM    7  H   UNL     1       1.930   0.566  -0.101  1.00  0.00     0.165 HD
HETATM    8  C   UNL     1       2.372   2.349   1.995  1.00  0.00     0.055 C 
HETATM    9  C   UNL     1       3.123   0.135   2.915  1.00  0.00     0.261 A 
HETATM   10  O   UNL     1       3.302   0.282   4.116  1.00  0.00    -0.270 OA
BRANCH   6  11
HETATM   11  C   UNL     1       0.626   0.533   2.592  1.00  0.00    -0.010 A 
HETATM   12  C   UNL     1      -0.273  -0.484   2.095  1.00  0.00    -0.017 A 
HETATM   13  C   UNL     1      -1.555  -0.611   2.711  1.00  0.00    -0.025 A 
HETATM   14  C   UNL     1      -0.021  -1.409   1.044  1.00  0.00     0.013 A 
HETATM   15  C   UNL     1      -2.488  -1.565   2.270  1.00  0.00     0.012 A 
HETATM   16  C   UNL     1      -1.922   0.204   3.785  1.00  0.00     0.012 A 
HETATM   17  C   UNL     1      -2.196  -2.433   1.227  1.00  0.00     0.001 A 
HETATM   18  C   UNL     1      -0.958  -2.358   0.615  1.00  0.00     0.001 A 
HETATM   19  C   UNL     1      -1.044   1.144   4.294  1.00  0.00     0.002 A 
HETATM   20  C   UNL     1       0.208   1.296   3.713  1.00  0.00     0.011 A 
ENDBRANCH   6  11
ENDBRANCH   1   2
BRANCH   1  21
HETATM   21  C   UNL     1       4.889  -2.897   2.485  1.00  0.00     0.240 C 
HETATM   22  N   UNL     1       3.577  -3.338   2.598  1.00  0.00    -0.325 N 
HETATM   23  H   UNL     1       2.910  -2.660   2.251  1.00  0.00     0.169 HD
HETATM   24  O   UNL     1       5.867  -3.646   2.450  1.00  0.00    -0.271 OA
BRANCH  22  25
HETATM   25  C   UNL     1       3.243  -4.684   2.307  1.00  0.00     0.050 A 
HETATM   26  C   UNL     1       3.575  -5.799   3.097  1.00  0.00     0.058 A 
HETATM   27  C   UNL     1       3.153  -7.079   2.687  1.00  0.00     0.019 A 
HETATM   28  C   UNL     1       2.419  -7.256   1.515  1.00  0.00     0.001 A 
HETATM   29  C   UNL     1       2.066  -6.151   0.752  1.00  0.00     0.002 A 
HETATM   30  C   UNL     1       2.463  -4.874   1.152  1.00  0.00     0.030 A 
BRANCH  26  31
HETATM   31  C   UNL     1       4.182  -5.759   4.454  1.00  0.00     0.254 C 
HETATM   32  N   UNL     1       5.380  -5.109   4.600  1.00  0.00    -0.351 N 
HETATM   33  H   UNL     1       5.846  -4.771   3.760  1.00  0.00     0.163 HD
HETATM   34  O   UNL     1       3.643  -6.382   5.365  1.00  0.00    -0.268 OA
BRANCH  32  35
HETATM   35  C   UNL     1       6.144  -5.261   5.817  1.00  0.00     0.187 C 
BRANCH  35  36
HETATM   36  C   UNL     1       7.250  -4.274   5.885  1.00  0.00     0.070 A 
HETATM   37  O   UNL     1       7.522  -3.768   7.125  1.00  0.00    -0.325 OA
HETATM   38  C   UNL     1       8.575  -2.923   6.992  1.00  0.00     0.142 A 
HETATM   39  C   UNL     1       8.991  -2.874   5.684  1.00  0.00     0.027 A 
HETATM   40  C   UNL     1       8.141  -3.752   4.968  1.00  0.00     0.036 A 
ENDBRANCH  35  36
ENDBRANCH  32  35
ENDBRANCH  26  31
ENDBRANCH  22  25
ENDBRANCH   1  21
TORSDOF 7
