REMARK  11 active torsions:
REMARK  status: ('A' for Active; 'I' for Inactive)
REMARK    1  A    between atoms: C_2  and  O_3 
REMARK    2  A    between atoms: C_2  and  C_4 
REMARK    3  A    between atoms: C_8  and  C_9 
REMARK    4  A    between atoms: C_12  and  C_13 
REMARK    5  A    between atoms: C_13  and  C_14 
REMARK    6  A    between atoms: C_14  and  N_15 
REMARK    7  A    between atoms: C_14  and  C_29 
REMARK       I    between atoms: N_15  and  C_16 
REMARK    8  A    between atoms: C_16  and  C_17 
REMARK    9  A    between atoms: C_21  and  O_22 
REMARK   10  A    between atoms: O_22  and  C_23 
REMARK   11  A    between atoms: C_29  and  N_30 
ROOT
HETATM    1  C   UNL     1       0.763   8.975  -4.230  1.00  0.00     0.114 C 
ENDROOT
BRANCH   1   2
HETATM    2  C   UNL     1       0.565   7.478  -4.587  1.00  0.00     0.065 C 
BRANCH   2   3
HETATM    3  C   UNL     1      -0.413   6.755  -3.690  1.00  0.00    -0.056 A 
HETATM    4  C   UNL     1      -0.279   6.787  -2.295  1.00  0.00     0.008 A 
HETATM    5  C   UNL     1      -1.141   6.051  -1.474  1.00  0.00     0.014 A 
HETATM    6  C   UNL     1      -2.142   5.243  -2.027  1.00  0.00    -0.006 A 
HETATM    7  C   UNL     1      -2.269   5.208  -3.422  1.00  0.00     0.014 A 
HETATM    8  C   UNL     1      -1.416   5.951  -4.245  1.00  0.00     0.008 A 
BRANCH   6   9
HETATM    9  C   UNL     1      -3.020   4.422  -1.204  1.00  0.00     0.085 A 
HETATM   10  C   UNL     1      -2.994   4.308   0.170  1.00  0.00     0.130 A 
HETATM   11  N   UNL     1      -3.974   3.401   0.488  1.00  0.00    -0.315 N 
HETATM   12  C   UNL     1      -4.561   3.003  -0.706  1.00  0.00     0.143 A 
HETATM   13  C   UNL     1      -4.355   2.924   1.736  1.00  0.00     0.098 A 
HETATM   14  C   UNL     1      -5.627   2.033  -0.649  1.00  0.00     0.017 A 
HETATM   15  N   UNL     1      -4.003   3.614  -1.734  1.00  0.00    -0.228 NA
HETATM   16  C   UNL     1      -5.991   1.586   0.581  1.00  0.00     0.015 A 
HETATM   17  C   UNL     1      -5.349   2.026   1.810  1.00  0.00     0.018 A 
BRANCH  14  18
HETATM   18  C   UNL     1      -6.326   1.550  -1.910  1.00  0.00     0.150 C 
HETATM   19  C   UNL     1      -5.474   0.543  -2.676  1.00  0.00     0.044 C 
BRANCH  18  20
HETATM   20  O   UNL     1      -7.580   0.937  -1.599  1.00  0.00    -0.391 OA
HETATM   21  H   UNL     1      -8.004   0.714  -2.445  1.00  0.00     0.210 HD
ENDBRANCH  18  20
ENDBRANCH  14  18
ENDBRANCH   6   9
ENDBRANCH   2   3
ENDBRANCH   1   2
BRANCH   1  22
HETATM   22  N   UNL     1       2.204   9.241  -4.024  1.00  0.00    -0.350 N 
HETATM   23  C   UNL     1       2.706  10.452  -3.598  1.00  0.00     0.252 C 
HETATM   24  O   UNL     1       2.008  11.461  -3.546  1.00  0.00    -0.268 OA
HETATM   25  H   UNL     1       2.778   8.435  -3.788  1.00  0.00     0.163 HD
BRANCH  23  26
HETATM   26  C   UNL     1       4.133  10.477  -3.187  1.00  0.00     0.033 A 
HETATM   27  C   UNL     1       4.518  11.350  -2.166  1.00  0.00     0.043 A 
HETATM   28  C   UNL     1       5.854  11.393  -1.759  1.00  0.00     0.068 A 
HETATM   29 CL   UNL     1       6.275  12.476  -0.481  1.00  0.00    -0.081 Cl
HETATM   30  C   UNL     1       6.820  10.591  -2.384  1.00  0.00     0.091 A 
HETATM   31  C   UNL     1       6.425   9.713  -3.397  1.00  0.00     0.039 A 
HETATM   32  C   UNL     1       5.088   9.661  -3.806  1.00  0.00     0.020 A 
BRANCH  30  33
HETATM   33  O   UNL     1       8.106  10.665  -1.923  1.00  0.00    -0.345 OA
BRANCH  33  34
HETATM   34  C   UNL     1       9.163  10.648  -2.893  1.00  0.00     0.121 C 
HETATM   35  C   UNL     1       9.172  11.937  -3.714  1.00  0.00     0.040 C 
HETATM   36  C   UNL     1      10.468  10.520  -2.112  1.00  0.00     0.040 C 
ENDBRANCH  33  34
ENDBRANCH  30  33
ENDBRANCH  23  26
ENDBRANCH   1  22
BRANCH   1  37
HETATM   37  C   UNL     1       0.115   9.859  -5.334  1.00  0.00     0.254 C 
BRANCH  37  38
HETATM   38  N   UNL     1      -0.099  11.255  -4.871  1.00  0.00    -0.077 N 
HETATM   39  H   UNL     1      -0.825  11.329  -4.150  1.00  0.00     0.274 HD
HETATM   40  H   UNL     1       0.769  11.613  -4.416  1.00  0.00     0.274 HD
HETATM   41  H   UNL     1      -0.321  11.904  -5.633  1.00  0.00     0.274 HD
ENDBRANCH  37  38
ENDBRANCH   1  37
TORSDOF 11
