REMARK  6 active torsions:
REMARK  status: ('A' for Active; 'I' for Inactive)
REMARK    1  A    between atoms: C_11  and  N_12 
REMARK       I    between atoms: N_12  and  C_13 
REMARK    2  A    between atoms: C_13  and  C_14 
REMARK    3  A    between atoms: N_15  and  C_17 
REMARK    4  A    between atoms: C_17  and  C_18 
REMARK    5  A    between atoms: C_26  and  S_27 
REMARK    6  A    between atoms: S_27  and  C_28 
ROOT
HETATM    1  C   UNL     1      -6.058  -0.167   1.700  1.00  0.00     0.281 C 
HETATM    2  N   UNL     1      -5.281   0.975   2.433  1.00  0.00    -0.053 N 
HETATM    3  H   UNL     1      -5.862   1.239   3.242  1.00  0.00     0.281 HD
HETATM    4  C   UNL     1      -5.247   2.163   1.492  1.00  0.00     0.252 C 
HETATM    5  C   UNL     1      -6.477   1.970   0.622  1.00  0.00     0.083 C 
HETATM    6  C   UNL     1      -6.447   0.471   0.360  1.00  0.00     0.060 C 
ENDROOT
BRANCH   1   7
HETATM    7  C   UNL     1      -5.330  -1.527   1.532  1.00  0.00     0.253 C 
HETATM    8  N   UNL     1      -5.846  -2.349   0.542  1.00  0.00    -0.325 N 
HETATM    9  H   UNL     1      -6.687  -2.070   0.051  1.00  0.00     0.169 HD
HETATM   10  O   UNL     1      -4.398  -1.824   2.275  1.00  0.00    -0.271 OA
BRANCH   8  11
HETATM   11  C   UNL     1      -5.283  -3.562   0.070  1.00  0.00     0.036 A 
HETATM   12  C   UNL     1      -4.120  -4.142   0.582  1.00  0.00     0.059 A 
HETATM   13  C   UNL     1      -3.554  -5.313   0.032  1.00  0.00     0.041 A 
HETATM   14  N   UNL     1      -2.349  -5.764   0.597  1.00  0.00    -0.355 N 
HETATM   15  C   UNL     1      -4.175  -5.893  -1.077  1.00  0.00    -0.031 A 
HETATM   16  C   UNL     1      -1.279  -6.559   0.146  1.00  0.00     0.039 A 
HETATM   17  H   UNL     1      -2.219  -5.442   1.550  1.00  0.00     0.166 HD
HETATM   18  C   UNL     1      -1.152  -7.087  -1.147  1.00  0.00    -0.031 A 
HETATM   19  C   UNL     1      -0.238  -6.803   1.069  1.00  0.00     0.030 A 
HETATM   20  C   UNL     1       0.022  -7.792  -1.494  1.00  0.00     0.009 A 
HETATM   21  C   UNL     1      -2.190  -6.904  -2.225  1.00  0.00     0.045 C 
HETATM   22  C   UNL     1       1.041  -8.008  -0.570  1.00  0.00     0.001 A 
HETATM   23  C   UNL     1       0.907  -7.520   0.719  1.00  0.00     0.002 A 
HETATM   24  C   UNL     1      -3.618  -7.125  -1.739  1.00  0.00     0.045 C 
HETATM   25  C   UNL     1      -5.368  -5.337  -1.572  1.00  0.00     0.012 A 
HETATM   26  C   UNL     1      -5.916  -4.185  -1.004  1.00  0.00     0.030 A 
ENDBRANCH   8  11
ENDBRANCH   1   7
BRANCH   2  27
HETATM   27  C   UNL     1      -3.932   0.662   3.046  1.00  0.00     0.277 C 
BRANCH  27  28
HETATM   28  C   UNL     1      -3.322   1.838   3.759  1.00  0.00     0.006 A 
HETATM   29  C   UNL     1      -3.951   2.359   4.893  1.00  0.00     0.124 A 
HETATM   30  F   UNL     1      -5.111   1.819   5.296  1.00  0.00    -0.206 F 
HETATM   31  C   UNL     1      -3.428   3.447   5.582  1.00  0.00     0.043 A 
HETATM   32  C   UNL     1      -2.250   4.037   5.131  1.00  0.00     0.003 A 
HETATM   33  C   UNL     1      -1.607   3.535   3.997  1.00  0.00     0.001 A 
HETATM   34  C   UNL     1      -2.137   2.438   3.313  1.00  0.00     0.012 A 
ENDBRANCH  27  28
ENDBRANCH   2  27
BRANCH   5  35
HETATM   35  S   UNL     1      -6.419   2.879  -0.949  1.00  0.00    -0.084 SA
BRANCH  35  36
HETATM   36  C   UNL     1      -6.206   4.538  -0.352  1.00  0.00     0.188 A 
HETATM   37  N   UNL     1      -6.655   4.833   0.880  1.00  0.00    -0.235 NA
HETATM   38  C   UNL     1      -6.454   6.104   1.290  1.00  0.00     0.121 A 
HETATM   39  C   UNL     1      -5.800   7.052   0.539  1.00  0.00     0.038 A 
HETATM   40  C   UNL     1      -5.355   6.629  -0.690  1.00  0.00     0.121 A 
HETATM   41  N   UNL     1      -5.537   5.378  -1.151  1.00  0.00    -0.235 NA
ENDBRANCH  35  36
ENDBRANCH   5  35
TORSDOF 6
