REMARK  7 active torsions:
REMARK  status: ('A' for Active; 'I' for Inactive)
REMARK    1  A    between atoms: O_2  and  C_3 
REMARK    2  A    between atoms: C_3  and  C_5 
REMARK    3  A    between atoms: C_9  and  N_10 
REMARK       I    between atoms: N_10  and  C_13 
REMARK    4  A    between atoms: C_13  and  C_15 
REMARK    5  A    between atoms: C_15  and  C_16 
REMARK    6  A    between atoms: C_16  and  N_17 
REMARK    7  A    between atoms: N_23  and  C_26 
ROOT
HETATM    1  C   UNL     1      11.557  -1.274   5.143  1.00  0.00     0.142 A 
HETATM    2  N   UNL     1      11.750  -0.385   6.148  1.00  0.00    -0.224 NA
HETATM    3  C   UNL     1      12.900  -0.466   6.860  1.00  0.00     0.237 A 
HETATM    4  N   UNL     1      13.894  -1.356   6.728  1.00  0.00    -0.223 NA
HETATM    5  C   UNL     1      13.666  -2.213   5.726  1.00  0.00     0.144 A 
HETATM    6  N   UNL     1      14.514  -3.218   5.339  1.00  0.00    -0.348 N 
HETATM    7  H   UNL     1      15.402  -3.414   5.783  1.00  0.00     0.167 HD
HETATM    8  C   UNL     1      13.978  -3.882   4.258  1.00  0.00     0.113 A 
HETATM    9  C   UNL     1      12.774  -3.279   3.956  1.00  0.00     0.077 A 
HETATM   10  C   UNL     1      11.888  -3.621   2.888  1.00  0.00     0.102 C 
HETATM   11  N   UNL     1      11.068  -3.803   2.085  1.00  0.00    -0.191 NA
HETATM   12  C   UNL     1      12.556  -2.236   4.900  1.00  0.00     0.078 A 
ENDROOT
BRANCH   1  13
HETATM   13  N   UNL     1      10.395  -1.197   4.361  1.00  0.00    -0.365 N 
HETATM   14  C   UNL     1       9.437  -2.254   4.653  1.00  0.00     0.126 C 
HETATM   15  C   UNL     1       8.345  -1.741   5.577  1.00  0.00     0.041 C 
HETATM   16  C   UNL     1       7.712  -0.430   5.075  1.00  0.00     0.076 C 
HETATM   17  C   UNL     1       8.788   0.642   4.804  1.00  0.00     0.041 C 
HETATM   18  C   UNL     1      10.006   0.158   4.019  1.00  0.00     0.126 C 
BRANCH  16  19
HETATM   19  C   UNL     1       6.899  -0.742   3.785  1.00  0.00     0.330 C 
HETATM   20  N   UNL     1       7.423  -0.665   2.453  1.00  0.00     0.018 N 
HETATM   21  H   UNL     1       8.287  -1.219   2.394  1.00  0.00     0.294 HD
HETATM   22  H   UNL     1       7.754   0.287   2.279  1.00  0.00     0.294 HD
HETATM   23  O   UNL     1       5.739  -1.121   3.845  1.00  0.00    -0.264 OA
BRANCH  20  24
HETATM   24  C   UNL     1       6.569  -1.046   1.334  1.00  0.00     0.142 A 
HETATM   25  C   UNL     1       5.788  -0.076   0.703  1.00  0.00     0.037 A 
HETATM   26  C   UNL     1       5.019  -0.428  -0.406  1.00  0.00     0.003 A 
HETATM   27  C   UNL     1       5.034  -1.741  -0.884  1.00  0.00     0.018 A 
HETATM   28  C   UNL     1       5.821  -2.711  -0.251  1.00  0.00     0.041 A 
HETATM   29  C   UNL     1       6.595  -2.358   0.866  1.00  0.00     0.055 A 
BRANCH  28  30
HETATM   30  C   UNL     1       5.879  -4.122  -0.713  1.00  0.00     0.293 C 
HETATM   31  O   UNL     1       6.445  -4.987  -0.065  1.00  0.00    -0.259 OA
BRANCH  30  32
HETATM   32  O   UNL     1       5.265  -4.265  -1.907  1.00  0.00    -0.323 OA
HETATM   33  C   UNL     1       5.317  -5.592  -2.438  1.00  0.00     0.213 C 
ENDBRANCH  30  32
ENDBRANCH  28  30
ENDBRANCH  20  24
ENDBRANCH  16  19
BRANCH  16  34
HETATM   34  C   UNL     1       6.651   0.096   6.115  1.00  0.00     0.253 C 
BRANCH  34  35
HETATM   35  N   UNL     1       7.003   0.019   7.602  1.00  0.00    -0.078 N 
HETATM   36  H   UNL     1       7.272  -0.944   7.850  1.00  0.00     0.279 HD
HETATM   37  C   UNL     1       8.116   0.915   8.089  1.00  0.00     0.269 C 
HETATM   38  C   UNL     1       5.757   0.267   8.449  1.00  0.00     0.269 C 
ENDBRANCH  34  35
ENDBRANCH  16  34
ENDBRANCH   1  13
TORSDOF 7
