REMARK  7 active torsions:
REMARK  status: ('A' for Active; 'I' for Inactive)
REMARK    1  A    between atoms: C_2  and  O_3 
REMARK    2  A    between atoms: O_3  and  C_4 
REMARK    3  A    between atoms: C_5  and  N_6 
REMARK    4  A    between atoms: N_9  and  C_11 
REMARK    5  A    between atoms: C_11  and  C_12 
REMARK       I    between atoms: C_12  and  N_13 
REMARK    6  A    between atoms: N_13  and  C_14 
REMARK    7  A    between atoms: C_15  and  C_16 
ROOT
HETATM    1  C   UNL     1       4.699   5.599   0.481  1.00  0.00     0.275 C 
HETATM    2  C   UNL     1       3.966   6.694  -0.294  1.00  0.00     0.050 C 
ENDROOT
BRANCH   1   3
HETATM    3  N   UNL     1       4.401   4.235  -0.201  1.00  0.00    -0.056 N 
HETATM    4  C   UNL     1       5.098   4.012  -1.556  1.00  0.00     0.255 C 
HETATM    5  C   UNL     1       4.627   2.673  -2.177  1.00  0.00     0.150 C 
HETATM    6  N   UNL     1       4.863   1.562  -1.227  1.00  0.00    -0.375 N 
HETATM    7  C   UNL     1       4.241   1.736   0.094  1.00  0.00     0.150 C 
HETATM    8  C   UNL     1       4.709   3.059   0.725  1.00  0.00     0.255 C 
HETATM    9  H   UNL     1       3.393   4.209  -0.385  1.00  0.00     0.281 HD
BRANCH   6  10
HETATM   10  C   UNL     1       4.852   0.271  -1.799  1.00  0.00     0.064 A 
HETATM   11  C   UNL     1       5.803  -0.113  -2.785  1.00  0.00     0.095 A 
HETATM   12  C   UNL     1       5.794  -1.417  -3.306  1.00  0.00     0.039 A 
HETATM   13  C   UNL     1       4.861  -2.355  -2.867  1.00  0.00     0.003 A 
HETATM   14  C   UNL     1       3.929  -2.000  -1.904  1.00  0.00     0.002 A 
HETATM   15  C   UNL     1       3.927  -0.706  -1.378  1.00  0.00     0.032 A 
BRANCH  11  16
HETATM   16  O   UNL     1       6.739   0.834  -3.143  1.00  0.00    -0.349 OA
BRANCH  16  17
HETATM   17  C   UNL     1       7.631   0.504  -4.209  1.00  0.00     0.171 C 
HETATM   18  C   UNL     1       8.456   1.737  -4.535  1.00  0.00     0.034 C 
ENDBRANCH  16  17
ENDBRANCH  11  16
ENDBRANCH   6  10
ENDBRANCH   1   3
BRANCH   1  19
HETATM   19  C   UNL     1       6.209   5.907   0.581  1.00  0.00     0.253 C 
HETATM   20  N   UNL     1       6.945   5.504   1.663  1.00  0.00    -0.325 N 
HETATM   21  H   UNL     1       7.937   5.440   1.448  1.00  0.00     0.169 HD
HETATM   22  O   UNL     1       6.817   6.342  -0.403  1.00  0.00    -0.271 OA
BRANCH  20  23
HETATM   23  C   UNL     1       6.530   4.978   2.901  1.00  0.00     0.045 A 
HETATM   24  C   UNL     1       5.532   5.548   3.728  1.00  0.00     0.001 A 
HETATM   25  C   UNL     1       5.164   4.830   4.887  1.00  0.00     0.014 A 
HETATM   26  C   UNL     1       5.783   3.629   5.237  1.00  0.00     0.001 A 
HETATM   27  C   UNL     1       6.819   3.133   4.458  1.00  0.00     0.002 A 
HETATM   28  C   UNL     1       7.205   3.816   3.308  1.00  0.00     0.030 A 
BRANCH  24  29
HETATM   29  C   UNL     1       4.961   6.902   3.531  1.00  0.00    -0.024 A 
HETATM   30  C   UNL     1       3.578   7.140   3.651  1.00  0.00     0.012 A 
HETATM   31  C   UNL     1       3.049   8.427   3.514  1.00  0.00     0.001 A 
HETATM   32  C   UNL     1       3.893   9.503   3.257  1.00  0.00     0.000 A 
HETATM   33  C   UNL     1       5.264   9.294   3.141  1.00  0.00     0.001 A 
HETATM   34  C   UNL     1       5.791   8.008   3.280  1.00  0.00     0.012 A 
ENDBRANCH  24  29
ENDBRANCH  20  23
ENDBRANCH   1  19
TORSDOF 7
