REMARK  6 active torsions:
REMARK  status: ('A' for Active; 'I' for Inactive)
REMARK    1  A    between atoms: O_2  and  C_3 
REMARK    2  A    between atoms: C_3  and  C_4 
REMARK    3  A    between atoms: C_4  and  N_5 
REMARK       I    between atoms: N_5  and  C_6 
REMARK    4  A    between atoms: C_6  and  C_7 
REMARK    5  A    between atoms: C_12  and  C_13 
REMARK    6  A    between atoms: C_22  and  C_23 
ROOT
HETATM    1  C   UNL     1       7.102   1.731  -0.899  1.00  0.00     0.148 A 
HETATM    2  N   UNL     1       6.824   0.407  -0.956  1.00  0.00    -0.165 NA
HETATM    3  N   UNL     1       7.898  -0.160  -0.384  1.00  0.00    -0.240 N 
HETATM    4  C   UNL     1       8.885   0.722  -0.044  1.00  0.00     0.123 A 
HETATM    5  N   UNL     1      10.076   0.298   0.429  1.00  0.00    -0.366 N 
HETATM    6  C   UNL     1      10.385  -1.119   0.600  1.00  0.00     0.118 C 
HETATM    7  C   UNL     1       9.504  -1.989  -0.320  1.00  0.00     0.066 C 
HETATM    8  C   UNL     1       8.020  -1.596  -0.229  1.00  0.00     0.221 C 
HETATM    9  C   UNL     1       8.380   1.965  -0.315  1.00  0.00     0.088 A 
HETATM   10  H   UNL     1      10.747   0.956   0.826  1.00  0.00     0.161 HD
ENDROOT
BRANCH   1  11
HETATM   11  C   UNL     1       6.180   2.751  -1.421  1.00  0.00     0.272 C 
HETATM   12  N   UNL     1       5.030   2.226  -1.967  1.00  0.00    -0.354 N 
HETATM   13  H   UNL     1       5.017   1.215  -2.071  1.00  0.00     0.162 HD
HETATM   14  O   UNL     1       6.429   3.953  -1.393  1.00  0.00    -0.266 OA
BRANCH  12  15
HETATM   15  C   UNL     1       4.077   3.035  -2.696  1.00  0.00     0.149 C 
BRANCH  15  16
HETATM   16  C   UNL     1       4.534   3.331  -4.126  1.00  0.00     0.186 C 
BRANCH  16  17
HETATM   17  O   UNL     1       4.512   2.118  -4.888  1.00  0.00    -0.394 OA
HETATM   18  C   UNL     1       4.933   2.339  -6.227  1.00  0.00     0.201 C 
ENDBRANCH  16  17
ENDBRANCH  15  16
ENDBRANCH  12  15
ENDBRANCH   1  11
BRANCH   8  19
HETATM   19  C   UNL     1       7.385  -2.028   1.074  1.00  0.00     0.409 C 
HETATM   20  F   UNL     1       6.057  -1.788   1.112  1.00  0.00    -0.169 F 
HETATM   21  F   UNL     1       7.539  -3.370   1.234  1.00  0.00    -0.169 F 
HETATM   22  F   UNL     1       7.941  -1.449   2.159  1.00  0.00    -0.169 F 
ENDBRANCH   8  19
BRANCH   6  23
HETATM   23  C   UNL     1      11.857  -1.357   0.300  1.00  0.00    -0.034 A 
HETATM   24  C   UNL     1      12.472  -0.783  -0.829  1.00  0.00     0.034 A 
HETATM   25  C   UNL     1      13.821  -1.018  -1.114  1.00  0.00     0.056 A 
HETATM   26 CL   UNL     1      14.490  -0.265  -2.518  1.00  0.00    -0.083 Cl
HETATM   27  C   UNL     1      14.574  -1.841  -0.273  1.00  0.00     0.055 A 
HETATM   28 CL   UNL     1      16.243  -2.183  -0.559  1.00  0.00    -0.083 Cl
HETATM   29  C   UNL     1      13.973  -2.423   0.847  1.00  0.00     0.026 A 
HETATM   30  C   UNL     1      12.625  -2.184   1.132  1.00  0.00     0.011 A 
ENDBRANCH   6  23
TORSDOF 6
