REMARK  6 active torsions:
REMARK  status: ('A' for Active; 'I' for Inactive)
REMARK    1  A    between atoms: C_2  and  C_3 
REMARK    2  A    between atoms: C_3  and  N_4 
REMARK       I    between atoms: N_4  and  C_5 
REMARK    3  A    between atoms: C_5  and  C_6 
REMARK    4  A    between atoms: C_11  and  C_12 
REMARK    5  A    between atoms: C_15  and  O_16 
REMARK    6  A    between atoms: C_21  and  C_22 
ROOT
HETATM    1  C   UNL     1       4.608  -0.156  -4.244  1.00  0.00     0.170 A 
HETATM    2  N   UNL     1       4.382  -1.440  -4.625  1.00  0.00    -0.163 NA
HETATM    3  N   UNL     1       3.567  -1.317  -5.687  1.00  0.00    -0.238 N 
HETATM    4  C   UNL     1       3.322  -0.025  -6.057  1.00  0.00     0.145 A 
HETATM    5  N   UNL     1       2.578   0.266  -7.152  1.00  0.00    -0.365 N 
HETATM    6  C   UNL     1       1.866  -0.756  -7.910  1.00  0.00     0.118 C 
HETATM    7  C   UNL     1       2.612  -2.100  -7.812  1.00  0.00     0.066 C 
HETATM    8  C   UNL     1       3.055  -2.479  -6.387  1.00  0.00     0.221 C 
HETATM    9  C   UNL     1       3.964   0.757  -5.125  1.00  0.00     0.115 A 
HETATM   10 CL   UNL     1       3.977   2.453  -5.065  1.00  0.00    -0.077 Cl
HETATM   11  H   UNL     1       2.302   1.230  -7.344  1.00  0.00     0.162 HD
ENDROOT
BRANCH   6  12
HETATM   12  C   UNL     1       0.382  -0.812  -7.589  1.00  0.00    -0.035 A 
HETATM   13  C   UNL     1      -0.201  -0.093  -6.535  1.00  0.00     0.012 A 
HETATM   14  C   UNL     1      -1.578  -0.152  -6.300  1.00  0.00     0.037 A 
HETATM   15  C   UNL     1      -2.411  -0.917  -7.116  1.00  0.00     0.068 A 
HETATM   16  C   UNL     1      -1.849  -1.636  -8.168  1.00  0.00     0.037 A 
HETATM   17  C   UNL     1      -0.469  -1.581  -8.403  1.00  0.00     0.012 A 
BRANCH  15  18
HETATM   18  O   UNL     1      -3.735  -0.876  -6.782  1.00  0.00    -0.356 OA
HETATM   19  C   UNL     1      -4.639  -1.540  -7.655  1.00  0.00     0.210 C 
ENDBRANCH  15  18
ENDBRANCH   6  12
BRANCH   8  20
HETATM   20  C   UNL     1       1.978  -3.151  -5.565  1.00  0.00     0.409 C 
HETATM   21  F   UNL     1       1.007  -2.317  -5.152  1.00  0.00    -0.169 F 
HETATM   22  F   UNL     1       1.383  -4.135  -6.289  1.00  0.00    -0.169 F 
HETATM   23  F   UNL     1       2.490  -3.752  -4.465  1.00  0.00    -0.169 F 
ENDBRANCH   8  20
BRANCH   1  24
HETATM   24  C   UNL     1       5.424   0.144  -3.057  1.00  0.00     0.273 C 
HETATM   25  N   UNL     1       5.903  -0.992  -2.436  1.00  0.00    -0.356 N 
HETATM   26  H   UNL     1       5.582  -1.872  -2.831  1.00  0.00     0.162 HD
HETATM   27  O   UNL     1       5.644   1.278  -2.646  1.00  0.00    -0.266 OA
BRANCH  25  28
HETATM   28  C   UNL     1       6.601  -0.964  -1.173  1.00  0.00     0.122 C 
BRANCH  28  29
HETATM   29  C   UNL     1       5.648  -0.909   0.019  1.00  0.00     0.015 C 
HETATM   30  C   UNL     1       4.800  -2.166   0.149  1.00  0.00     0.006 C 
ENDBRANCH  28  29
ENDBRANCH  25  28
ENDBRANCH   1  24
TORSDOF 6
