REMARK  4 active torsions:
REMARK  status: ('A' for Active; 'I' for Inactive)
REMARK    1  A    between atoms: C_6  and  C_7 
REMARK    2  A    between atoms: C_10  and  O_11 
REMARK    3  A    between atoms: C_15  and  C_16 
REMARK       I    between atoms: C_16  and  N_17 
REMARK    4  A    between atoms: N_17  and  C_18 
ROOT
HETATM    1  C   UNL     1      -2.449  -0.014   0.695  1.00  0.00     0.001 A 
HETATM    2  C   UNL     1      -1.393   0.895   0.682  1.00  0.00     0.015 A 
HETATM    3  C   UNL     1      -0.065   0.471   0.415  1.00  0.00     0.008 A 
HETATM    4  C   UNL     1       0.182  -0.896   0.203  1.00  0.00     0.068 A 
HETATM    5  N   UNL     1       1.413  -1.395  -0.002  1.00  0.00    -0.248 NA
HETATM    6  C   UNL     1       2.494  -0.576   0.022  1.00  0.00     0.068 A 
HETATM    7  C   UNL     1       2.350   0.789   0.192  1.00  0.00     0.050 A 
HETATM    8  C   UNL     1       1.067   1.313   0.365  1.00  0.00     0.046 A 
HETATM    9  C   UNL     1      -0.888  -1.780   0.214  1.00  0.00     0.032 A 
HETATM   10  C   UNL     1      -2.197  -1.356   0.452  1.00  0.00     0.002 A 
ENDROOT
BRANCH   6  11
HETATM   11  C   UNL     1       3.805  -1.240  -0.149  1.00  0.00    -0.007 A 
HETATM   12  C   UNL     1       3.911  -2.447  -0.871  1.00  0.00     0.016 A 
HETATM   13  C   UNL     1       5.137  -3.101  -1.034  1.00  0.00     0.037 A 
HETATM   14  C   UNL     1       6.281  -2.555  -0.470  1.00  0.00     0.065 A 
HETATM   15  C   UNL     1       6.217  -1.370   0.250  1.00  0.00     0.037 A 
HETATM   16  C   UNL     1       4.988  -0.720   0.411  1.00  0.00     0.016 A 
BRANCH  14  17
HETATM   17  O   UNL     1       7.496  -3.159  -0.594  1.00  0.00    -0.361 OA
HETATM   18  H   UNL     1       7.380  -3.988  -1.085  1.00  0.00     0.217 HD
ENDBRANCH  14  17
ENDBRANCH   6  11
BRANCH   8  19
HETATM   19  C   UNL     1       0.984   2.786   0.486  1.00  0.00     0.253 C 
HETATM   20  N   UNL     1       0.128   3.405  -0.404  1.00  0.00    -0.352 N 
HETATM   21  H   UNL     1      -0.336   2.846  -1.110  1.00  0.00     0.163 HD
HETATM   22  O   UNL     1       1.699   3.369   1.291  1.00  0.00    -0.268 OA
BRANCH  20  23
HETATM   23  C   UNL     1      -0.013   4.825  -0.460  1.00  0.00     0.084 A 
HETATM   24  C   UNL     1      -1.059   5.456  -1.338  1.00  0.00     0.027 A 
HETATM   25  C   UNL     1      -1.207   5.500   0.155  1.00  0.00     0.027 A 
ENDBRANCH  20  23
ENDBRANCH   8  19
TORSDOF 4
