REMARK  9 active torsions:
REMARK  status: ('A' for Active; 'I' for Inactive)
REMARK    1  A    between atoms: C_4  and  C_5 
REMARK    2  A    between atoms: C_7  and  C_8 
REMARK    3  A    between atoms: C_8  and  C_9 
REMARK       I    between atoms: C_9  and  N_10 
REMARK    4  A    between atoms: N_10  and  C_11 
REMARK    5  A    between atoms: C_11  and  C_12 
REMARK    6  A    between atoms: C_12  and  N_13 
REMARK    7  A    between atoms: C_27  and  C_28 
REMARK    8  A    between atoms: C_28  and  O_29 
REMARK    9  A    between atoms: O_29  and  C_30 
ROOT
HETATM    1  C   UNL     1       3.356   6.652  -0.213  1.00  0.00     0.166 C 
HETATM    2  N   UNL     1       3.462   5.201   0.134  1.00  0.00    -0.319 N 
HETATM    3  C   UNL     1       2.614   4.226   0.278  1.00  0.00     0.011 C 
HETATM    4  C   UNL     1       4.918   4.708   0.364  1.00  0.00     0.170 C 
HETATM    5  S   UNL     1       4.998   3.011   0.696  1.00  0.00    -0.086 SA
HETATM    6  C   UNL     1       3.200   2.913   0.762  1.00  0.00     0.135 C 
HETATM    7  N   UNL     1       5.977   5.431   0.339  1.00  0.00    -0.229 NA
HETATM    8  C   UNL     1       5.854   6.781   0.134  1.00  0.00     0.048 C 
HETATM    9  C   UNL     1       7.184   7.506   0.127  1.00  0.00     0.071 C 
HETATM   10  C   UNL     1       4.665   7.380  -0.076  1.00  0.00     0.069 C 
ENDROOT
BRANCH   3  11
HETATM   11  C   UNL     1       1.125   4.414   0.136  1.00  0.00     0.156 C 
BRANCH  11  12
HETATM   12  C   UNL     1       0.388   3.246  -0.490  1.00  0.00     0.223 C 
HETATM   13  N   UNL     1      -0.953   3.159  -0.179  1.00  0.00    -0.359 N 
HETATM   14  H   UNL     1      -1.352   3.958   0.310  1.00  0.00     0.162 HD
HETATM   15  O   UNL     1       0.948   2.445  -1.227  1.00  0.00    -0.273 OA
BRANCH  13  16
HETATM   16  C   UNL     1      -1.902   2.475  -1.068  1.00  0.00     0.150 C 
BRANCH  16  17
HETATM   17  C   UNL     1      -1.607   1.005  -1.436  1.00  0.00     0.254 C 
BRANCH  17  18
HETATM   18  N   UNL     1      -1.311   0.155  -0.211  1.00  0.00    -0.070 N 
HETATM   19  H   UNL     1      -0.658   0.706   0.361  1.00  0.00     0.279 HD
HETATM   20  C   UNL     1      -2.543  -0.141   0.616  1.00  0.00     0.235 C 
HETATM   21  C   UNL     1      -2.150  -0.919   1.864  1.00  0.00     0.028 C 
HETATM   22  C   UNL     1      -1.398  -2.198   1.518  1.00  0.00     0.003 C 
HETATM   23  C   UNL     1      -0.194  -1.899   0.634  1.00  0.00     0.028 C 
HETATM   24  C   UNL     1      -0.589  -1.119  -0.611  1.00  0.00     0.235 C 
ENDBRANCH  17  18
ENDBRANCH  16  17
ENDBRANCH  13  16
ENDBRANCH  11  12
ENDBRANCH   3  11
BRANCH   1  25
HETATM   25  C   UNL     1       2.214   7.309   0.558  1.00  0.00    -0.030 A 
HETATM   26  C   UNL     1       1.142   7.879  -0.160  1.00  0.00     0.016 A 
HETATM   27  C   UNL     1       0.041   8.438   0.499  1.00  0.00    -0.061 A 
HETATM   28  C   UNL     1      -1.080   9.054  -0.289  1.00  0.00     0.048 C 
HETATM   29  C   UNL     1       0.042   8.481   1.895  1.00  0.00     0.007 A 
HETATM   30  C   UNL     1       1.115   7.961   2.619  1.00  0.00     0.001 A 
HETATM   31  C   UNL     1       2.197   7.376   1.960  1.00  0.00     0.009 A 
ENDBRANCH   1  25
BRANCH  10  32
HETATM   32  C   UNL     1       4.579   8.850  -0.227  1.00  0.00     0.294 C 
HETATM   33  O   UNL     1       4.004   9.380  -1.159  1.00  0.00    -0.259 OA
BRANCH  32  34
HETATM   34  O   UNL     1       5.122   9.424   0.869  1.00  0.00    -0.313 OA
BRANCH  34  35
HETATM   35  C   UNL     1       5.126  10.865   0.934  1.00  0.00     0.124 C 
HETATM   36  C   UNL     1       5.198  11.235   2.411  1.00  0.00     0.040 C 
HETATM   37  C   UNL     1       6.344  11.397   0.189  1.00  0.00     0.040 C 
ENDBRANCH  34  35
ENDBRANCH  32  34
ENDBRANCH  10  32
TORSDOF 9
