REMARK  6 active torsions:
REMARK  status: ('A' for Active; 'I' for Inactive)
REMARK    1  A    between atoms: C_5  and  N_6 
REMARK    2  A    between atoms: N_6  and  N_7 
REMARK       I    between atoms: N_7  and  C_8 
REMARK    3  A    between atoms: C_8  and  C_9 
REMARK    4  A    between atoms: C_9  and  N_10 
REMARK    5  A    between atoms: N_10  and  C_11 
REMARK    6  A    between atoms: C_13  and  C_14 
ROOT
HETATM    1  C   UNL     1       8.964   2.673  -1.462  1.00  0.00     0.203 A 
HETATM    2  N   UNL     1       8.161   3.628  -0.993  1.00  0.00    -0.217 NA
HETATM    3  C   UNL     1       8.539   4.913  -1.190  1.00  0.00     0.083 A 
HETATM    4  C   UNL     1       9.743   5.264  -1.825  1.00  0.00     0.023 A 
HETATM    5  C   UNL     1      10.488   4.175  -2.283  1.00  0.00     0.072 A 
HETATM    6  N   UNL     1      10.108   2.906  -2.109  1.00  0.00    -0.218 NA
HETATM    7  C   UNL     1      10.249   6.581  -2.010  1.00  0.00     0.023 A 
HETATM    8  C   UNL     1      11.467   6.808  -2.658  1.00  0.00    -0.061 A 
HETATM    9  C   UNL     1      11.986   8.199  -2.871  1.00  0.00     0.048 C 
HETATM   10  C   UNL     1      12.177   5.712  -3.139  1.00  0.00     0.009 A 
HETATM   11  C   UNL     1      11.687   4.418  -2.941  1.00  0.00     0.033 A 
ENDROOT
BRANCH   1  12
HETATM   12  N   UNL     1       8.675   1.333  -1.245  1.00  0.00    -0.252 NA
HETATM   13  H   UNL     1       9.222   0.843  -1.949  1.00  0.00     0.131 HD
BRANCH  12  14
HETATM   14  C   UNL     1       7.259   0.988  -1.248  1.00  0.00     0.199 C 
BRANCH  14  15
HETATM   15  C   UNL     1       6.729   0.718  -2.660  1.00  0.00     0.245 C 
HETATM   16  N   UNL     1       5.617  -0.116  -2.675  1.00  0.00    -0.286 N 
HETATM   17  H   UNL     1       5.035  -0.254  -1.854  1.00  0.00     0.184 HD
HETATM   18  O   UNL     1       7.243   1.151  -3.692  1.00  0.00    -0.271 OA
BRANCH  16  19
HETATM   19  N   UNL     1       4.961  -0.293  -3.910  1.00  0.00    -0.203 NA
HETATM   20  H   UNL     1       5.456   0.245  -4.639  1.00  0.00     0.153 HD
BRANCH  19  21
HETATM   21  C   UNL     1       4.905  -1.646  -4.344  1.00  0.00     0.027 A 
HETATM   22  C   UNL     1       4.020  -1.958  -5.385  1.00  0.00     0.026 A 
HETATM   23  C   UNL     1       3.956  -3.250  -5.917  1.00  0.00     0.008 A 
HETATM   24  C   UNL     1       4.787  -4.259  -5.424  1.00  0.00    -0.062 A 
HETATM   25  C   UNL     1       4.758  -5.635  -6.020  1.00  0.00     0.048 C 
HETATM   26  C   UNL     1       5.699  -3.947  -4.410  1.00  0.00     0.008 A 
HETATM   27  C   UNL     1       5.758  -2.654  -3.877  1.00  0.00     0.026 A 
ENDBRANCH  19  21
ENDBRANCH  16  19
ENDBRANCH  14  15
ENDBRANCH  12  14
ENDBRANCH   1  12
BRANCH   3  28
HETATM   28  C   UNL     1       7.573   5.895  -0.663  1.00  0.00    -0.006 A 
HETATM   29  C   UNL     1       7.196   5.867   0.691  1.00  0.00     0.014 A 
HETATM   30  C   UNL     1       6.283   6.791   1.206  1.00  0.00     0.001 A 
HETATM   31  C   UNL     1       5.725   7.757   0.373  1.00  0.00     0.000 A 
HETATM   32  C   UNL     1       6.070   7.793  -0.976  1.00  0.00     0.001 A 
HETATM   33  C   UNL     1       6.979   6.865  -1.491  1.00  0.00     0.014 A 
ENDBRANCH   3  28
TORSDOF 6
