REMARK  7 active torsions:
REMARK  status: ('A' for Active; 'I' for Inactive)
REMARK    1  A    between atoms: O_2  and  C_3 
REMARK    2  A    between atoms: C_4  and  O_5 
REMARK    3  A    between atoms: C_9  and  C_10 
REMARK    4  A    between atoms: C_10  and  N_11 
REMARK    5  A    between atoms: C_14  and  C_15 
REMARK    6  A    between atoms: C_15  and  N_16 
REMARK    7  A    between atoms: N_16  and  C_17 
ROOT
HETATM    1  N   UNL     1       1.644  -4.964   0.041  1.00  0.00    -0.067 N 
HETATM    2  H   UNL     1       2.108  -4.805   0.950  1.00  0.00     0.280 HD
HETATM    3  C   UNL     1       0.930  -6.297   0.116  1.00  0.00     0.241 C 
HETATM    4  C   UNL     1      -0.469  -6.005  -0.420  1.00  0.00     0.031 C 
HETATM    5  C   UNL     1      -0.727  -4.606   0.128  1.00  0.00     0.035 C 
HETATM    6  C   UNL     1       0.591  -3.886  -0.121  1.00  0.00     0.235 C 
ENDROOT
BRANCH   1   7
HETATM    7  C   UNL     1       2.756  -4.873  -0.983  1.00  0.00     0.274 C 
BRANCH   7   8
HETATM    8  C   UNL     1       3.888  -5.836  -0.727  1.00  0.00    -0.012 A 
HETATM    9  C   UNL     1       4.748  -5.707   0.381  1.00  0.00     0.021 A 
HETATM   10  C   UNL     1       5.763  -6.635   0.603  1.00  0.00     0.059 A 
HETATM   11 BR   UNL     1       4.558  -4.297   1.639  1.00  0.00    -0.050 Br
HETATM   12  C   UNL     1       5.918  -7.698  -0.277  1.00  0.00     0.100 A 
HETATM   13  C   UNL     1       5.088  -7.859  -1.388  1.00  0.00     0.101 A 
HETATM   14  C   UNL     1       4.082  -6.919  -1.615  1.00  0.00     0.049 A 
BRANCH  12  15
HETATM   15  O   UNL     1       6.913  -8.596  -0.018  1.00  0.00    -0.358 OA
HETATM   16  H   UNL     1       6.914  -9.235  -0.758  1.00  0.00     0.218 HD
ENDBRANCH  12  15
BRANCH  13  17
HETATM   17  O   UNL     1       5.353  -8.962  -2.152  1.00  0.00    -0.353 OA
HETATM   18  C   UNL     1       4.514  -9.208  -3.274  1.00  0.00     0.210 C 
ENDBRANCH  13  17
ENDBRANCH   7   8
ENDBRANCH   1   7
BRANCH   4  19
HETATM   19  C   UNL     1      -1.482  -7.069   0.015  1.00  0.00     0.127 C 
BRANCH  19  20
HETATM   20  N   UNL     1      -2.785  -6.848  -0.616  1.00  0.00    -0.376 N 
HETATM   21  H   UNL     1      -2.783  -6.305  -1.473  1.00  0.00     0.161 HD
BRANCH  20  22
HETATM   22  C   UNL     1      -3.818  -7.753  -0.429  1.00  0.00     0.100 A 
HETATM   23  N   UNL     1      -4.873  -7.697  -1.263  1.00  0.00    -0.353 N 
HETATM   24  H   UNL     1      -4.874  -6.986  -1.987  1.00  0.00     0.166 HD
HETATM   25  C   UNL     1      -5.935  -8.514  -1.182  1.00  0.00     0.089 A 
HETATM   26  C   UNL     1      -5.996  -9.481  -0.193  1.00  0.00     0.017 A 
HETATM   27  C   UNL     1      -4.949  -9.573   0.711  1.00  0.00     0.005 A 
HETATM   28  C   UNL     1      -3.863  -8.705   0.600  1.00  0.00     0.048 A 
ENDBRANCH  20  22
ENDBRANCH  19  20
ENDBRANCH   4  19
TORSDOF 7
