REMARK  7 active torsions:
REMARK  status: ('A' for Active; 'I' for Inactive)
REMARK    1  A    between atoms: C_2  and  C_3 
REMARK    2  A    between atoms: C_6  and  C_7 
REMARK    3  A    between atoms: C_7  and  N_8 
REMARK    4  A    between atoms: C_7  and  C_25 
REMARK    5  A    between atoms: N_8  and  C_11 
REMARK    6  A    between atoms: C_11  and  C_12 
REMARK       I    between atoms: C_12  and  N_13 
REMARK    7  A    between atoms: N_13  and  C_14 
ROOT
HETATM    1  N   UNL     1       4.134   5.980  -2.309  1.00  0.00    -0.054 N 
HETATM    2  H   UNL     1       3.959   6.027  -1.292  1.00  0.00     0.278 HD
HETATM    3  H   UNL     1       5.095   5.632  -2.378  1.00  0.00     0.278 HD
ENDROOT
BRANCH   1   4
HETATM    4  C   UNL     1       3.180   5.013  -2.929  1.00  0.00     0.259 C 
BRANCH   4   5
HETATM    5  C   UNL     1       3.169   3.682  -2.196  1.00  0.00    -0.023 A 
HETATM    6  C   UNL     1       1.938   3.107  -1.834  1.00  0.00     0.010 A 
HETATM    7  C   UNL     1       1.886   1.869  -1.189  1.00  0.00     0.007 A 
HETATM    8  C   UNL     1       3.061   1.173  -0.893  1.00  0.00    -0.059 A 
HETATM    9  C   UNL     1       4.290   1.734  -1.253  1.00  0.00     0.007 A 
HETATM   10  C   UNL     1       4.346   2.975  -1.894  1.00  0.00     0.010 A 
BRANCH   8  11
HETATM   11  C   UNL     1       3.000  -0.186  -0.240  1.00  0.00     0.034 C 
HETATM   12  C   UNL     1       2.764  -1.292  -1.259  1.00  0.00     0.010 C 
ENDBRANCH   8  11
ENDBRANCH   4   5
BRANCH   4  13
HETATM   13  C   UNL     1       3.427   4.862  -4.411  1.00  0.00     0.017 A 
HETATM   14  S   UNL     1       2.203   5.352  -5.517  1.00  0.00    -0.104 SA
HETATM   15  C   UNL     1       3.155   4.927  -6.868  1.00  0.00     0.050 A 
HETATM   16  C   UNL     1       4.383   4.429  -6.498  1.00  0.00     0.008 A 
HETATM   17  C   UNL     1       4.542   4.391  -5.082  1.00  0.00     0.017 A 
ENDBRANCH   4  13
ENDBRANCH   1   4
BRANCH   1  18
HETATM   18  C   UNL     1       4.079   7.390  -2.840  1.00  0.00     0.336 C 
BRANCH  18  19
HETATM   19  C   UNL     1       4.844   8.328  -1.908  1.00  0.00     0.248 C 
HETATM   20  N   UNL     1       5.111   9.569  -2.449  1.00  0.00    -0.326 N 
HETATM   21  H   UNL     1       4.829   9.752  -3.407  1.00  0.00     0.169 HD
HETATM   22  O   UNL     1       5.152   7.908  -0.794  1.00  0.00    -0.271 OA
BRANCH  20  23
HETATM   23  C   UNL     1       5.772  10.649  -1.817  1.00  0.00     0.037 A 
HETATM   24  C   UNL     1       6.200  10.624  -0.484  1.00  0.00     0.061 A 
HETATM   25  C   UNL     1       6.822  11.757  -0.005  1.00  0.00     0.065 A 
HETATM   26  C   UNL     1       7.031  12.887  -0.790  1.00  0.00     0.063 A 
HETATM   27  N   UNL     1       7.337  12.017   1.261  1.00  0.00    -0.306 N 
HETATM   28  N   UNL     1       7.675  13.840  -0.012  1.00  0.00    -0.307 N 
HETATM   29  C   UNL     1       6.628  12.947  -2.099  1.00  0.00     0.034 A 
HETATM   30  C   UNL     1       7.872  13.313   1.273  1.00  0.00     0.325 A 
HETATM   31  H   UNL     1       7.966  14.766  -0.282  1.00  0.00     0.170 HD
HETATM   32  O   UNL     1       8.403  13.870   2.216  1.00  0.00    -0.247 OA
HETATM   33  C   UNL     1       5.988  11.809  -2.611  1.00  0.00     0.032 A 
HETATM   34  H   UNL     1       7.343  11.409   2.064  1.00  0.00     0.170 HD
ENDBRANCH  20  23
ENDBRANCH  18  19
ENDBRANCH   1  18
TORSDOF 7
