REMARK  6 active torsions:
REMARK  status: ('A' for Active; 'I' for Inactive)
REMARK    1  A    between atoms: C_4  and  N_5 
REMARK       I    between atoms: N_5  and  C_6 
REMARK       I    between atoms: C_6  and  N_7 
REMARK    2  A    between atoms: N_7  and  C_8 
REMARK    3  A    between atoms: N_11  and  C_13 
REMARK    4  A    between atoms: C_13  and  C_14 
REMARK       I    between atoms: C_14  and  N_15 
REMARK    5  A    between atoms: N_15  and  C_16 
REMARK    6  A    between atoms: C_16  and  C_17 
ROOT
HETATM    1  C   UNL     1       1.858  -2.235   0.091  1.00  0.00     0.090 C 
HETATM    2  C   UNL     1       1.886  -3.570  -0.671  1.00  0.00     0.058 C 
HETATM    3  C   UNL     1       0.764  -3.769  -1.697  1.00  0.00     0.191 C 
HETATM    4  N   UNL     1      -0.427  -2.914  -1.365  1.00  0.00    -0.054 N 
HETATM    5  H   UNL     1      -1.138  -3.148  -2.086  1.00  0.00     0.281 HD
HETATM    6  C   UNL     1       0.072  -1.533  -1.664  1.00  0.00     0.191 C 
HETATM    7  C   UNL     1       1.100  -1.096  -0.621  1.00  0.00     0.058 C 
HETATM    8  C   UNL     1       1.159  -3.202  -3.066  1.00  0.00     0.035 C 
HETATM    9  C   UNL     1       0.718  -1.738  -3.039  1.00  0.00     0.035 C 
ENDROOT
BRANCH   1  10
HETATM   10  N   UNL     1       3.200  -1.847   0.521  1.00  0.00    -0.338 N 
HETATM   11  C   UNL     1       3.367  -0.800   1.386  1.00  0.00     0.321 C 
HETATM   12  N   UNL     1       4.607  -0.586   1.893  1.00  0.00    -0.309 N 
HETATM   13  O   UNL     1       2.426  -0.105   1.762  1.00  0.00    -0.247 OA
HETATM   14  H   UNL     1       4.573   0.081   2.656  1.00  0.00     0.170 HD
HETATM   15  H   UNL     1       3.833  -2.602   0.760  1.00  0.00     0.164 HD
BRANCH  12  16
HETATM   16  C   UNL     1       5.887  -1.071   1.565  1.00  0.00     0.036 A 
HETATM   17  C   UNL     1       6.208  -1.727   0.375  1.00  0.00     0.029 A 
HETATM   18  C   UNL     1       7.515  -2.171   0.143  1.00  0.00     0.002 A 
HETATM   19  C   UNL     1       8.513  -1.950   1.090  1.00  0.00     0.000 A 
HETATM   20  C   UNL     1       8.210  -1.270   2.265  1.00  0.00     0.002 A 
HETATM   21  C   UNL     1       6.905  -0.828   2.497  1.00  0.00     0.029 A 
ENDBRANCH  12  16
ENDBRANCH   1  10
BRANCH   4  22
HETATM   22  C   UNL     1      -1.204  -3.180  -0.089  1.00  0.00     0.338 C 
BRANCH  22  23
HETATM   23  C   UNL     1      -2.097  -4.408  -0.277  1.00  0.00     0.243 C 
HETATM   24  N   UNL     1      -2.440  -5.076   0.862  1.00  0.00    -0.354 N 
HETATM   25  H   UNL     1      -2.107  -4.797   1.780  1.00  0.00     0.162 HD
HETATM   26  O   UNL     1      -2.426  -4.751  -1.412  1.00  0.00    -0.272 OA
BRANCH  24  27
HETATM   27  C   UNL     1      -3.207  -6.306   0.826  1.00  0.00     0.187 C 
BRANCH  27  28
HETATM   28  C   UNL     1      -3.224  -6.914   2.181  1.00  0.00     0.070 A 
HETATM   29  O   UNL     1      -2.236  -6.535   3.051  1.00  0.00    -0.325 OA
HETATM   30  C   UNL     1      -2.442  -7.218   4.207  1.00  0.00     0.142 A 
HETATM   31  C   UNL     1      -3.547  -8.028   4.096  1.00  0.00     0.027 A 
HETATM   32  C   UNL     1      -4.053  -7.833   2.789  1.00  0.00     0.036 A 
ENDBRANCH  27  28
ENDBRANCH  24  27
ENDBRANCH  22  23
ENDBRANCH   4  22
TORSDOF 6
