REMARK  4 active torsions:
REMARK  status: ('A' for Active; 'I' for Inactive)
REMARK    1  A    between atoms: C_8  and  C_9 
REMARK    2  A    between atoms: C_9  and  N_10 
REMARK    3  A    between atoms: N_10  and  C_13 
REMARK    4  A    between atoms: C_13  and  C_14 
ROOT
HETATM    1  N   UNL     1      -1.061  -3.499   0.007  1.00  0.00    -0.067 N 
HETATM    2  H   UNL     1      -0.490  -3.343  -0.832  1.00  0.00     0.277 HD
HETATM    3  H   UNL     1      -0.436  -3.283   0.794  1.00  0.00     0.277 HD
ENDROOT
BRANCH   1   4
HETATM    4  C   UNL     1      -2.175  -2.518   0.006  1.00  0.00     0.273 C 
BRANCH   4   5
HETATM    5  C   UNL     1      -1.619  -1.144  -0.062  1.00  0.00    -0.005 A 
HETATM    6  C   UNL     1      -1.275  -0.309   1.050  1.00  0.00    -0.000 A 
HETATM    7  C   UNL     1      -1.348  -0.453   2.452  1.00  0.00     0.014 A 
HETATM    8  C   UNL     1      -0.762   0.880   0.532  1.00  0.00     0.043 A 
HETATM    9  C   UNL     1      -0.905   0.589   3.275  1.00  0.00     0.001 A 
HETATM   10  C   UNL     1      -0.396   1.762   2.725  1.00  0.00     0.002 A 
HETATM   11  C   UNL     1      -0.316   1.931   1.341  1.00  0.00     0.030 A 
HETATM   12  N   UNL     1      -0.807   0.785  -0.839  1.00  0.00    -0.365 N 
HETATM   13  H   UNL     1      -0.510   1.519  -1.472  1.00  0.00     0.165 HD
HETATM   14  C   UNL     1      -1.307  -0.437  -1.209  1.00  0.00     0.098 A 
ENDBRANCH   4   5
ENDBRANCH   1   4
BRANCH   1  15
HETATM   15  C   UNL     1      -1.477  -4.920   0.072  1.00  0.00     0.271 C 
BRANCH  15  16
HETATM   16  C   UNL     1      -0.280  -5.826   0.059  1.00  0.00    -0.030 A 
HETATM   17  C   UNL     1       0.284  -6.231  -1.164  1.00  0.00     0.048 A 
HETATM   18  C   UNL     1       1.407  -7.032  -1.128  1.00  0.00     0.105 A 
HETATM   19  C   UNL     1       1.979  -7.430   0.055  1.00  0.00     0.105 A 
HETATM   20  O   UNL     1       2.072  -7.509  -2.212  1.00  0.00    -0.323 OA
HETATM   21  O   UNL     1       3.073  -8.211  -0.135  1.00  0.00    -0.323 OA
HETATM   22  C   UNL     1       1.460  -7.049   1.273  1.00  0.00     0.040 A 
HETATM   23  C   UNL     1       3.118  -8.279  -1.576  1.00  0.00     0.352 A 
HETATM   24  C   UNL     1       0.321  -6.236   1.273  1.00  0.00     0.012 A 
ENDBRANCH  15  16
ENDBRANCH   1  15
TORSDOF 4
