REMARK  7 active torsions:
REMARK  status: ('A' for Active; 'I' for Inactive)
REMARK    1  A    between atoms: C_2  and  C_3 
REMARK    2  A    between atoms: C_3  and  C_4 
REMARK    3  A    between atoms: C_8  and  C_9 
REMARK       I    between atoms: C_9  and  N_10 
REMARK    4  A    between atoms: N_10  and  C_11 
REMARK    5  A    between atoms: C_12  and  O_13 
REMARK    6  A    between atoms: O_13  and  C_14 
REMARK    7  A    between atoms: C_14  and  C_15 
ROOT
HETATM    1  C   UNL     1       6.213  -2.168  -0.275  1.00  0.00     0.113 C 
HETATM    2  C   UNL     1       5.599  -0.774   0.020  1.00  0.00     0.144 C 
HETATM    3  C   UNL     1       5.488   0.042  -1.274  1.00  0.00     0.034 C 
HETATM    4  C   UNL     1       4.689  -0.692  -2.345  1.00  0.00     0.003 C 
HETATM    5  C   UNL     1       5.246  -2.085  -2.612  1.00  0.00     0.002 C 
HETATM    6  C   UNL     1       5.367  -2.901  -1.328  1.00  0.00     0.028 C 
ENDROOT
BRANCH   1   7
HETATM    7  N   UNL     1       6.336  -2.938   0.965  1.00  0.00    -0.349 N 
HETATM    8  C   UNL     1       7.052  -4.112   1.023  1.00  0.00     0.270 C 
HETATM    9  O   UNL     1       7.503  -4.672   0.028  1.00  0.00    -0.266 OA
HETATM   10  H   UNL     1       6.301  -2.392   1.817  1.00  0.00     0.163 HD
BRANCH   8  11
HETATM   11  C   UNL     1       7.262  -4.638   2.345  1.00  0.00     0.119 A 
HETATM   12  N   UNL     1       8.010  -5.768   2.547  1.00  0.00    -0.273 N 
HETATM   13  N   UNL     1       8.121  -6.131   3.835  1.00  0.00    -0.179 NA
HETATM   14  H   UNL     1       8.469  -6.327   1.834  1.00  0.00     0.189 HD
HETATM   15  C   UNL     1       7.411  -5.208   4.492  1.00  0.00     0.057 A 
HETATM   16  C   UNL     1       6.847  -4.258   3.606  1.00  0.00     0.065 A 
BRANCH  15  17
HETATM   17  C   UNL     1       7.285  -5.270   5.978  1.00  0.00     0.061 C 
BRANCH  17  18
HETATM   18  C   UNL     1       8.481  -4.664   6.717  1.00  0.00     0.002 C 
HETATM   19  C   UNL     1       8.564  -3.150   6.580  1.00  0.00     0.005 C 
ENDBRANCH  17  18
ENDBRANCH  15  17
ENDBRANCH   8  11
ENDBRANCH   1   7
BRANCH   2  20
HETATM   20  O   UNL     1       6.441  -0.124   0.986  1.00  0.00    -0.379 OA
BRANCH  20  21
HETATM   21  C   UNL     1       5.875   1.069   1.532  1.00  0.00     0.206 C 
BRANCH  21  22
HETATM   22  C   UNL     1       6.685   1.585   2.698  1.00  0.00    -0.035 A 
HETATM   23  C   UNL     1       7.992   1.149   2.956  1.00  0.00     0.009 A 
HETATM   24  C   UNL     1       8.724   1.684   4.019  1.00  0.00     0.001 A 
HETATM   25  C   UNL     1       8.162   2.667   4.831  1.00  0.00     0.000 A 
HETATM   26  C   UNL     1       6.868   3.118   4.581  1.00  0.00     0.001 A 
HETATM   27  C   UNL     1       6.135   2.582   3.521  1.00  0.00     0.009 A 
ENDBRANCH  21  22
ENDBRANCH  20  21
ENDBRANCH   2  20
TORSDOF 7
