REMARK  4 active torsions:
REMARK  status: ('A' for Active; 'I' for Inactive)
REMARK    1  A    between atoms: N_6  and  N_7 
REMARK       I    between atoms: N_7  and  C_8 
REMARK    2  A    between atoms: C_8  and  C_9 
REMARK    3  A    between atoms: C_10  and  O_11 
REMARK    4  A    between atoms: C_14  and  N_15 
ROOT
HETATM    1  N   UNL     1       7.469  -0.632   0.171  1.00  0.00    -0.242 N 
HETATM    2  C   UNL     1       8.611  -1.271  -0.279  1.00  0.00     0.274 C 
HETATM    3  O   UNL     1       8.648  -2.264  -1.002  1.00  0.00    -0.266 OA
HETATM    4  H   UNL     1       7.533   0.198   0.742  1.00  0.00     0.192 HD
ENDROOT
BRANCH   1   5
HETATM    5  N   UNL     1       6.242  -1.172  -0.047  1.00  0.00    -0.166 NA
HETATM    6  C   UNL     1       5.206  -0.393  -0.047  1.00  0.00     0.157 A 
HETATM    7  C   UNL     1       3.776  -0.965  -0.073  1.00  0.00     0.279 A 
HETATM    8  C   UNL     1       5.055   1.070  -0.018  1.00  0.00     0.029 A 
HETATM    9  N   UNL     1       2.943   0.135   0.027  1.00  0.00    -0.316 N 
HETATM   10  O   UNL     1       3.487  -2.140  -0.143  1.00  0.00    -0.265 OA
HETATM   11  C   UNL     1       1.506   0.065   0.031  1.00  0.00     0.159 C 
HETATM   12  C   UNL     1       3.681   1.325   0.049  1.00  0.00     0.050 A 
HETATM   13  C   UNL     1       3.192   2.621   0.093  1.00  0.00     0.032 A 
HETATM   14  C   UNL     1       4.113   3.672   0.050  1.00  0.00     0.026 A 
HETATM   15  C   UNL     1       5.488   3.410  -0.057  1.00  0.00     0.035 A 
HETATM   16  C   UNL     1       5.976   2.102  -0.105  1.00  0.00     0.040 A 
HETATM   17 CL   UNL     1       6.595   4.725  -0.138  1.00  0.00    -0.084 Cl
ENDBRANCH   1   5
BRANCH   2  18
HETATM   18  C   UNL     1       9.893  -0.605   0.069  1.00  0.00     0.068 A 
HETATM   19  C   UNL     1      10.955  -0.651  -0.842  1.00  0.00     0.081 A 
HETATM   20  C   UNL     1      12.119   0.068  -0.597  1.00  0.00     0.039 A 
HETATM   21  C   UNL     1      12.243   0.809   0.581  1.00  0.00     0.026 A 
HETATM   22  C   UNL     1      11.237   0.782   1.551  1.00  0.00     0.006 A 
HETATM   23  C   UNL     1      10.046   0.106   1.270  1.00  0.00     0.043 A 
BRANCH  19  24
HETATM   24  O   UNL     1      10.906  -1.358  -2.013  1.00  0.00    -0.360 OA
HETATM   25  H   UNL     1      10.111  -1.939  -1.983  1.00  0.00     0.217 HD
ENDBRANCH  19  24
BRANCH  22  26
HETATM   26  N   UNL     1      11.321   1.612   2.676  1.00  0.00    -0.303 NA
HETATM   27  H   UNL     1      12.275   1.836   2.947  1.00  0.00     0.124 HD
HETATM   28  H   UNL     1      10.771   1.298   3.470  1.00  0.00     0.124 HD
ENDBRANCH  22  26
ENDBRANCH   2  18
TORSDOF 4
