REMARK  6 active torsions:
REMARK  status: ('A' for Active; 'I' for Inactive)
REMARK    1  A    between atoms: C_7  and  C_8 
REMARK    2  A    between atoms: N_9  and  N_10 
REMARK       I    between atoms: N_10  and  C_11 
REMARK    3  A    between atoms: C_11  and  C_12 
REMARK    4  A    between atoms: C_12  and  N_13 
REMARK    5  A    between atoms: N_13  and  C_14 
REMARK    6  A    between atoms: C_15  and  O_16 
ROOT
HETATM    1  N   UNL     1       3.543  -4.995  -0.280  1.00  0.00    -0.246 N 
HETATM    2  C   UNL     1       4.419  -6.063  -0.103  1.00  0.00     0.250 C 
HETATM    3  O   UNL     1       5.580  -5.978   0.295  1.00  0.00    -0.270 OA
HETATM    4  H   UNL     1       2.551  -5.227  -0.327  1.00  0.00     0.192 HD
ENDROOT
BRANCH   1   5
HETATM    5  N   UNL     1       3.829  -3.678  -0.019  1.00  0.00    -0.184 NA
HETATM    6  C   UNL     1       5.027  -3.267  -0.296  1.00  0.00     0.153 C 
BRANCH   6   7
HETATM    7  C   UNL     1       5.421  -1.893  -0.039  1.00  0.00     0.018 A 
HETATM    8  C   UNL     1       4.709  -0.920   0.650  1.00  0.00     0.018 A 
HETATM    9  C   UNL     1       3.387  -0.969   1.328  1.00  0.00     0.069 C 
HETATM   10  N   UNL     1       5.458   0.231   0.639  1.00  0.00    -0.358 N 
HETATM   11  H   UNL     1       5.187   1.104   1.068  1.00  0.00     0.166 HD
HETATM   12  C   UNL     1       6.639   0.038  -0.037  1.00  0.00     0.043 A 
HETATM   13  C   UNL     1       6.650  -1.287  -0.470  1.00  0.00     0.004 A 
HETATM   14  C   UNL     1       7.688   0.930  -0.294  1.00  0.00     0.030 A 
HETATM   15  C   UNL     1       7.770  -1.743  -1.198  1.00  0.00     0.014 A 
HETATM   16  C   UNL     1       8.826  -0.865  -1.467  1.00  0.00     0.001 A 
HETATM   17  C   UNL     1       8.783   0.452  -1.020  1.00  0.00     0.002 A 
ENDBRANCH   6   7
ENDBRANCH   1   5
BRANCH   2  18
HETATM   18  C   UNL     1       3.779  -7.416  -0.433  1.00  0.00     0.197 C 
BRANCH  18  19
HETATM   19  N   UNL     1       2.664  -7.260  -1.386  1.00  0.00    -0.282 NA
HETATM   20  H   UNL     1       2.903  -6.593  -2.130  1.00  0.00     0.128 HD
BRANCH  19  21
HETATM   21  C   UNL     1       2.279  -8.450  -2.055  1.00  0.00     0.042 A 
HETATM   22  C   UNL     1       1.917  -8.374  -3.418  1.00  0.00     0.089 A 
HETATM   23  C   UNL     1       1.523  -9.518  -4.116  1.00  0.00     0.038 A 
HETATM   24  C   UNL     1       1.426 -10.738  -3.447  1.00  0.00     0.003 A 
HETATM   25  C   UNL     1       1.716 -10.812  -2.086  1.00  0.00     0.002 A 
HETATM   26  C   UNL     1       2.130  -9.672  -1.391  1.00  0.00     0.026 A 
BRANCH  22  27
HETATM   27  O   UNL     1       2.064  -7.140  -4.012  1.00  0.00    -0.354 OA
HETATM   28  C   UNL     1       1.046  -6.826  -4.957  1.00  0.00     0.210 C 
ENDBRANCH  22  27
ENDBRANCH  19  21
ENDBRANCH  18  19
ENDBRANCH   2  18
TORSDOF 6
