REMARK  4 active torsions:
REMARK  status: ('A' for Active; 'I' for Inactive)
REMARK    1  A    between atoms: C_3  and  C_4 
REMARK    2  A    between atoms: C_14  and  N_15 
REMARK       I    between atoms: N_15  and  C_16 
REMARK    3  A    between atoms: C_16  and  C_17 
REMARK    4  A    between atoms: C_19  and  N_20 
ROOT
HETATM    1  N   UNL     1       2.799  -0.287   0.194  1.00  0.00    -0.322 N 
HETATM    2  C   UNL     1       3.355  -1.110  -0.761  1.00  0.00     0.256 C 
HETATM    3  O   UNL     1       2.791  -1.878  -1.526  1.00  0.00    -0.267 OA
HETATM    4  H   UNL     1       3.444   0.244   0.771  1.00  0.00     0.169 HD
ENDROOT
BRANCH   1   5
HETATM    5  C   UNL     1       1.421   0.002   0.378  1.00  0.00     0.049 A 
HETATM    6  C   UNL     1       1.004   0.696   1.538  1.00  0.00     0.037 A 
HETATM    7  C   UNL     1      -0.333   1.114   1.651  1.00  0.00     0.017 A 
HETATM    8  C   UNL     1      -1.261   0.813   0.658  1.00  0.00     0.001 A 
HETATM    9  C   UNL     1      -0.863   0.087  -0.459  1.00  0.00     0.002 A 
HETATM   10  C   UNL     1       0.469  -0.315  -0.599  1.00  0.00     0.030 A 
BRANCH   6  11
HETATM   11  C   UNL     1       1.888   0.939   2.680  1.00  0.00     0.141 A 
HETATM   12  N   UNL     1       2.013   2.061   3.362  1.00  0.00    -0.228 NA
HETATM   13  C   UNL     1       2.917   1.796   4.362  1.00  0.00     0.086 A 
HETATM   14  C   UNL     1       3.349   0.477   4.304  1.00  0.00     0.062 A 
HETATM   15  C   UNL     1       3.416   2.637   5.367  1.00  0.00     0.034 A 
HETATM   16  N   UNL     1       2.659  -0.052   3.247  1.00  0.00    -0.338 N 
HETATM   17  C   UNL     1       4.273  -0.069   5.196  1.00  0.00     0.032 A 
HETATM   18  H   UNL     1       2.688  -1.012   2.933  1.00  0.00     0.167 HD
HETATM   19  C   UNL     1       4.765   0.786   6.189  1.00  0.00     0.002 A 
HETATM   20  C   UNL     1       4.344   2.115   6.278  1.00  0.00     0.002 A 
ENDBRANCH   6  11
ENDBRANCH   1   5
BRANCH   2  21
HETATM   21  C   UNL     1       4.827  -1.041  -0.797  1.00  0.00     0.034 A 
HETATM   22  C   UNL     1       5.440  -0.160  -1.696  1.00  0.00     0.047 A 
HETATM   23  C   UNL     1       6.838  -0.056  -1.765  1.00  0.00     0.046 A 
HETATM   24  C   UNL     1       7.579  -0.878  -0.895  1.00  0.00     0.030 A 
HETATM   25  C   UNL     1       6.960  -1.764   0.000  1.00  0.00     0.003 A 
HETATM   26  C   UNL     1       5.575  -1.851   0.052  1.00  0.00     0.017 A 
BRANCH  23  27
HETATM   27  N   UNL     1       7.477   0.839  -2.686  1.00  0.00    -0.252 N 
HETATM   28  C   UNL     1       6.828   1.837  -3.383  1.00  0.00     0.231 C 
HETATM   29  O   UNL     1       5.674   2.231  -3.284  1.00  0.00    -0.273 OA
HETATM   30  C   UNL     1       7.779   2.444  -4.369  1.00  0.00     0.113 C 
HETATM   31  C   UNL     1       9.130   1.989  -3.889  1.00  0.00     0.113 C 
HETATM   32  C   UNL     1       8.823   0.831  -2.988  1.00  0.00     0.231 C 
HETATM   33  O   UNL     1       9.701   0.063  -2.618  1.00  0.00    -0.273 OA
ENDBRANCH  23  27
ENDBRANCH   2  21
TORSDOF 4
