REMARK  4 active torsions:
REMARK  status: ('A' for Active; 'I' for Inactive)
REMARK    1  A    between atoms: O_2  and  C_3 
REMARK    2  A    between atoms: C_5  and  C_6 
REMARK    3  A    between atoms: C_10  and  N_11 
REMARK    4  A    between atoms: C_14  and  C_15 
ROOT
HETATM    1  C   UNL     1       2.292   5.036   0.239  1.00  0.00     0.164 C 
HETATM    2  N   UNL     1       3.191   6.182   0.220  1.00  0.00    -0.074 N 
HETATM    3  C   UNL     1       2.989   7.313  -0.525  1.00  0.00     0.736 A 
HETATM    4  N   UNL     1       3.946   8.165  -0.265  1.00  0.00     0.131 NA
HETATM    5  C   UNL     1       4.738   7.482   0.611  1.00  0.00     0.753 A 
HETATM    6  N   UNL     1       4.312   6.268   0.954  1.00  0.00     0.037 NA
HETATM    7  N   UNL     1       1.934   7.424  -1.358  1.00  0.00    -0.214 N 
HETATM    8  C   UNL     1       0.834   6.471  -1.260  1.00  0.00     0.135 C 
HETATM    9  C   UNL     1       1.390   5.056  -1.011  1.00  0.00     0.063 C 
HETATM   10  H   UNL     1       1.697   8.358  -1.683  1.00  0.00     0.178 HD
ENDROOT
BRANCH   1  11
HETATM   11  C   UNL     1       1.464   4.950   1.519  1.00  0.00    -0.030 A 
HETATM   12  C   UNL     1       0.993   6.090   2.203  1.00  0.00     0.046 A 
HETATM   13  C   UNL     1       0.179   5.967   3.332  1.00  0.00     0.068 A 
HETATM   14  C   UNL     1      -0.159   4.696   3.796  1.00  0.00     0.037 A 
HETATM   15  C   UNL     1       0.302   3.557   3.139  1.00  0.00     0.003 A 
HETATM   16  C   UNL     1       1.103   3.682   2.005  1.00  0.00     0.009 A 
BRANCH  13  17
HETATM   17  O   UNL     1      -0.349   7.000   4.057  1.00  0.00    -0.356 OA
HETATM   18  C   UNL     1      -0.064   8.319   3.606  1.00  0.00     0.210 C 
ENDBRANCH  13  17
ENDBRANCH   1  11
BRANCH   8  19
HETATM   19  C   UNL     1      -0.023   6.500  -2.513  1.00  0.00    -0.035 A 
HETATM   20  C   UNL     1       0.524   6.724  -3.788  1.00  0.00     0.010 A 
HETATM   21  C   UNL     1      -0.291   6.732  -4.923  1.00  0.00     0.019 A 
HETATM   22  C   UNL     1      -1.658   6.499  -4.795  1.00  0.00     0.011 A 
HETATM   23 BR   UNL     1      -2.761   6.507  -6.330  1.00  0.00    -0.051 Br
HETATM   24  C   UNL     1      -2.218   6.257  -3.543  1.00  0.00     0.019 A 
HETATM   25  C   UNL     1      -1.404   6.256  -2.408  1.00  0.00     0.010 A 
ENDBRANCH   8  19
BRANCH   5  26
HETATM   26  N   UNL     1       5.831   8.076   1.078  1.00  0.00    -0.229 N 
HETATM   27  H   UNL     1       5.886   9.080   0.979  1.00  0.00     0.174 HD
HETATM   28  H   UNL     1       6.226   7.705   1.931  1.00  0.00     0.174 HD
ENDBRANCH   5  26
TORSDOF 4
