REMARK  4 active torsions:
REMARK  status: ('A' for Active; 'I' for Inactive)
REMARK    1  A    between atoms: C_5  and  N_6 
REMARK       I    between atoms: N_6  and  C_7 
REMARK    2  A    between atoms: C_7  and  C_8 
REMARK    3  A    between atoms: C_12  and  O_13 
REMARK    4  A    between atoms: C_19  and  C_20 
ROOT
HETATM    1  C   UNL     1       0.865   0.216   0.035  1.00  0.00     0.015 C 
HETATM    2  C   UNL     1       2.391   0.085  -0.136  1.00  0.00    -0.040 C 
HETATM    3  C   UNL     1       2.682  -0.074  -1.640  1.00  0.00     0.015 C 
HETATM    4  C   UNL     1       2.878  -1.131   0.686  1.00  0.00     0.039 C 
HETATM    5  C   UNL     1       4.408  -1.319   0.703  1.00  0.00     0.122 C 
HETATM    6  C   UNL     1       5.150  -0.018   0.801  1.00  0.00     0.007 A 
HETATM    7  C   UNL     1       4.553   1.219   0.640  1.00  0.00     0.047 A 
HETATM    8  N   UNL     1       5.242   2.377   0.742  1.00  0.00    -0.237 NA
HETATM    9  C   UNL     1       6.565   2.308   0.989  1.00  0.00     0.133 A 
HETATM   10  N   UNL     1       7.227   1.150   1.165  1.00  0.00    -0.244 NA
HETATM   11  C   UNL     1       6.506   0.017   1.063  1.00  0.00     0.130 A 
HETATM   12  C   UNL     1       3.069   1.358   0.414  1.00  0.00     0.069 C 
ENDROOT
BRANCH   5  13
HETATM   13  N   UNL     1       4.861  -2.084  -0.449  1.00  0.00    -0.347 N 
HETATM   14  C   UNL     1       4.711  -3.449  -0.510  1.00  0.00     0.270 C 
HETATM   15  O   UNL     1       4.287  -4.109   0.433  1.00  0.00    -0.266 OA
HETATM   16  H   UNL     1       5.165  -1.585  -1.273  1.00  0.00     0.163 HD
BRANCH  14  17
HETATM   17  C   UNL     1       5.071  -4.057  -1.761  1.00  0.00     0.122 A 
HETATM   18  N   UNL     1       4.974  -5.417  -1.945  1.00  0.00    -0.270 N 
HETATM   19  H   UNL     1       4.662  -6.101  -1.261  1.00  0.00     0.189 HD
HETATM   20  N   UNL     1       5.333  -5.832  -3.176  1.00  0.00    -0.149 NA
HETATM   21  C   UNL     1       5.665  -4.696  -3.766  1.00  0.00     0.183 A 
HETATM   22  C   UNL     1       5.536  -3.561  -2.966  1.00  0.00     0.096 A 
BRANCH  21  23
HETATM   23  O   UNL     1       6.066  -4.801  -5.027  1.00  0.00    -0.344 OA
HETATM   24  H   UNL     1       6.014  -5.753  -5.223  1.00  0.00     0.219 HD
ENDBRANCH  21  23
ENDBRANCH  14  17
ENDBRANCH   5  13
BRANCH   9  25
HETATM   25  C   UNL     1       7.330   3.614   1.189  1.00  0.00     0.011 C 
HETATM   26  C   UNL     1       7.314   3.961   2.687  1.00  0.00     0.023 C 
HETATM   27  C   UNL     1       8.789   3.473   0.714  1.00  0.00     0.023 C 
HETATM   28  C   UNL     1       6.682   4.766   0.396  1.00  0.00     0.023 C 
ENDBRANCH   9  25
TORSDOF 4
