REMARK  8 active torsions:
REMARK  status: ('A' for Active; 'I' for Inactive)
REMARK    1  A    between atoms: C_2  and  C_3 
REMARK    2  A    between atoms: C_3  and  O_4 
REMARK    3  A    between atoms: O_4  and  C_5 
REMARK    4  A    between atoms: C_8  and  C_9 
REMARK       I    between atoms: C_9  and  N_10 
REMARK    5  A    between atoms: N_10  and  C_11 
REMARK    6  A    between atoms: N_12  and  C_13 
REMARK    7  A    between atoms: C_15  and  C_16 
REMARK    8  A    between atoms: C_27  and  O_28 
ROOT
HETATM    1  C   UNL     1       4.678   5.205   1.450  1.00  0.00     0.035 A 
HETATM    2  C   UNL     1       6.039   4.913   1.618  1.00  0.00     0.048 A 
HETATM    3  C   UNL     1       6.488   3.652   2.059  1.00  0.00     0.052 A 
HETATM    4  C   UNL     1       5.522   2.669   2.309  1.00  0.00     0.080 A 
HETATM    5  C   UNL     1       4.160   2.948   2.147  1.00  0.00     0.040 A 
HETATM    6  C   UNL     1       3.741   4.216   1.732  1.00  0.00     0.032 A 
ENDROOT
BRANCH   1   7
HETATM    7  N   UNL     1       4.356   6.534   1.101  1.00  0.00    -0.333 N 
HETATM    8  C   UNL     1       3.170   7.138   0.882  1.00  0.00     0.179 C 
HETATM    9  S   UNL     1       3.008   8.753   1.300  1.00  0.00    -0.040 SA
HETATM   10  H   UNL     1       5.112   7.196   1.242  1.00  0.00     0.168 HD
BRANCH   8  11
HETATM   11  N   UNL     1       2.099   6.528   0.314  1.00  0.00    -0.299 N 
HETATM   12  C   UNL     1       2.127   5.679  -0.788  1.00  0.00     0.257 C 
HETATM   13  O   UNL     1       3.085   5.043  -1.204  1.00  0.00    -0.267 OA
HETATM   14  H   UNL     1       1.300   7.149   0.324  1.00  0.00     0.171 HD
BRANCH  12  15
HETATM   15  C   UNL     1       0.835   5.602  -1.527  1.00  0.00     0.032 A 
HETATM   16  C   UNL     1       0.869   5.603  -2.925  1.00  0.00     0.020 A 
HETATM   17  C   UNL     1      -0.325   5.625  -3.649  1.00  0.00     0.038 A 
HETATM   18  C   UNL     1      -1.552   5.610  -2.985  1.00  0.00     0.068 A 
HETATM   19  C   UNL     1      -1.589   5.588  -1.590  1.00  0.00     0.038 A 
HETATM   20  C   UNL     1      -0.396   5.581  -0.858  1.00  0.00     0.020 A 
BRANCH  18  21
HETATM   21  O   UNL     1      -2.661   5.702  -3.779  1.00  0.00    -0.351 OA
BRANCH  21  22
HETATM   22  C   UNL     1      -3.744   4.850  -3.400  1.00  0.00     0.175 C 
BRANCH  22  23
HETATM   23  C   UNL     1      -4.831   4.928  -4.472  1.00  0.00     0.022 C 
HETATM   24  C   UNL     1      -4.336   4.500  -5.846  1.00  0.00     0.007 C 
ENDBRANCH  22  23
ENDBRANCH  21  22
ENDBRANCH  18  21
ENDBRANCH  12  15
ENDBRANCH   8  11
ENDBRANCH   1   7
BRANCH   3  25
HETATM   25  C   UNL     1       7.931   3.470   2.237  1.00  0.00     0.183 A 
HETATM   26  O   UNL     1       8.356   2.408   2.993  1.00  0.00    -0.288 OA
HETATM   27  C   UNL     1       9.715   2.541   3.034  1.00  0.00     0.112 A 
HETATM   28  C   UNL     1      10.043   3.674   2.312  1.00  0.00     0.094 A 
HETATM   29  C   UNL     1      10.629   1.711   3.683  1.00  0.00    -0.025 A 
HETATM   30  N   UNL     1       8.907   4.262   1.818  1.00  0.00    -0.221 NA
HETATM   31  C   UNL     1      11.389   4.047   2.201  1.00  0.00     0.041 A 
HETATM   32  C   UNL     1      12.362   3.251   2.833  1.00  0.00    -0.059 A 
HETATM   33  C   UNL     1      11.976   2.108   3.559  1.00  0.00     0.016 A 
HETATM   34  C   UNL     1      13.808   3.643   2.734  1.00  0.00     0.048 C 
HETATM   35  C   UNL     1      10.251   0.495   4.465  1.00  0.00     0.051 C 
ENDBRANCH   3  25
BRANCH   4  36
HETATM   36  O   UNL     1       5.888   1.415   2.714  1.00  0.00    -0.360 OA
HETATM   37  H   UNL     1       5.099   0.857   2.802  1.00  0.00     0.217 HD
ENDBRANCH   4  36
TORSDOF 8
