REMARK  7 active torsions:
REMARK  status: ('A' for Active; 'I' for Inactive)
REMARK    1  A    between atoms: C_2  and  C_3 
REMARK    2  A    between atoms: C_7  and  C_8 
REMARK       I    between atoms: C_8  and  N_9 
REMARK    3  A    between atoms: N_9  and  C_10 
REMARK    4  A    between atoms: C_10  and  C_11 
REMARK    5  A    between atoms: C_13  and  N_14 
REMARK       I    between atoms: N_14  and  C_15 
REMARK    6  A    between atoms: C_15  and  C_16 
REMARK    7  A    between atoms: C_20  and  C_21 
ROOT
HETATM    1  C   UNL     1       7.680   1.137   2.759  1.00  0.00    -0.035 A 
HETATM    2  C   UNL     1       8.649   2.105   3.057  1.00  0.00     0.059 A 
HETATM    3  C   UNL     1       9.897   1.706   3.532  1.00  0.00     0.130 A 
HETATM    4  N   UNL     1      10.191   0.414   3.751  1.00  0.00    -0.243 NA
HETATM    5  C   UNL     1       9.242  -0.508   3.492  1.00  0.00     0.119 A 
HETATM    6  C   UNL     1       7.988  -0.203   2.997  1.00  0.00     0.028 A 
ENDROOT
BRANCH   1   7
HETATM    7  C   UNL     1       6.349   1.535   2.187  1.00  0.00     0.161 C 
BRANCH   7   8
HETATM    8  N   UNL     1       5.297   1.454   3.169  1.00  0.00    -0.351 N 
HETATM    9  C   UNL     1       4.839   2.558   3.845  1.00  0.00     0.270 C 
HETATM   10  O   UNL     1       5.320   3.676   3.690  1.00  0.00    -0.266 OA
HETATM   11  H   UNL     1       4.925   0.545   3.396  1.00  0.00     0.163 HD
BRANCH   9  12
HETATM   12  C   UNL     1       3.737   2.313   4.737  1.00  0.00     0.119 A 
HETATM   13  N   UNL     1       3.168   3.320   5.468  1.00  0.00    -0.273 N 
HETATM   14  N   UNL     1       2.130   2.933   6.225  1.00  0.00    -0.178 NA
HETATM   15  H   UNL     1       3.445   4.297   5.476  1.00  0.00     0.189 HD
HETATM   16  C   UNL     1       2.016   1.620   5.989  1.00  0.00     0.064 A 
HETATM   17  C   UNL     1       3.006   1.188   5.066  1.00  0.00     0.066 A 
BRANCH  16  18
HETATM   18  C   UNL     1       0.930   0.781   6.647  1.00  0.00    -0.005 C 
HETATM   19  C   UNL     1       0.088   1.596   7.652  1.00  0.00     0.021 C 
HETATM   20  C   UNL     1       1.565  -0.400   7.410  1.00  0.00     0.021 C 
HETATM   21  C   UNL     1      -0.022   0.223   5.569  1.00  0.00     0.021 C 
ENDBRANCH  16  18
ENDBRANCH   9  12
ENDBRANCH   7   8
ENDBRANCH   1   7
BRANCH   3  22
HETATM   22  N   UNL     1      10.854   2.707   3.745  1.00  0.00    -0.306 N 
HETATM   23  C   UNL     1      12.168   2.493   4.100  1.00  0.00     0.275 C 
HETATM   24  O   UNL     1      12.696   1.409   4.318  1.00  0.00    -0.266 OA
HETATM   25  H   UNL     1      10.563   3.652   3.562  1.00  0.00     0.170 HD
BRANCH  23  26
HETATM   26  C   UNL     1      12.961   3.702   4.172  1.00  0.00     0.120 A 
HETATM   27  N   UNL     1      14.312   3.641   4.382  1.00  0.00    -0.273 N 
HETATM   28  H   UNL     1      14.866   2.799   4.508  1.00  0.00     0.189 HD
HETATM   29  N   UNL     1      14.922   4.835   4.388  1.00  0.00    -0.178 NA
HETATM   30  C   UNL     1      13.930   5.718   4.216  1.00  0.00     0.064 A 
HETATM   31  C   UNL     1      12.683   5.051   4.068  1.00  0.00     0.066 A 
BRANCH  30  32
HETATM   32  C   UNL     1      14.231   7.209   4.157  1.00  0.00    -0.005 C 
HETATM   33  C   UNL     1      14.746   7.575   2.751  1.00  0.00     0.021 C 
HETATM   34  C   UNL     1      12.972   8.052   4.449  1.00  0.00     0.021 C 
HETATM   35  C   UNL     1      15.303   7.600   5.197  1.00  0.00     0.021 C 
ENDBRANCH  30  32
ENDBRANCH  23  26
ENDBRANCH   3  22
TORSDOF 7
