REMARK  7 active torsions:
REMARK  status: ('A' for Active; 'I' for Inactive)
REMARK    1  A    between atoms: C_9  and  C_10 
REMARK       I    between atoms: C_10  and  N_11 
REMARK    2  A    between atoms: N_11  and  C_12 
REMARK    3  A    between atoms: C_12  and  C_13 
REMARK    4  A    between atoms: C_12  and  C_22 
REMARK       I    between atoms: C_13  and  N_14 
REMARK    5  A    between atoms: N_14  and  C_15 
REMARK    6  A    between atoms: C_15  and  C_16 
REMARK    7  A    between atoms: C_22  and  C_23 
ROOT
HETATM    1  C   UNL     1       2.560   3.494  -0.661  1.00  0.00     0.180 C 
ENDROOT
BRANCH   1   2
HETATM    2  N   UNL     1       3.686   2.543  -0.766  1.00  0.00    -0.346 N 
HETATM    3  C   UNL     1       4.980   2.932  -0.518  1.00  0.00     0.249 C 
HETATM    4  O   UNL     1       5.352   4.097  -0.374  1.00  0.00    -0.271 OA
HETATM    5  H   UNL     1       3.426   1.590  -0.542  1.00  0.00     0.163 HD
BRANCH   3   6
HETATM    6  C   UNL     1       6.005   1.807  -0.338  1.00  0.00     0.281 C 
HETATM    7  N   UNL     1       7.379   2.420  -0.141  1.00  0.00    -0.058 N 
HETATM    8  C   UNL     1       8.404   1.425   0.234  1.00  0.00     0.272 C 
HETATM    9  H   UNL     1       7.640   2.903  -1.011  1.00  0.00     0.278 HD
HETATM   10  H   UNL     1       7.290   3.177   0.554  1.00  0.00     0.278 HD
HETATM   11  C   UNL     1       8.356   0.192  -0.627  1.00  0.00    -0.026 A 
HETATM   12  C   UNL     1       7.241  -0.092  -1.445  1.00  0.00    -0.048 A 
HETATM   13  C   UNL     1       9.421  -0.720  -0.576  1.00  0.00     0.009 A 
HETATM   14  C   UNL     1       7.231  -1.261  -2.218  1.00  0.00     0.008 A 
HETATM   15  C   UNL     1       6.072   0.864  -1.538  1.00  0.00     0.082 C 
HETATM   16  C   UNL     1       8.299  -2.154  -2.161  1.00  0.00     0.001 A 
HETATM   17  C   UNL     1       9.390  -1.886  -1.340  1.00  0.00     0.001 A 
ENDBRANCH   3   6
ENDBRANCH   1   2
BRANCH   1  18
HETATM   18  C   UNL     1       2.340   3.769   0.845  1.00  0.00     0.241 C 
HETATM   19  N   UNL     1       1.326   4.631   1.169  1.00  0.00    -0.353 N 
HETATM   20  H   UNL     1       0.729   5.056   0.468  1.00  0.00     0.162 HD
HETATM   21  O   UNL     1       2.986   3.165   1.707  1.00  0.00    -0.271 OA
BRANCH  19  22
HETATM   22  C   UNL     1       0.942   4.839   2.547  1.00  0.00     0.187 C 
BRANCH  22  23
HETATM   23  C   UNL     1      -0.081   5.910   2.652  1.00  0.00     0.070 A 
HETATM   24  O   UNL     1      -0.512   6.501   1.496  1.00  0.00    -0.325 OA
HETATM   25  C   UNL     1      -1.428   7.440   1.849  1.00  0.00     0.142 A 
HETATM   26  C   UNL     1      -1.602   7.456   3.213  1.00  0.00     0.027 A 
HETATM   27  C   UNL     1      -0.735   6.467   3.733  1.00  0.00     0.036 A 
ENDBRANCH  22  23
ENDBRANCH  19  22
ENDBRANCH   1  18
BRANCH   1  28
HETATM   28  C   UNL     1       2.679   4.750  -1.541  1.00  0.00     0.075 C 
BRANCH  28  29
HETATM   29  C   UNL     1       2.841   4.411  -2.997  1.00  0.00    -0.028 A 
HETATM   30  C   UNL     1       4.011   4.588  -3.806  1.00  0.00    -0.002 A 
HETATM   31  C   UNL     1       3.713   4.105  -5.082  1.00  0.00     0.042 A 
HETATM   32  C   UNL     1       5.298   5.121  -3.579  1.00  0.00     0.014 A 
HETATM   33  C   UNL     1       4.638   4.111  -6.132  1.00  0.00     0.030 A 
HETATM   34  N   UNL     1       2.404   3.687  -5.063  1.00  0.00    -0.365 N 
HETATM   35  C   UNL     1       5.907   4.639  -5.877  1.00  0.00     0.002 A 
HETATM   36  C   UNL     1       6.233   5.142  -4.621  1.00  0.00     0.001 A 
HETATM   37  H   UNL     1       1.909   3.319  -5.865  1.00  0.00     0.165 HD
HETATM   38  C   UNL     1       1.870   3.862  -3.815  1.00  0.00     0.096 A 
ENDBRANCH  28  29
ENDBRANCH   1  28
TORSDOF 7
