REMARK  6 active torsions:
REMARK  status: ('A' for Active; 'I' for Inactive)
REMARK    1  A    between atoms: C_2  and  N_3 
REMARK    2  A    between atoms: C_2  and  C_18 
REMARK    3  A    between atoms: N_3  and  C_6 
REMARK    4  A    between atoms: C_6  and  C_7 
REMARK    5  A    between atoms: C_10  and  N_11 
REMARK       I    between atoms: N_11  and  C_12 
REMARK    6  A    between atoms: C_12  and  O_13 
ROOT
HETATM    1  N   UNL     1       3.084   1.261   0.492  1.00  0.00    -0.063 N 
HETATM    2  H   UNL     1       2.866   1.124   1.488  1.00  0.00     0.278 HD
HETATM    3  H   UNL     1       4.108   1.313   0.455  1.00  0.00     0.278 HD
ENDROOT
BRANCH   1   4
HETATM    4  C   UNL     1       2.604   0.058  -0.266  1.00  0.00     0.216 C 
HETATM    5  C   UNL     1       3.009   0.164  -1.736  1.00  0.00     0.045 C 
BRANCH   4   6
HETATM    6  C   UNL     1       3.131  -1.207   0.367  1.00  0.00    -0.009 A 
HETATM    7  C   UNL     1       2.252  -2.131   0.924  1.00  0.00     0.126 A 
HETATM    8  N   UNL     1       2.601  -3.283   1.523  1.00  0.00    -0.259 NA
HETATM    9  C   UNL     1       3.930  -3.562   1.561  1.00  0.00     0.074 A 
HETATM   10  C   UNL     1       4.891  -2.705   1.028  1.00  0.00     0.034 A 
HETATM   11  C   UNL     1       4.514  -4.731   2.129  1.00  0.00     0.040 A 
HETATM   12  S   UNL     1       6.474  -3.340   1.234  1.00  0.00    -0.100 SA
HETATM   13  C   UNL     1       4.501  -1.501   0.420  1.00  0.00     0.032 A 
HETATM   14  C   UNL     1       5.886  -4.740   2.018  1.00  0.00     0.053 A 
ENDBRANCH   4   6
ENDBRANCH   1   4
BRANCH   1  15
HETATM   15  C   UNL     1       2.519   2.582   0.090  1.00  0.00     0.271 C 
BRANCH  15  16
HETATM   16  C   UNL     1       2.920   3.661   1.056  1.00  0.00    -0.033 A 
HETATM   17  C   UNL     1       4.252   4.087   1.142  1.00  0.00     0.011 A 
HETATM   18  C   UNL     1       4.631   5.081   2.056  1.00  0.00     0.030 A 
HETATM   19  C   UNL     1       3.690   5.674   2.896  1.00  0.00     0.036 A 
HETATM   20  C   UNL     1       2.357   5.255   2.799  1.00  0.00     0.030 A 
HETATM   21  C   UNL     1       1.973   4.257   1.896  1.00  0.00     0.011 A 
BRANCH  19  22
HETATM   22  N   UNL     1       3.967   6.681   3.834  1.00  0.00    -0.303 N 
HETATM   23  C   UNL     1       5.134   7.269   4.245  1.00  0.00     0.364 C 
HETATM   24  O   UNL     1       5.106   8.169   5.078  1.00  0.00    -0.238 OA
HETATM   25  H   UNL     1       3.182   7.079   4.336  1.00  0.00     0.171 HD
BRANCH  23  26
HETATM   26  O   UNL     1       6.270   6.773   3.696  1.00  0.00    -0.309 OA
HETATM   27  C   UNL     1       7.466   7.397   4.169  1.00  0.00     0.215 C 
ENDBRANCH  23  26
ENDBRANCH  19  22
ENDBRANCH  15  16
ENDBRANCH   1  15
TORSDOF 6
