REMARK  11 active torsions:
REMARK  status: ('A' for Active; 'I' for Inactive)
REMARK    1  A    between atoms: C_2  and  C_3 
REMARK    2  A    between atoms: C_3  and  C_4 
REMARK    3  A    between atoms: C_4  and  O_5 
REMARK    4  A    between atoms: O_5  and  C_6 
REMARK    5  A    between atoms: C_8  and  C_9 
REMARK       I    between atoms: C_9  and  N_10 
REMARK    6  A    between atoms: N_10  and  C_11 
REMARK    7  A    between atoms: C_11  and  N_12 
REMARK    8  A    between atoms: N_12  and  C_13 
REMARK    9  A    between atoms: C_15  and  C_16 
REMARK   10  A    between atoms: C_23  and  C_24 
REMARK   11  A    between atoms: C_27  and  O_28 
ROOT
HETATM    1  C   UNL     1      10.116   0.114   2.386  1.00  0.00     0.035 A 
HETATM    2  C   UNL     1       9.020   0.918   2.065  1.00  0.00     0.048 A 
HETATM    3  C   UNL     1       7.908   0.409   1.377  1.00  0.00     0.052 A 
HETATM    4  C   UNL     1       7.912  -0.941   1.017  1.00  0.00     0.080 A 
HETATM    5  C   UNL     1       8.962  -1.775   1.407  1.00  0.00     0.040 A 
HETATM    6  C   UNL     1      10.055  -1.252   2.109  1.00  0.00     0.032 A 
ENDROOT
BRANCH   1   7
HETATM    7  N   UNL     1      11.260   0.638   3.024  1.00  0.00    -0.333 N 
HETATM    8  H   UNL     1      11.842  -0.022   3.540  1.00  0.00     0.168 HD
BRANCH   7   9
HETATM    9  C   UNL     1      11.823   1.883   2.858  1.00  0.00     0.179 C 
HETATM   10  S   UNL     1      11.574   2.988   1.623  1.00  0.00    -0.040 SA
BRANCH   9  11
HETATM   11  N   UNL     1      12.712   2.275   3.833  1.00  0.00    -0.299 N 
HETATM   12  C   UNL     1      13.078   1.630   5.004  1.00  0.00     0.257 C 
HETATM   13  O   UNL     1      13.029   0.419   5.174  1.00  0.00    -0.267 OA
HETATM   14  H   UNL     1      13.027   3.229   3.706  1.00  0.00     0.171 HD
BRANCH  12  15
HETATM   15  C   UNL     1      13.673   2.538   6.020  1.00  0.00     0.035 A 
HETATM   16  C   UNL     1      14.823   2.140   6.712  1.00  0.00     0.053 A 
HETATM   17  C   UNL     1      15.426   3.027   7.604  1.00  0.00     0.069 A 
HETATM   18  C   UNL     1      14.859   4.288   7.818  1.00  0.00     0.037 A 
HETATM   19  C   UNL     1      13.693   4.672   7.157  1.00  0.00     0.004 A 
HETATM   20  C   UNL     1      13.097   3.796   6.255  1.00  0.00     0.017 A 
BRANCH  17  21
HETATM   21  O   UNL     1      16.574   2.810   8.310  1.00  0.00    -0.351 OA
BRANCH  21  22
HETATM   22  C   UNL     1      17.182   1.523   8.215  1.00  0.00     0.175 C 
BRANCH  22  23
HETATM   23  C   UNL     1      18.478   1.544   9.025  1.00  0.00     0.026 C 
BRANCH  23  24
HETATM   24  C   UNL     1      18.237   1.841  10.508  1.00  0.00    -0.002 C 
HETATM   25  C   UNL     1      19.544   1.886  11.284  1.00  0.00     0.005 C 
ENDBRANCH  23  24
ENDBRANCH  22  23
ENDBRANCH  21  22
ENDBRANCH  17  21
ENDBRANCH  12  15
ENDBRANCH   9  11
ENDBRANCH   7   9
ENDBRANCH   1   7
BRANCH   3  26
HETATM   26  C   UNL     1       6.809   1.301   1.039  1.00  0.00     0.183 A 
HETATM   27  O   UNL     1       6.576   2.323   1.922  1.00  0.00    -0.289 OA
HETATM   28  C   UNL     1       5.582   3.042   1.336  1.00  0.00     0.106 A 
HETATM   29  C   UNL     1       5.257   2.423   0.142  1.00  0.00     0.094 A 
HETATM   30  C   UNL     1       5.000   4.204   1.815  1.00  0.00     0.040 A 
HETATM   31  N   UNL     1       6.002   1.273  -0.008  1.00  0.00    -0.221 NA
HETATM   32  C   UNL     1       4.301   3.029  -0.686  1.00  0.00     0.041 A 
HETATM   33  C   UNL     1       3.715   4.251  -0.279  1.00  0.00    -0.056 A 
HETATM   34  C   UNL     1       4.049   4.798   0.975  1.00  0.00     0.010 A 
BRANCH  33  35
HETATM   35  C   UNL     1       2.725   4.910  -1.218  1.00  0.00     0.034 C 
HETATM   36  C   UNL     1       2.440   6.388  -0.970  1.00  0.00     0.010 C 
ENDBRANCH  33  35
ENDBRANCH   3  26
BRANCH   4  37
HETATM   37  O   UNL     1       6.906  -1.516   0.287  1.00  0.00    -0.360 OA
HETATM   38  H   UNL     1       6.336  -0.803  -0.068  1.00  0.00     0.217 HD
ENDBRANCH   4  37
TORSDOF 11
