REMARK  4 active torsions:
REMARK  status: ('A' for Active; 'I' for Inactive)
REMARK    1  A    between atoms: N_2  and  C_4 
REMARK    2  A    between atoms: C_7  and  C_21 
REMARK    3  A    between atoms: C_12  and  C_15 
REMARK    4  A    between atoms: C_27  and  C_28 
ROOT
HETATM    1  C   UNL     1       2.910   0.762  -1.226  1.00  0.00     0.116 A 
HETATM    2  N   UNL     1       3.756   0.390  -2.201  1.00  0.00    -0.330 N 
HETATM    3  H   UNL     1       3.784  -0.595  -2.439  1.00  0.00     0.168 HD
HETATM    4  C   UNL     1       4.489   1.290  -2.867  1.00  0.00     0.112 A 
HETATM    5  N   UNL     1       4.398   2.616  -2.652  1.00  0.00    -0.234 NA
HETATM    6  C   UNL     1       3.554   3.035  -1.701  1.00  0.00     0.072 A 
HETATM    7  C   UNL     1       3.448   4.397  -1.464  1.00  0.00     0.033 A 
HETATM    8  C   UNL     1       2.618   4.907  -0.459  1.00  0.00     0.014 A 
HETATM    9  C   UNL     1       1.878   4.049   0.353  1.00  0.00    -0.022 A 
HETATM   10  C   UNL     1       1.974   2.672   0.110  1.00  0.00     0.030 A 
HETATM   11  C   UNL     1       2.789   2.147  -0.928  1.00  0.00     0.037 A 
ENDROOT
BRANCH   4  12
HETATM   12  C   UNL     1       5.454   0.843  -3.938  1.00  0.00     0.091 C 
HETATM   13  C   UNL     1       6.788   1.591  -3.871  1.00  0.00     0.245 C 
HETATM   14  N   UNL     1       7.367   1.443  -5.245  1.00  0.00    -0.074 N 
HETATM   15  H   UNL     1       7.952   2.259  -5.493  1.00  0.00     0.277 HD
HETATM   16  H   UNL     1       8.006   0.633  -5.310  1.00  0.00     0.277 HD
HETATM   17  C   UNL     1       6.232   1.290  -6.220  1.00  0.00     0.242 C 
HETATM   18  C   UNL     1       4.961   1.184  -5.356  1.00  0.00     0.057 C 
BRANCH  18  19
HETATM   19  C   UNL     1       3.953   0.181  -5.865  1.00  0.00    -0.052 A 
HETATM   20  C   UNL     1       4.294  -1.159  -6.113  1.00  0.00     0.007 A 
HETATM   21  C   UNL     1       3.342  -2.055  -6.602  1.00  0.00     0.001 A 
HETATM   22  C   UNL     1       2.039  -1.628  -6.843  1.00  0.00     0.000 A 
HETATM   23  C   UNL     1       1.684  -0.306  -6.592  1.00  0.00     0.001 A 
HETATM   24  C   UNL     1       2.633   0.594  -6.105  1.00  0.00     0.007 A 
ENDBRANCH  18  19
ENDBRANCH   4  12
BRANCH   1  25
HETATM   25  N   UNL     1       2.198  -0.215  -0.544  1.00  0.00    -0.375 N 
HETATM   26  C   UNL     1       2.846  -1.479  -0.197  1.00  0.00     0.150 C 
HETATM   27  C   UNL     1       0.778  -0.326  -0.908  1.00  0.00     0.150 C 
ENDBRANCH   1  25
BRANCH   9  28
HETATM   28  C   UNL     1       1.024   4.554   1.416  1.00  0.00     0.010 A 
HETATM   29  C   UNL     1      -0.062   3.953   2.098  1.00  0.00     0.152 A 
HETATM   30  N   UNL     1      -0.591   4.742   3.032  1.00  0.00    -0.187 NA
HETATM   31  N   UNL     1       0.145   5.861   2.960  1.00  0.00    -0.289 N 
HETATM   32  H   UNL     1      -0.076   6.627   3.590  1.00  0.00     0.188 HD
HETATM   33  C   UNL     1       1.128   5.796   2.011  1.00  0.00     0.123 A 
ENDBRANCH   9  28
TORSDOF 4
