REMARK  5 active torsions:
REMARK  status: ('A' for Active; 'I' for Inactive)
REMARK    1  A    between atoms: C_12  and  C_13 
REMARK    2  A    between atoms: C_13  and  N_14 
REMARK    3  A    between atoms: N_14  and  C_15 
REMARK    4  A    between atoms: C_17  and  O_18 
REMARK    5  A    between atoms: C_19  and  O_20 
ROOT
HETATM    1  C   UNL     1       1.069  -0.077  -0.246  1.00  0.00     0.048 C 
HETATM    2  C   UNL     1       2.563  -0.070  -0.111  1.00  0.00    -0.059 A 
HETATM    3  C   UNL     1       3.279  -1.264   0.000  1.00  0.00     0.037 A 
HETATM    4  C   UNL     1       4.666  -1.232   0.150  1.00  0.00     0.046 A 
HETATM    5  C   UNL     1       5.368  -0.016   0.200  1.00  0.00    -0.003 A 
HETATM    6  C   UNL     1       4.655   1.192   0.085  1.00  0.00    -0.049 A 
HETATM    7  C   UNL     1       5.335   2.533   0.126  1.00  0.00     0.049 C 
HETATM    8  C   UNL     1       3.256   1.147  -0.063  1.00  0.00     0.014 A 
HETATM    9  N   UNL     1       5.367  -2.440   0.251  1.00  0.00    -0.322 N 
HETATM   10  C   UNL     1       6.724  -2.528   0.393  1.00  0.00     0.253 A 
HETATM   11  O   UNL     1       7.286  -3.617   0.448  1.00  0.00    -0.268 OA
HETATM   12  C   UNL     1       7.479  -1.248   0.475  1.00  0.00     0.024 A 
HETATM   13  C   UNL     1       6.824  -0.076   0.386  1.00  0.00     0.028 A 
HETATM   14  H   UNL     1       4.872  -3.320   0.203  1.00  0.00     0.169 HD
ENDROOT
BRANCH  12  15
HETATM   15  C   UNL     1       8.956  -1.349   0.724  1.00  0.00     0.136 C 
BRANCH  15  16
HETATM   16  N   UNL     1       9.650  -1.355  -0.562  1.00  0.00    -0.288 NA
HETATM   17  H   UNL     1       9.232  -2.029  -1.202  1.00  0.00     0.128 HD
BRANCH  16  18
HETATM   18  C   UNL     1      11.050  -1.461  -0.586  1.00  0.00     0.011 A 
HETATM   19  C   UNL     1      11.666  -1.763  -1.813  1.00  0.00     0.062 A 
HETATM   20  C   UNL     1      13.054  -1.814  -1.914  1.00  0.00     0.100 A 
HETATM   21  C   UNL     1      13.848  -1.542  -0.807  1.00  0.00     0.098 A 
HETATM   22  C   UNL     1      13.271  -1.202   0.403  1.00  0.00     0.041 A 
HETATM   23  C   UNL     1      11.875  -1.145   0.506  1.00  0.00     0.026 A 
BRANCH  20  24
HETATM   24  O   UNL     1      13.685  -2.121  -3.089  1.00  0.00    -0.358 OA
HETATM   25  H   UNL     1      13.001  -2.265  -3.766  1.00  0.00     0.218 HD
ENDBRANCH  20  24
BRANCH  21  26
HETATM   26  O   UNL     1      15.208  -1.594  -0.910  1.00  0.00    -0.358 OA
HETATM   27  H   UNL     1      15.371  -1.843  -1.841  1.00  0.00     0.218 HD
ENDBRANCH  21  26
ENDBRANCH  16  18
ENDBRANCH  15  16
ENDBRANCH  12  15
TORSDOF 5
