REMARK  8 active torsions:
REMARK  status: ('A' for Active; 'I' for Inactive)
REMARK    1  A    between atoms: C_5  and  C_6 
REMARK    2  A    between atoms: N_7  and  N_8 
REMARK       I    between atoms: N_8  and  C_9 
REMARK    3  A    between atoms: C_9  and  C_10 
REMARK    4  A    between atoms: N_13  and  C_14 
REMARK    5  A    between atoms: C_18  and  N_19 
REMARK    6  A    between atoms: C_20  and  C_21 
REMARK    7  A    between atoms: C_21  and  N_22 
REMARK    8  A    between atoms: C_30  and  O_31 
ROOT
HETATM    1  C   UNL     1      -1.276   6.126  -0.585  1.00  0.00     0.170 A 
HETATM    2  N   UNL     1      -2.216   5.173  -0.847  1.00  0.00    -0.152 NA
HETATM    3  N   UNL     1      -3.410   5.714  -0.673  1.00  0.00     0.012 NA
HETATM    4  N   UNL     1      -3.264   7.001  -0.260  1.00  0.00    -0.215 N 
HETATM    5  C   UNL     1      -1.908   7.318  -0.258  1.00  0.00     0.096 A 
ENDROOT
BRANCH   1   6
HETATM    6  C   UNL     1       0.158   5.883  -0.649  1.00  0.00     0.293 C 
HETATM    7  N   UNL     1       0.501   4.650  -1.174  1.00  0.00    -0.242 N 
HETATM    8  H   UNL     1      -0.223   4.001  -1.474  1.00  0.00     0.192 HD
HETATM    9  O   UNL     1       0.949   6.731  -0.244  1.00  0.00    -0.264 OA
BRANCH   7  10
HETATM   10  N   UNL     1       1.816   4.332  -1.323  1.00  0.00    -0.183 NA
HETATM   11  C   UNL     1       2.069   3.165  -1.827  1.00  0.00     0.153 C 
BRANCH  11  12
HETATM   12  C   UNL     1       3.463   2.726  -2.049  1.00  0.00     0.017 A 
HETATM   13  C   UNL     1       3.673   1.443  -2.566  1.00  0.00     0.034 A 
HETATM   14  C   UNL     1       4.978   1.002  -2.793  1.00  0.00     0.012 A 
HETATM   15  C   UNL     1       6.069   1.825  -2.513  1.00  0.00     0.022 A 
HETATM   16 BR   UNL     1       5.268  -0.731  -3.491  1.00  0.00    -0.051 Br
HETATM   17  C   UNL     1       5.857   3.104  -1.997  1.00  0.00     0.039 A 
HETATM   18  C   UNL     1       4.559   3.552  -1.765  1.00  0.00     0.077 A 
BRANCH  18  19
HETATM   19  O   UNL     1       4.435   4.817  -1.259  1.00  0.00    -0.360 OA
HETATM   20  H   UNL     1       3.479   5.004  -1.136  1.00  0.00     0.217 HD
ENDBRANCH  18  19
ENDBRANCH  11  12
ENDBRANCH   7  10
ENDBRANCH   1   6
BRANCH   5  21
HETATM   21  C   UNL     1      -1.337   8.666  -0.029  1.00  0.00     0.296 C 
BRANCH  21  22
HETATM   22  N   UNL     1      -1.328   9.124   1.410  1.00  0.00    -0.066 N 
HETATM   23  H   UNL     1      -2.312   9.111   1.720  1.00  0.00     0.280 HD
HETATM   24  C   UNL     1      -0.517   8.235   2.325  1.00  0.00     0.235 C 
HETATM   25  C   UNL     1      -0.693   8.704   3.764  1.00  0.00     0.028 C 
HETATM   26  C   UNL     1      -0.304  10.167   3.933  1.00  0.00     0.003 C 
HETATM   27  C   UNL     1      -1.047  11.054   2.940  1.00  0.00     0.028 C 
HETATM   28  C   UNL     1      -0.874  10.566   1.509  1.00  0.00     0.235 C 
ENDBRANCH  21  22
ENDBRANCH   5  21
BRANCH   4  29
HETATM   29  C   UNL     1      -4.359   7.800   0.149  1.00  0.00     0.225 A 
HETATM   30  N   UNL     1      -4.141   9.003   0.692  1.00  0.00    -0.081 NA
HETATM   31  O   UNL     1      -5.428   9.472   0.979  1.00  0.00    -0.103 OA
HETATM   32  N   UNL     1      -6.390   8.533   0.641  1.00  0.00    -0.083 NA
HETATM   33  C   UNL     1      -5.731   7.496   0.128  1.00  0.00     0.201 A 
BRANCH  33  34
HETATM   34  N   UNL     1      -6.308   6.372  -0.320  1.00  0.00    -0.379 N 
HETATM   35  H   UNL     1      -7.312   6.237  -0.226  1.00  0.00     0.158 HD
HETATM   36  H   UNL     1      -5.795   5.549  -0.629  1.00  0.00     0.158 HD
ENDBRANCH  33  34
ENDBRANCH   4  29
TORSDOF 8
