REMARK  9 active torsions:
REMARK  status: ('A' for Active; 'I' for Inactive)
REMARK    1  A    between atoms: C_2  and  N_3 
REMARK    2  A    between atoms: C_4  and  S_5 
REMARK    3  A    between atoms: S_5  and  C_6 
REMARK    4  A    between atoms: C_6  and  C_7 
REMARK       I    between atoms: C_7  and  N_8 
REMARK    5  A    between atoms: N_8  and  C_9 
REMARK    6  A    between atoms: C_9  and  C_10 
REMARK    7  A    between atoms: C_10  and  O_11 
REMARK    8  A    between atoms: O_11  and  C_12 
REMARK    9  A    between atoms: C_21  and  C_22 
ROOT
HETATM    1  S   UNL     1       1.715   3.308   1.113  1.00  0.00    -0.081 SA
ENDROOT
BRANCH   1   2
HETATM    2  C   UNL     1       2.907   2.774  -0.021  1.00  0.00     0.192 A 
HETATM    3  N   UNL     1       2.971   1.510  -0.545  1.00  0.00    -0.308 N 
HETATM    4  C   UNL     1       4.045   1.523  -1.415  1.00  0.00     0.165 A 
HETATM    5  N   UNL     1       4.579   2.732  -1.396  1.00  0.00    -0.128 NA
HETATM    6  N   UNL     1       3.871   3.511  -0.517  1.00  0.00    -0.122 NA
BRANCH   3   7
HETATM    7  C   UNL     1       2.053   0.413  -0.313  1.00  0.00     0.128 C 
HETATM    8  C   UNL     1       2.331  -0.334   0.982  1.00  0.00     0.027 C 
ENDBRANCH   3   7
BRANCH   4   9
HETATM    9  C   UNL     1       4.494   0.412  -2.257  1.00  0.00     0.018 A 
HETATM   10  C   UNL     1       4.464   0.500  -3.666  1.00  0.00    -0.048 A 
HETATM   11  C   UNL     1       4.004   1.747  -4.373  1.00  0.00     0.049 C 
HETATM   12  C   UNL     1       4.912  -0.590  -4.433  1.00  0.00     0.007 A 
HETATM   13  C   UNL     1       5.379  -1.752  -3.819  1.00  0.00     0.001 A 
HETATM   14  C   UNL     1       5.422  -1.834  -2.431  1.00  0.00     0.001 A 
HETATM   15  C   UNL     1       4.990  -0.757  -1.656  1.00  0.00     0.016 A 
ENDBRANCH   4   9
ENDBRANCH   1   2
BRANCH   1  16
HETATM   16  C   UNL     1       2.494   4.846   1.690  1.00  0.00     0.185 C 
BRANCH  16  17
HETATM   17  C   UNL     1       1.659   5.449   2.808  1.00  0.00     0.227 C 
HETATM   18  N   UNL     1       0.891   6.534   2.436  1.00  0.00    -0.358 N 
HETATM   19  H   UNL     1       0.908   6.855   1.476  1.00  0.00     0.162 HD
HETATM   20  O   UNL     1       1.663   4.998   3.951  1.00  0.00    -0.273 OA
BRANCH  18  21
HETATM   21  C   UNL     1      -0.020   7.183   3.363  1.00  0.00     0.149 C 
BRANCH  21  22
HETATM   22  C   UNL     1       0.600   8.375   4.098  1.00  0.00     0.195 C 
BRANCH  22  23
HETATM   23  O   UNL     1      -0.424   8.967   4.901  1.00  0.00    -0.350 OA
BRANCH  23  24
HETATM   24  C   UNL     1      -0.108  10.091   5.610  1.00  0.00     0.068 A 
HETATM   25  C   UNL     1       1.109  10.773   5.576  1.00  0.00     0.037 A 
HETATM   26  C   UNL     1       1.288  11.927   6.349  1.00  0.00     0.003 A 
HETATM   27  C   UNL     1       0.256  12.399   7.160  1.00  0.00     0.000 A 
HETATM   28  C   UNL     1      -0.959  11.720   7.199  1.00  0.00     0.003 A 
HETATM   29  C   UNL     1      -1.137  10.573   6.426  1.00  0.00     0.037 A 
ENDBRANCH  23  24
ENDBRANCH  22  23
ENDBRANCH  21  22
ENDBRANCH  18  21
ENDBRANCH  16  17
ENDBRANCH   1  16
TORSDOF 9
