REMARK  2 active torsions:
REMARK  status: ('A' for Active; 'I' for Inactive)
REMARK    1  A    between atoms: C_9  and  O_10 
REMARK    2  A    between atoms: C_9  and  C_11 
ROOT
HETATM    1  C   UNL     1       0.940  -0.156  -0.044  1.00  0.00     0.048 C 
HETATM    2  C   UNL     1       2.438  -0.052  -0.041  1.00  0.00    -0.061 A 
HETATM    3  C   UNL     1       3.065   1.203  -0.027  1.00  0.00     0.020 A 
HETATM    4  C   UNL     1       4.452   1.253  -0.009  1.00  0.00     0.018 A 
HETATM    5  C   UNL     1       5.199   0.075  -0.024  1.00  0.00     0.045 A 
HETATM    6  N   UNL     1       6.556   0.360  -0.032  1.00  0.00    -0.323 N 
HETATM    7  C   UNL     1       6.790   1.737  -0.015  1.00  0.00     0.266 A 
HETATM    8  O   UNL     1       7.903   2.239  -0.039  1.00  0.00    -0.269 OA
HETATM    9  C   UNL     1       5.387   2.447  -0.020  1.00  0.00     0.199 A 
HETATM   10  C   UNL     1       4.615  -1.173  -0.038  1.00  0.00     0.031 A 
HETATM   11  C   UNL     1       3.219  -1.230  -0.044  1.00  0.00     0.009 A 
HETATM   12  H   UNL     1       7.304  -0.316  -0.044  1.00  0.00     0.169 HD
ENDROOT
BRANCH   9  13
HETATM   13  O   UNL     1       5.208   3.179  -1.228  1.00  0.00    -0.371 OA
HETATM   14  H   UNL     1       5.118   2.522  -1.937  1.00  0.00     0.212 HD
ENDBRANCH   9  13
BRANCH   9  15
HETATM   15  C   UNL     1       5.087   3.238   1.237  1.00  0.00     0.025 A 
HETATM   16  C   UNL     1       4.257   4.422   1.310  1.00  0.00     0.003 A 
HETATM   17  C   UNL     1       4.206   4.829   2.642  1.00  0.00     0.043 A 
HETATM   18  C   UNL     1       3.530   5.182   0.366  1.00  0.00     0.014 A 
HETATM   19  C   UNL     1       3.474   5.942   3.077  1.00  0.00     0.030 A 
HETATM   20  N   UNL     1       4.979   3.955   3.358  1.00  0.00    -0.359 N 
HETATM   21  C   UNL     1       2.765   6.670   2.119  1.00  0.00     0.002 A 
HETATM   22  C   UNL     1       2.791   6.297   0.780  1.00  0.00     0.001 A 
HETATM   23  H   UNL     1       5.127   4.019   4.356  1.00  0.00     0.166 HD
HETATM   24  C   UNL     1       5.502   2.981   2.546  1.00  0.00     0.016 A 
HETATM   25  C   UNL     1       6.347   1.903   3.129  1.00  0.00     0.069 C 
ENDBRANCH   9  15
TORSDOF 2
