REMARK  5 active torsions:
REMARK  status: ('A' for Active; 'I' for Inactive)
REMARK    1  A    between atoms: C_3  and  N_4 
REMARK       I    between atoms: N_4  and  C_5 
REMARK    2  A    between atoms: C_5  and  C_6 
REMARK    3  A    between atoms: C_14  and  C_15 
REMARK    4  A    between atoms: C_21  and  O_22 
REMARK    5  A    between atoms: C_24  and  O_25 
ROOT
HETATM    1  N   UNL     1       2.925   2.274  -0.078  1.00  0.00    -0.322 N 
HETATM    2  C   UNL     1       3.202   3.546  -0.533  1.00  0.00     0.257 C 
HETATM    3  O   UNL     1       2.432   4.413  -0.915  1.00  0.00    -0.267 OA
HETATM    4  H   UNL     1       3.720   1.812   0.350  1.00  0.00     0.169 HD
ENDROOT
BRANCH   2   5
HETATM    5  C   UNL     1       4.648   3.902  -0.499  1.00  0.00     0.046 A 
HETATM    6  C   UNL     1       5.656   3.074  -1.047  1.00  0.00     0.008 A 
HETATM    7  C   UNL     1       6.976   3.530  -0.884  1.00  0.00     0.068 A 
HETATM    8  C   UNL     1       5.441   1.861  -1.758  1.00  0.00     0.015 A 
HETATM    9  C   UNL     1       8.021   2.752  -1.365  1.00  0.00     0.032 A 
HETATM   10  N   UNL     1       7.281   4.699  -0.297  1.00  0.00    -0.252 NA
HETATM   11  C   UNL     1       7.803   1.543  -2.028  1.00  0.00     0.002 A 
HETATM   12  C   UNL     1       6.506   1.100  -2.235  1.00  0.00     0.001 A 
HETATM   13  C   UNL     1       6.299   5.516   0.155  1.00  0.00     0.040 A 
HETATM   14  C   UNL     1       4.971   5.134   0.074  1.00  0.00     0.045 A 
BRANCH  13  15
HETATM   15  C   UNL     1       6.692   6.867   0.702  1.00  0.00     0.038 A 
HETATM   16  C   UNL     1       6.334   7.270   2.113  1.00  0.00     0.011 A 
HETATM   17  C   UNL     1       7.760   6.960   1.770  1.00  0.00     0.011 A 
ENDBRANCH  13  15
ENDBRANCH   2   5
BRANCH   1  18
HETATM   18  C   UNL     1       1.773   1.453  -0.189  1.00  0.00     0.043 A 
HETATM   19  C   UNL     1       0.526   1.768  -0.751  1.00  0.00    -0.032 A 
HETATM   20  C   UNL     1       0.117   3.118  -1.266  1.00  0.00     0.050 C 
HETATM   21  C   UNL     1      -0.457   0.752  -0.850  1.00  0.00     0.048 A 
HETATM   22  C   UNL     1      -0.225  -0.555  -0.415  1.00  0.00     0.102 A 
HETATM   23  C   UNL     1       1.006  -0.864   0.168  1.00  0.00     0.103 A 
HETATM   24  C   UNL     1       1.977   0.137   0.289  1.00  0.00     0.069 A 
BRANCH  22  25
HETATM   25  O   UNL     1      -1.135  -1.577  -0.510  1.00  0.00    -0.353 OA
HETATM   26  C   UNL     1      -2.213  -1.399  -1.419  1.00  0.00     0.210 C 
ENDBRANCH  22  25
BRANCH  23  27
HETATM   27  O   UNL     1       1.173  -2.156   0.601  1.00  0.00    -0.353 OA
HETATM   28  C   UNL     1       2.508  -2.625   0.729  1.00  0.00     0.210 C 
ENDBRANCH  23  27
ENDBRANCH   1  18
TORSDOF 5
