REMARK  5 active torsions:
REMARK  status: ('A' for Active; 'I' for Inactive)
REMARK    1  A    between atoms: C_2  and  C_3 
REMARK    2  A    between atoms: C_8  and  C_9 
REMARK       I    between atoms: C_9  and  N_10 
REMARK    3  A    between atoms: N_10  and  C_11 
REMARK    4  A    between atoms: C_11  and  C_12 
REMARK    5  A    between atoms: C_19  and  C_20 
ROOT
HETATM    1  C   UNL     1      -2.918  -0.062  -0.231  1.00  0.00     0.118 C 
HETATM    2  N   UNL     1      -3.198   0.960  -1.231  1.00  0.00    -0.366 N 
HETATM    3  C   UNL     1      -3.902   0.697  -2.353  1.00  0.00     0.123 A 
HETATM    4  N   UNL     1      -4.285  -0.573  -2.683  1.00  0.00    -0.240 N 
HETATM    5  N   UNL     1      -4.926  -0.660  -3.861  1.00  0.00    -0.165 NA
HETATM    6  C   UNL     1      -5.023   0.627  -4.267  1.00  0.00     0.148 A 
HETATM    7  C   UNL     1      -4.375   1.503  -3.354  1.00  0.00     0.088 A 
HETATM    8  C   UNL     1      -3.995  -1.748  -1.886  1.00  0.00     0.221 C 
HETATM    9  C   UNL     1      -2.862  -1.457  -0.882  1.00  0.00     0.066 C 
HETATM   10  H   UNL     1      -3.006   1.920  -0.949  1.00  0.00     0.161 HD
ENDROOT
BRANCH   6  11
HETATM   11  C   UNL     1      -5.725   1.011  -5.503  1.00  0.00     0.272 C 
HETATM   12  N   UNL     1      -6.289  -0.056  -6.163  1.00  0.00    -0.353 N 
HETATM   13  H   UNL     1      -6.035  -0.975  -5.811  1.00  0.00     0.162 HD
HETATM   14  O   UNL     1      -5.801   2.171  -5.897  1.00  0.00    -0.266 OA
BRANCH  12  15
HETATM   15  C   UNL     1      -6.960   0.071  -7.437  1.00  0.00     0.155 C 
BRANCH  15  16
HETATM   16  C   UNL     1      -5.983   0.174  -8.610  1.00  0.00     0.139 C 
HETATM   17  O   UNL     1      -5.236  -1.050  -8.760  1.00  0.00    -0.384 OA
HETATM   18  C   UNL     1      -4.926  -1.214 -10.151  1.00  0.00     0.168 C 
HETATM   19  C   UNL     1      -5.636  -0.113 -10.915  1.00  0.00     0.029 C 
HETATM   20  C   UNL     1      -6.686   0.361  -9.942  1.00  0.00     0.035 C 
ENDBRANCH  15  16
ENDBRANCH  12  15
ENDBRANCH   6  11
BRANCH   8  21
HETATM   21  C   UNL     1      -5.258  -2.273  -1.241  1.00  0.00     0.409 C 
HETATM   22  F   UNL     1      -6.122  -2.785  -2.147  1.00  0.00    -0.169 F 
HETATM   23  F   UNL     1      -4.953  -3.292  -0.393  1.00  0.00    -0.169 F 
HETATM   24  F   UNL     1      -5.924  -1.352  -0.520  1.00  0.00    -0.169 F 
ENDBRANCH   8  21
BRANCH   1  25
HETATM   25  C   UNL     1      -3.819   0.049   0.989  1.00  0.00    -0.034 A 
HETATM   26  C   UNL     1      -3.455  -0.617   2.172  1.00  0.00     0.011 A 
HETATM   27  C   UNL     1      -4.243  -0.523   3.324  1.00  0.00     0.026 A 
HETATM   28  C   UNL     1      -5.413   0.240   3.318  1.00  0.00     0.055 A 
HETATM   29  C   UNL     1      -5.792   0.912   2.154  1.00  0.00     0.056 A 
HETATM   30 CL   UNL     1      -6.333   0.314   4.777  1.00  0.00    -0.083 Cl
HETATM   31  C   UNL     1      -4.996   0.820   1.005  1.00  0.00     0.034 A 
HETATM   32 CL   UNL     1      -7.225   1.874   2.066  1.00  0.00    -0.083 Cl
ENDBRANCH   1  25
TORSDOF 5
