REMARK  4 active torsions:
REMARK  status: ('A' for Active; 'I' for Inactive)
REMARK    1  A    between atoms: C_5  and  C_6 
REMARK       I    between atoms: C_6  and  N_7 
REMARK    2  A    between atoms: N_7  and  C_8 
REMARK    3  A    between atoms: C_12  and  C_13 
REMARK    4  A    between atoms: C_13  and  C_14 
ROOT
HETATM    1  C   UNL     1      -1.468   2.927   0.371  1.00  0.00     0.747 A 
HETATM    2  N   UNL     1      -1.704   1.823  -0.345  1.00  0.00     0.020 NA
HETATM    3  N   UNL     1      -3.046   1.758  -0.311  1.00  0.00    -0.248 N 
HETATM    4  H   UNL     1      -3.520   0.983  -0.760  1.00  0.00     0.191 HD
HETATM    5  C   UNL     1      -3.572   2.792   0.406  1.00  0.00     0.144 A 
HETATM    6  N   UNL     1      -2.587   3.556   0.822  1.00  0.00    -0.046 NA
ENDROOT
BRANCH   1   7
HETATM    7  N   UNL     1      -0.192   3.328   0.642  1.00  0.00    -0.150 N 
HETATM    8  C   UNL     1       0.143   4.415   1.409  1.00  0.00     0.271 C 
HETATM    9  O   UNL     1      -0.620   5.218   1.933  1.00  0.00    -0.267 OA
HETATM   10  H   UNL     1       0.509   2.688   0.305  1.00  0.00     0.188 HD
BRANCH   8  11
HETATM   11  C   UNL     1       1.595   4.563   1.677  1.00  0.00     0.045 A 
HETATM   12  C   UNL     1       2.588   4.321   0.697  1.00  0.00     0.008 A 
HETATM   13  C   UNL     1       3.930   4.442   1.077  1.00  0.00     0.043 A 
HETATM   14  C   UNL     1       2.594   3.988  -0.693  1.00  0.00     0.032 A 
HETATM   15  C   UNL     1       4.326   4.808   2.370  1.00  0.00     0.030 A 
HETATM   16  N   UNL     1       4.701   4.147  -0.025  1.00  0.00    -0.365 N 
HETATM   17  C   UNL     1       3.328   5.075   3.310  1.00  0.00     0.003 A 
HETATM   18  C   UNL     1       1.984   4.957   2.971  1.00  0.00     0.018 A 
HETATM   19  H   UNL     1       5.712   4.154  -0.035  1.00  0.00     0.165 HD
HETATM   20  C   UNL     1       3.903   3.874  -1.101  1.00  0.00     0.089 A 
ENDBRANCH   8  11
ENDBRANCH   1   7
BRANCH   5  21
HETATM   21  C   UNL     1      -5.023   2.941   0.700  1.00  0.00     0.119 C 
BRANCH  21  22
HETATM   22  C   UNL     1      -5.505   2.018   1.799  1.00  0.00    -0.045 A 
HETATM   23  C   UNL     1      -4.804   1.905   3.012  1.00  0.00     0.050 A 
HETATM   24  C   UNL     1      -5.270   1.063   4.020  1.00  0.00     0.119 A 
HETATM   25  F   UNL     1      -4.578   0.955   5.161  1.00  0.00    -0.206 F 
HETATM   26  C   UNL     1      -6.440   0.335   3.862  1.00  0.00     0.084 A 
HETATM   27  C   UNL     1      -7.147   0.463   2.676  1.00  0.00     0.119 A 
HETATM   28  F   UNL     1      -8.285  -0.223   2.510  1.00  0.00    -0.206 F 
HETATM   29  C   UNL     1      -6.697   1.294   1.649  1.00  0.00     0.050 A 
ENDBRANCH  21  22
ENDBRANCH   5  21
TORSDOF 4
