REMARK  1 active torsions:
REMARK  status: ('A' for Active; 'I' for Inactive)
REMARK    1  A    between atoms: C_8  and  C_9 
ROOT
HETATM    1  C   UNL     1       1.116  -0.086  -0.300  1.00  0.00     0.073 C 
HETATM    2  C   UNL     1       2.591   0.034  -0.156  1.00  0.00     0.062 C 
HETATM    3  N   UNL     1       3.324  -1.076  -0.026  1.00  0.00    -0.178 NA
HETATM    4  N   UNL     1       4.580  -0.625   0.021  1.00  0.00    -0.262 N 
HETATM    5  H   UNL     1       5.326  -1.305   0.105  1.00  0.00     0.191 HD
HETATM    6  C   UNL     1       4.675   0.740   0.062  1.00  0.00     0.134 C 
HETATM    7  C   UNL     1       3.400   1.222  -0.161  1.00  0.00     0.032 C 
HETATM    8  C   UNL     1       2.894   2.607  -0.423  1.00  0.00     0.119 C 
HETATM    9  S   UNL     1       3.808   4.060   0.169  1.00  0.00    -0.141 SA
HETATM   10  C   UNL     1       4.963   3.397   1.394  1.00  0.00     0.136 C 
HETATM   11  C   UNL     1       4.321   2.750   2.615  1.00  0.00     0.031 C 
HETATM   12  C   UNL     1       6.093   2.595   0.759  1.00  0.00     0.236 C 
HETATM   13  O   UNL     1       7.254   3.021   0.768  1.00  0.00    -0.272 OA
HETATM   14  N   UNL     1       5.889   1.341   0.264  1.00  0.00    -0.311 N 
HETATM   15  H   UNL     1       6.748   0.829   0.097  1.00  0.00     0.170 HD
ENDROOT
BRANCH   8  16
HETATM   16  C   UNL     1       2.737   2.686  -1.942  1.00  0.00    -0.039 A 
HETATM   17  C   UNL     1       3.853   2.677  -2.804  1.00  0.00     0.021 A 
HETATM   18  C   UNL     1       3.713   2.767  -4.198  1.00  0.00    -0.025 A 
HETATM   19  C   UNL     1       2.421   2.864  -4.756  1.00  0.00    -0.026 A 
HETATM   20  C   UNL     1       4.833   2.767  -5.046  1.00  0.00     0.012 A 
HETATM   21  C   UNL     1       1.306   2.876  -3.904  1.00  0.00     0.013 A 
HETATM   22  C   UNL     1       2.283   2.954  -6.152  1.00  0.00     0.012 A 
HETATM   23  C   UNL     1       1.461   2.794  -2.516  1.00  0.00     0.009 A 
HETATM   24  C   UNL     1       3.406   2.953  -6.982  1.00  0.00     0.001 A 
HETATM   25  C   UNL     1       4.679   2.861  -6.429  1.00  0.00     0.001 A 
ENDBRANCH   8  16
TORSDOF 1
