REMARK  2 active torsions:
REMARK  status: ('A' for Active; 'I' for Inactive)
REMARK    1  A    between atoms: C_3  and  C_4 
REMARK       I    between atoms: C_4  and  N_5 
REMARK    2  A    between atoms: N_5  and  C_6 
ROOT
HETATM    1  C   UNL     1       1.110  -0.080   0.353  1.00  0.00     0.051 C 
HETATM    2  C   UNL     1       2.592   0.061   0.103  1.00  0.00    -0.021 A 
HETATM    3  C   UNL     1       3.344  -1.171  -0.198  1.00  0.00     0.061 A 
HETATM    4  C   UNL     1       4.650  -1.106  -0.544  1.00  0.00     0.022 A 
HETATM    5  C   UNL     1       5.504  -2.247  -1.035  1.00  0.00     0.069 C 
HETATM    6  N   UNL     1       5.297   0.111  -0.499  1.00  0.00    -0.349 N 
HETATM    7  C   UNL     1       4.700   1.311  -0.186  1.00  0.00     0.121 A 
HETATM    8  S   UNL     1       5.687   2.667  -0.150  1.00  0.00    -0.059 SA
HETATM    9  C   UNL     1       3.223   1.258   0.076  1.00  0.00     0.075 A 
HETATM   10  C   UNL     1       2.464   2.575   0.077  1.00  0.00     0.023 C 
HETATM   11  N   UNL     1       1.834   3.667   0.079  1.00  0.00    -0.096 N 
HETATM   12  H   UNL     1       6.285   0.159  -0.735  1.00  0.00     0.166 HD
ENDROOT
BRANCH   3  13
HETATM   13  C   UNL     1       2.650  -2.504  -0.250  1.00  0.00     0.258 C 
HETATM   14  N   UNL     1       3.191  -3.418   0.635  1.00  0.00    -0.323 N 
HETATM   15  H   UNL     1       3.964  -3.102   1.206  1.00  0.00     0.169 HD
HETATM   16  O   UNL     1       1.721  -2.676  -1.028  1.00  0.00    -0.267 OA
BRANCH  14  17
HETATM   17  C   UNL     1       2.865  -4.786   0.749  1.00  0.00     0.035 A 
HETATM   18  C   UNL     1       1.789  -5.389   0.096  1.00  0.00     0.029 A 
HETATM   19  C   UNL     1       1.549  -6.759   0.241  1.00  0.00     0.002 A 
HETATM   20  C   UNL     1       2.388  -7.538   1.035  1.00  0.00     0.000 A 
HETATM   21  C   UNL     1       3.462  -6.946   1.692  1.00  0.00     0.002 A 
HETATM   22  C   UNL     1       3.695  -5.575   1.557  1.00  0.00     0.029 A 
ENDBRANCH  14  17
ENDBRANCH   3  13
TORSDOF 2
