REMARK  7 active torsions:
REMARK  status: ('A' for Active; 'I' for Inactive)
REMARK    1  A    between atoms: C_2  and  C_3 
REMARK    2  A    between atoms: N_21  and  N_23 
REMARK       I    between atoms: N_23  and  C_24 
REMARK    3  A    between atoms: C_24  and  C_25 
REMARK    4  A    between atoms: C_25  and  N_26 
REMARK    5  A    between atoms: C_25  and  C_34 
REMARK       I    between atoms: N_26  and  C_27 
REMARK    6  A    between atoms: C_27  and  O_28 
REMARK    7  A    between atoms: O_28  and  C_29 
ROOT
HETATM    1  C   UNL     1       3.417  -1.972  -0.591  1.00  0.00    -0.041 C 
HETATM    2  C   UNL     1       2.494  -2.036   0.554  1.00  0.00     0.005 C 
HETATM    3  C   UNL     1       3.020  -1.838   1.834  1.00  0.00     0.091 C 
HETATM    4  C   UNL     1       2.214  -1.390   2.876  1.00  0.00     0.075 C 
HETATM    5  C   UNL     1       0.852  -1.220   2.634  1.00  0.00     0.079 C 
HETATM    6  C   UNL     1       0.269  -1.730   1.471  1.00  0.00    -0.024 C 
HETATM    7  C   UNL     1      -1.227  -1.742   1.298  1.00  0.00     0.044 C 
HETATM    8  C   UNL     1      -1.933  -1.037   2.454  1.00  0.00     0.043 C 
HETATM    9  C   UNL     1      -1.071   0.125   2.977  1.00  0.00     0.068 C 
HETATM   10  C   UNL     1      -0.790   1.181   1.867  1.00  0.00     0.038 C 
HETATM   11  C   UNL     1      -0.011   2.387   2.380  1.00  0.00     0.003 C 
HETATM   12  C   UNL     1      -0.754   3.061   3.522  1.00  0.00     0.000 C 
HETATM   13  C   UNL     1      -1.053   2.073   4.645  1.00  0.00     0.003 C 
HETATM   14  C   UNL     1      -1.799   0.832   4.142  1.00  0.00     0.038 C 
HETATM   15  O   UNL     1       0.148  -0.449   3.524  1.00  0.00    -0.340 OA
HETATM   16  C   UNL     1       1.104  -2.108   0.414  1.00  0.00     0.024 C 
HETATM   17  O   UNL     1       4.391  -2.048   2.095  1.00  0.00    -0.292 OA
HETATM   18  C   UNL     1       5.228  -2.174   1.015  1.00  0.00     0.163 C 
HETATM   19  N   UNL     1       6.450  -2.445   1.287  1.00  0.00    -0.277 N 
HETATM   20  H   UNL     1       7.146  -2.378   0.525  1.00  0.00     0.189 HD
HETATM   21  C   UNL     1       4.735  -1.975  -0.344  1.00  0.00     0.065 C 
ENDROOT
BRANCH  19  22
HETATM   22  N   UNL     1       6.910  -3.011   2.491  1.00  0.00    -0.266 N 
HETATM   23  C   UNL     1       8.224  -3.451   2.422  1.00  0.00     0.263 C 
HETATM   24  O   UNL     1       9.001  -2.910   1.627  1.00  0.00    -0.269 OA
HETATM   25  H   UNL     1       6.210  -3.417   3.106  1.00  0.00     0.190 HD
BRANCH  23  26
HETATM   26  C   UNL     1       8.530  -4.771   3.172  1.00  0.00     0.214 C 
BRANCH  26  27
HETATM   27  N   UNL     1       9.041  -5.707   2.185  1.00  0.00    -0.319 N 
HETATM   28  C   UNL     1       8.319  -6.072   1.093  1.00  0.00     0.362 C 
HETATM   29  O   UNL     1       7.196  -5.643   0.860  1.00  0.00    -0.238 OA
HETATM   30  H   UNL     1       9.983  -6.073   2.257  1.00  0.00     0.166 HD
BRANCH  28  31
HETATM   31  O   UNL     1       9.069  -6.874   0.314  1.00  0.00    -0.294 OA
BRANCH  31  32
HETATM   32  C   UNL     1       8.604  -7.336  -0.981  1.00  0.00     0.061 C 
HETATM   33  C   UNL     1       8.277  -6.162  -1.913  1.00  0.00     0.046 C 
HETATM   34  C   UNL     1       9.791  -8.112  -1.574  1.00  0.00     0.046 C 
HETATM   35  C   UNL     1       7.415  -8.286  -0.821  1.00  0.00     0.046 C 
ENDBRANCH  31  32
ENDBRANCH  28  31
ENDBRANCH  26  27
BRANCH  26  36
HETATM   36  C   UNL     1       9.526  -4.613   4.298  1.00  0.00    -0.026 A 
HETATM   37  C   UNL     1       9.293  -5.250   5.528  1.00  0.00     0.010 A 
HETATM   38  C   UNL     1      10.232  -5.175   6.558  1.00  0.00     0.001 A 
HETATM   39  C   UNL     1      11.419  -4.470   6.373  1.00  0.00     0.000 A 
HETATM   40  C   UNL     1      11.671  -3.845   5.155  1.00  0.00     0.001 A 
HETATM   41  C   UNL     1      10.736  -3.920   4.122  1.00  0.00     0.010 A 
ENDBRANCH  26  36
ENDBRANCH  23  26
ENDBRANCH  19  22
BRANCH   1  42
HETATM   42  C   UNL     1       2.890  -1.679  -1.978  1.00  0.00     0.035 C 
HETATM   43  C   UNL     1       2.613  -2.937  -2.783  1.00  0.00     0.010 C 
ENDBRANCH   1  42
TORSDOF 7
