REMARK  7 active torsions:
REMARK  status: ('A' for Active; 'I' for Inactive)
REMARK       I    between atoms: C_2  and  N_3 
REMARK    1  A    between atoms: N_3  and  C_4 
REMARK    2  A    between atoms: N_9  and  C_10 
REMARK    3  A    between atoms: C_10  and  C_11 
REMARK    4  A    between atoms: C_11  and  C_12 
REMARK    5  A    between atoms: C_12  and  O_13 
REMARK    6  A    between atoms: O_13  and  C_14 
REMARK    7  A    between atoms: C_17  and  C_18 
REMARK       I    between atoms: N_30  and  C_31 
ROOT
HETATM    1  C   UNL     1       2.706  -2.273  -0.236  1.00  0.00     0.191 C 
HETATM    2  S   UNL     1       3.301  -3.595  -1.186  1.00  0.00    -0.042 SA
HETATM    3  C   UNL     1       1.565  -4.177  -1.352  1.00  0.00     0.224 A 
HETATM    4  C   UNL     1       1.092  -3.838  -2.794  1.00  0.00     0.271 A 
HETATM    5  O   UNL     1       0.944  -2.710  -3.246  1.00  0.00    -0.269 OA
HETATM    6  N   UNL     1       0.904  -5.063  -3.462  1.00  0.00    -0.314 N 
HETATM    7  C   UNL     1       1.089  -6.140  -2.570  1.00  0.00     0.047 A 
HETATM    8  C   UNL     1       1.470  -5.671  -1.306  1.00  0.00     0.019 A 
HETATM    9  C   UNL     1       0.924  -7.492  -2.813  1.00  0.00     0.030 A 
HETATM   10  C   UNL     1       1.150  -8.382  -1.758  1.00  0.00     0.002 A 
HETATM   11  C   UNL     1       1.530  -7.914  -0.490  1.00  0.00     0.001 A 
HETATM   12  C   UNL     1       1.694  -6.548  -0.254  1.00  0.00     0.013 A 
HETATM   13  N   UNL     1       0.825  -3.398  -0.364  1.00  0.00    -0.201 N 
HETATM   14  C   UNL     1      -0.533  -3.576  -0.160  1.00  0.00     0.238 C 
HETATM   15  C   UNL     1      -1.175  -2.623   0.817  1.00  0.00     0.119 C 
HETATM   16  O   UNL     1      -1.198  -4.438  -0.735  1.00  0.00    -0.272 OA
HETATM   17  N   UNL     1       1.478  -2.293   0.158  1.00  0.00    -0.141 NA
ENDROOT
BRANCH   6  18
HETATM   18  C   UNL     1       0.408  -5.251  -4.819  1.00  0.00     0.134 C 
BRANCH  18  19
HETATM   19  C   UNL     1       0.388  -4.003  -5.696  1.00  0.00     0.047 C 
BRANCH  19  20
HETATM   20  C   UNL     1      -0.006  -4.314  -7.136  1.00  0.00     0.177 C 
BRANCH  20  21
HETATM   21  O   UNL     1      -0.045  -3.069  -7.832  1.00  0.00    -0.351 OA
BRANCH  21  22
HETATM   22  C   UNL     1      -0.352  -3.091  -9.160  1.00  0.00     0.068 A 
HETATM   23  C   UNL     1      -0.596  -4.222  -9.931  1.00  0.00     0.037 A 
HETATM   24  C   UNL     1      -0.887  -4.097 -11.299  1.00  0.00     0.011 A 
HETATM   25  C   UNL     1      -0.943  -2.842 -11.928  1.00  0.00    -0.050 A 
HETATM   26  C   UNL     1      -0.702  -1.713 -11.124  1.00  0.00     0.011 A 
HETATM   27  C   UNL     1      -0.410  -1.838  -9.764  1.00  0.00     0.037 A 
BRANCH  25  28
HETATM   28  C   UNL     1      -1.251  -2.671 -13.425  1.00  0.00    -0.024 C 
HETATM   29  C   UNL     1      -1.446  -4.005 -14.178  1.00  0.00     0.019 C 
HETATM   30  C   UNL     1      -2.549  -1.853 -13.594  1.00  0.00     0.019 C 
HETATM   31  C   UNL     1      -0.087  -1.925 -14.115  1.00  0.00     0.019 C 
ENDBRANCH  25  28
ENDBRANCH  21  22
ENDBRANCH  20  21
ENDBRANCH  19  20
ENDBRANCH  18  19
ENDBRANCH   6  18
BRANCH   1  32
HETATM   32  N   UNL     1       3.639  -1.311   0.020  1.00  0.00    -0.305 N 
HETATM   33  C   UNL     1       3.520  -0.096   0.653  1.00  0.00     0.219 C 
HETATM   34  C   UNL     1       2.160   0.358   1.104  1.00  0.00     0.117 C 
HETATM   35  O   UNL     1       4.526   0.591   0.833  1.00  0.00    -0.274 OA
HETATM   36  H   UNL     1       4.574  -1.500  -0.311  1.00  0.00     0.171 HD
ENDBRANCH   1  32
TORSDOF 7
