REMARK  3 active torsions:
REMARK  status: ('A' for Active; 'I' for Inactive)
REMARK    1  A    between atoms: C_10  and  C_11 
REMARK       I    between atoms: C_11  and  N_12 
REMARK    2  A    between atoms: C_14  and  O_15 
REMARK    3  A    between atoms: O_15  and  C_16 
ROOT
HETATM    1  C   UNL     1       3.572  -5.022   0.434  1.00  0.00     0.255 C 
HETATM    2  N   UNL     1       2.358  -5.599   0.109  1.00  0.00    -0.345 N 
HETATM    3  C   UNL     1       2.106  -6.990  -0.264  1.00  0.00     0.158 C 
HETATM    4  C   UNL     1       0.778  -6.970  -1.036  1.00  0.00     0.148 C 
HETATM    5  C   UNL     1       0.078  -5.738  -0.461  1.00  0.00     0.054 C 
HETATM    6  C   UNL     1       1.226  -4.762  -0.244  1.00  0.00     0.129 C 
HETATM    7  O   UNL     1       3.742  -3.807   0.491  1.00  0.00    -0.267 OA
ENDROOT
BRANCH   1   8
HETATM    8  C   UNL     1       4.730  -5.897   0.697  1.00  0.00     0.050 A 
HETATM    9  C   UNL     1       5.938  -5.600   0.069  1.00  0.00     0.136 A 
HETATM   10  N   UNL     1       7.089  -6.312   0.191  1.00  0.00    -0.240 NA
HETATM   11  C   UNL     1       6.957  -7.362   1.025  1.00  0.00     0.155 A 
HETATM   12  N   UNL     1       7.927  -8.263   1.351  1.00  0.00    -0.260 N 
HETATM   13  C   UNL     1       5.828  -7.748   1.731  1.00  0.00     0.038 A 
HETATM   14  N   UNL     1       7.517  -9.220   2.209  1.00  0.00    -0.177 NA
HETATM   15  H   UNL     1       8.881  -8.273   1.015  1.00  0.00     0.191 HD
HETATM   16  C   UNL     1       6.236  -8.904   2.450  1.00  0.00     0.065 A 
HETATM   17  C   UNL     1       5.417  -9.737   3.364  1.00  0.00     0.073 C 
HETATM   18  C   UNL     1       4.663  -6.979   1.582  1.00  0.00     0.036 A 
ENDBRANCH   1   8
BRANCH   4  19
HETATM   19  O   UNL     1       1.073  -6.782  -2.424  1.00  0.00    -0.344 OA
BRANCH  19  20
HETATM   20  C   UNL     1       0.166  -7.218  -3.348  1.00  0.00     0.070 A 
HETATM   21  C   UNL     1      -1.132  -7.655  -3.088  1.00  0.00     0.060 A 
HETATM   22  C   UNL     1      -1.943  -8.080  -4.142  1.00  0.00     0.036 A 
HETATM   23 CL   UNL     1      -3.542  -8.632  -3.815  1.00  0.00    -0.084 Cl
HETATM   24  C   UNL     1      -1.477  -8.064  -5.455  1.00  0.00     0.024 A 
HETATM   25  C   UNL     1      -0.186  -7.614  -5.720  1.00  0.00     0.004 A 
HETATM   26  C   UNL     1       0.628  -7.191  -4.668  1.00  0.00     0.037 A 
ENDBRANCH  19  20
ENDBRANCH   4  19
TORSDOF 3
