REMARK  4 active torsions:
REMARK  status: ('A' for Active; 'I' for Inactive)
REMARK    1  A    between atoms: C_9  and  C_10 
REMARK       I    between atoms: C_10  and  N_11 
REMARK    2  A    between atoms: N_11  and  N_12 
REMARK       I    between atoms: N_12  and  C_13 
REMARK    3  A    between atoms: C_13  and  C_14 
REMARK    4  A    between atoms: C_14  and  C_15 
ROOT
HETATM    1  C   UNL     1       5.890   3.264  -0.327  1.00  0.00     0.291 C 
HETATM    2  N   UNL     1       6.915   3.940  -0.963  1.00  0.00    -0.262 N 
HETATM    3  O   UNL     1       6.091   2.469   0.592  1.00  0.00    -0.264 OA
HETATM    4  H   UNL     1       6.676   4.711  -1.591  1.00  0.00     0.190 HD
ENDROOT
BRANCH   2   5
HETATM    5  N   UNL     1       8.202   3.907  -0.415  1.00  0.00    -0.267 N 
HETATM    6  C   UNL     1       8.988   5.035  -0.542  1.00  0.00     0.240 C 
HETATM    7  O   UNL     1       8.670   5.998  -1.238  1.00  0.00    -0.272 OA
HETATM    8  H   UNL     1       8.383   3.181   0.275  1.00  0.00     0.190 HD
BRANCH   6   9
HETATM    9  C   UNL     1      10.287   4.982   0.238  1.00  0.00     0.143 C 
BRANCH   9  10
HETATM   10  C   UNL     1      11.396   4.231  -0.463  1.00  0.00    -0.049 A 
HETATM   11  C   UNL     1      11.670   4.443  -1.823  1.00  0.00     0.009 A 
HETATM   12  C   UNL     1      12.724   3.772  -2.449  1.00  0.00     0.024 A 
HETATM   13  C   UNL     1      13.522   2.898  -1.716  1.00  0.00     0.034 A 
HETATM   14 CL   UNL     1      14.825   2.079  -2.484  1.00  0.00    -0.084 Cl
HETATM   15  C   UNL     1      13.276   2.691  -0.361  1.00  0.00     0.024 A 
HETATM   16  C   UNL     1      12.219   3.358   0.264  1.00  0.00     0.009 A 
ENDBRANCH   9  10
ENDBRANCH   6   9
ENDBRANCH   2   5
BRANCH   1  17
HETATM   17  C   UNL     1       4.559   3.604  -0.847  1.00  0.00     0.158 A 
HETATM   18  C   UNL     1       3.304   3.053  -0.452  1.00  0.00     0.029 A 
HETATM   19  C   UNL     1       2.865   2.080   0.469  1.00  0.00     0.023 A 
HETATM   20  C   UNL     1       2.359   3.711  -1.231  1.00  0.00     0.063 A 
HETATM   21  C   UNL     1       1.493   1.791   0.570  1.00  0.00    -0.061 A 
HETATM   22  C   UNL     1       1.004   0.772   1.559  1.00  0.00     0.048 C 
HETATM   23  C   UNL     1       0.574   2.486  -0.227  1.00  0.00     0.009 A 
HETATM   24  C   UNL     1       0.988   3.457  -1.145  1.00  0.00     0.032 A 
HETATM   25  N   UNL     1       3.073   4.578  -2.010  1.00  0.00    -0.277 N 
HETATM   26  H   UNL     1       2.709   5.224  -2.701  1.00  0.00     0.189 HD
HETATM   27  N   UNL     1       4.401   4.541  -1.809  1.00  0.00    -0.168 NA
ENDBRANCH   1  17
TORSDOF 4
