REMARK  9 active torsions:
REMARK  status: ('A' for Active; 'I' for Inactive)
REMARK    1  A    between atoms: C_9  and  O_10 
REMARK    2  A    between atoms: O_10  and  C_11 
REMARK    3  A    between atoms: C_22  and  C_23 
REMARK    4  A    between atoms: N_30  and  C_31 
REMARK    5  A    between atoms: C_31  and  C_32 
REMARK    6  A    between atoms: C_32  and  O_33 
REMARK    7  A    between atoms: O_33  and  C_34 
REMARK    8  A    between atoms: C_35  and  C_36 
REMARK    9  A    between atoms: C_36  and  C_37 
ROOT
HETATM    1  H   UNL     1       0.870   0.007   0.137  1.00  0.00     0.188 HD
HETATM    2  N   UNL     1       1.868  -0.224   0.152  1.00  0.00    -0.282 NA
HETATM    3  C   UNL     1       2.528   0.806   0.596  1.00  0.00     0.155 C 
HETATM    4  N   UNL     1       1.940   2.015   0.894  1.00  0.00    -0.230 N 
HETATM    5  C   UNL     1       2.677   3.064   1.415  1.00  0.00     0.195 A 
HETATM    6  N   UNL     1       3.916   3.058   1.759  1.00  0.00    -0.183 NA
HETATM    7  N   UNL     1       0.615   2.337   0.590  1.00  0.00    -0.186 NA
HETATM    8  C   UNL     1       0.337   3.685   0.807  1.00  0.00     0.094 A 
HETATM    9  C   UNL     1      -0.784   4.330   0.455  1.00  0.00     0.175 C 
HETATM   10  S   UNL     1       1.701   4.539   1.548  1.00  0.00    -0.035 SA
HETATM   11  C   UNL     1       4.016   0.769   0.817  1.00  0.00     0.082 C 
HETATM   12  C   UNL     1       4.616   1.869   1.664  1.00  0.00     0.283 C 
HETATM   13  O   UNL     1       5.666   1.711   2.273  1.00  0.00    -0.265 OA
HETATM   14  C   UNL     1       4.710  -0.220   0.220  1.00  0.00     0.034 C 
HETATM   15  H   UNL     1       0.291   2.035  -0.329  1.00  0.00     0.154 HD
ENDROOT
BRANCH  14  16
HETATM   16  C   UNL     1       6.123  -0.412   0.138  1.00  0.00    -0.007 A 
HETATM   17  C   UNL     1       6.813  -1.659   0.131  1.00  0.00     0.002 A 
HETATM   18  C   UNL     1       8.175  -1.386  -0.072  1.00  0.00     0.045 A 
HETATM   19  C   UNL     1       6.397  -3.004   0.266  1.00  0.00     0.014 A 
HETATM   20  C   UNL     1       9.115  -2.428  -0.153  1.00  0.00     0.030 A 
HETATM   21  N   UNL     1       8.301  -0.013  -0.164  1.00  0.00    -0.353 N 
HETATM   22  C   UNL     1       8.677  -3.748  -0.010  1.00  0.00     0.002 A 
HETATM   23  C   UNL     1       7.335  -4.036   0.198  1.00  0.00     0.001 A 
HETATM   24  C   UNL     1       7.058   0.573  -0.072  1.00  0.00     0.103 A 
BRANCH  21  25
HETATM   25  C   UNL     1       9.497   0.772  -0.450  1.00  0.00     0.155 C 
BRANCH  25  26
HETATM   26  C   UNL     1      10.754   0.440   0.355  1.00  0.00     0.196 C 
BRANCH  26  27
HETATM   27  O   UNL     1      11.602  -0.347  -0.484  1.00  0.00    -0.349 OA
BRANCH  27  28
HETATM   28  C   UNL     1      12.834  -0.718  -0.028  1.00  0.00     0.075 A 
HETATM   29  C   UNL     1      13.568  -1.562  -0.885  1.00  0.00    -0.021 A 
HETATM   30  C   UNL     1      14.860  -1.966  -0.511  1.00  0.00     0.010 A 
HETATM   31  C   UNL     1      15.409  -1.553   0.701  1.00  0.00     0.001 A 
HETATM   32  C   UNL     1      14.674  -0.730   1.549  1.00  0.00     0.003 A 
HETATM   33  C   UNL     1      13.390  -0.312   1.188  1.00  0.00     0.037 A 
BRANCH  29  34
HETATM   34  C   UNL     1      12.998  -2.038  -2.207  1.00  0.00     0.067 C 
BRANCH  34  35
HETATM   35  C   UNL     1      13.163  -1.122  -3.392  1.00  0.00    -0.032 C 
HETATM   36  C   UNL     1      13.780   0.067  -3.436  1.00  0.00     0.007 C 
ENDBRANCH  34  35
ENDBRANCH  29  34
ENDBRANCH  27  28
ENDBRANCH  26  27
ENDBRANCH  25  26
ENDBRANCH  21  25
ENDBRANCH  14  16
BRANCH   9  37
HETATM   37  O   UNL     1      -0.970   5.679   0.656  1.00  0.00    -0.320 OA
BRANCH  37  38
HETATM   38  C   UNL     1      -2.117   6.271   0.179  1.00  0.00     0.081 A 
HETATM   39  C   UNL     1      -2.770   7.184   1.022  1.00  0.00    -0.028 A 
HETATM   40  C   UNL     1      -2.244   7.480   2.398  1.00  0.00     0.051 C 
HETATM   41  C   UNL     1      -3.899   7.862   0.543  1.00  0.00     0.009 A 
HETATM   42  C   UNL     1      -4.370   7.630  -0.751  1.00  0.00     0.001 A 
HETATM   43  C   UNL     1      -3.707   6.732  -1.585  1.00  0.00     0.003 A 
HETATM   44  C   UNL     1      -2.573   6.061  -1.127  1.00  0.00     0.038 A 
ENDBRANCH  37  38
ENDBRANCH   9  37
TORSDOF 9
