REMARK  9 active torsions:
REMARK  status: ('A' for Active; 'I' for Inactive)
REMARK    1  A    between atoms: O_2  and  C_3 
REMARK    2  A    between atoms: C_6  and  C_7 
REMARK    3  A    between atoms: C_13  and  C_14 
REMARK       I    between atoms: C_14  and  N_15 
REMARK    4  A    between atoms: N_15  and  N_16 
REMARK    5  A    between atoms: N_16  and  C_17 
REMARK    6  A    between atoms: C_17  and  N_18 
REMARK    7  A    between atoms: N_18  and  C_19 
REMARK    8  A    between atoms: C_19  and  C_20 
REMARK    9  A    between atoms: C_27  and  C_28 
ROOT
HETATM    1  C   UNL     1       5.550  -3.772   3.257  1.00  0.00     0.118 C 
HETATM    2  N   UNL     1       5.419  -5.098   2.655  1.00  0.00    -0.365 N 
HETATM    3  C   UNL     1       6.125  -6.110   3.227  1.00  0.00     0.138 A 
HETATM    4  N   UNL     1       7.266  -5.828   3.945  1.00  0.00    -0.240 N 
HETATM    5  N   UNL     1       7.770  -6.892   4.588  1.00  0.00    -0.181 NA
HETATM    6  C   UNL     1       7.018  -7.900   4.143  1.00  0.00     0.160 A 
HETATM    7  C   UNL     1       5.961  -7.481   3.292  1.00  0.00     0.098 A 
HETATM    8  C   UNL     1       7.787  -4.492   4.185  1.00  0.00     0.221 C 
HETATM    9  C   UNL     1       7.047  -3.440   3.336  1.00  0.00     0.066 C 
HETATM   10  H   UNL     1       4.498  -5.305   2.259  1.00  0.00     0.161 HD
ENDROOT
BRANCH   7  11
HETATM   11  C   UNL     1       4.951  -8.302   2.648  1.00  0.00     0.275 C 
HETATM   12  N   UNL     1       4.771  -9.538   3.249  1.00  0.00    -0.263 N 
HETATM   13  H   UNL     1       5.048  -9.696   4.214  1.00  0.00     0.190 HD
HETATM   14  O   UNL     1       4.321  -7.953   1.653  1.00  0.00    -0.266 OA
BRANCH  12  15
HETATM   15  N   UNL     1       3.831 -10.440   2.724  1.00  0.00    -0.274 N 
HETATM   16  H   UNL     1       3.565 -10.247   1.757  1.00  0.00     0.189 HD
BRANCH  15  17
HETATM   17  C   UNL     1       2.841 -10.958   3.525  1.00  0.00     0.186 C 
HETATM   18  S   UNL     1       2.580 -10.562   5.128  1.00  0.00    -0.040 SA
BRANCH  17  19
HETATM   19  N   UNL     1       2.063 -11.922   2.952  1.00  0.00    -0.360 N 
HETATM   20  H   UNL     1       1.323 -12.272   3.548  1.00  0.00     0.162 HD
BRANCH  19  21
HETATM   21  C   UNL     1       2.473 -12.807   1.873  1.00  0.00     0.187 C 
BRANCH  21  22
HETATM   22  C   UNL     1       1.994 -12.296   0.570  1.00  0.00     0.070 A 
HETATM   23  O   UNL     1       0.671 -12.476   0.289  1.00  0.00    -0.325 OA
HETATM   24  C   UNL     1       0.458 -11.974  -0.954  1.00  0.00     0.142 A 
HETATM   25  C   UNL     1       1.627 -11.479  -1.481  1.00  0.00     0.027 A 
HETATM   26  C   UNL     1       2.623 -11.689  -0.498  1.00  0.00     0.036 A 
ENDBRANCH  21  22
ENDBRANCH  19  21
ENDBRANCH  17  19
ENDBRANCH  15  17
ENDBRANCH  12  15
ENDBRANCH   7  11
BRANCH   1  27
HETATM   27  C   UNL     1       4.745  -2.737   2.497  1.00  0.00    -0.035 A 
HETATM   28  C   UNL     1       3.538  -2.270   3.041  1.00  0.00     0.012 A 
HETATM   29  C   UNL     1       2.818  -1.250   2.414  1.00  0.00     0.037 A 
HETATM   30  C   UNL     1       3.289  -0.671   1.237  1.00  0.00     0.068 A 
HETATM   31  C   UNL     1       4.453  -1.167   0.652  1.00  0.00     0.037 A 
HETATM   32  C   UNL     1       5.170  -2.199   1.273  1.00  0.00     0.012 A 
BRANCH  30  33
HETATM   33  O   UNL     1       2.523   0.346   0.741  1.00  0.00    -0.356 OA
HETATM   34  C   UNL     1       3.197   1.274  -0.102  1.00  0.00     0.210 C 
ENDBRANCH  30  33
ENDBRANCH   1  27
BRANCH   8  35
HETATM   35  C   UNL     1       9.271  -4.424   3.897  1.00  0.00     0.409 C 
HETATM   36  F   UNL     1       9.568  -4.775   2.625  1.00  0.00    -0.169 F 
HETATM   37  F   UNL     1       9.708  -3.145   4.056  1.00  0.00    -0.169 F 
HETATM   38  F   UNL     1      10.018  -5.180   4.727  1.00  0.00    -0.169 F 
ENDBRANCH   8  35
TORSDOF 9
