REMARK  2 active torsions:
REMARK  status: ('A' for Active; 'I' for Inactive)
REMARK    1  A    between atoms: C_8  and  S_9 
REMARK    2  A    between atoms: S_9  and  C_10 
ROOT
HETATM    1  C   UNL     1       5.828   3.584   7.704  1.00  0.00     0.002 A 
HETATM    2  C   UNL     1       5.464   2.951   6.515  1.00  0.00     0.034 A 
HETATM    3  C   UNL     1       4.405   3.416   5.745  1.00  0.00     0.087 A 
HETATM    4  C   UNL     1       3.679   4.555   6.187  1.00  0.00     0.087 A 
HETATM    5  N   UNL     1       2.638   5.040   5.483  1.00  0.00    -0.232 NA
HETATM    6  C   UNL     1       2.290   4.359   4.372  1.00  0.00     0.164 A 
HETATM    7 CL   UNL     1       0.964   5.037   3.522  1.00  0.00    -0.059 Cl
HETATM    8  C   UNL     1       3.000   3.253   3.937  1.00  0.00     0.165 A 
HETATM    9  N   UNL     1       4.090   2.784   4.594  1.00  0.00    -0.234 NA
HETATM   10  C   UNL     1       4.058   5.180   7.368  1.00  0.00     0.034 A 
HETATM   11  C   UNL     1       5.125   4.704   8.129  1.00  0.00     0.002 A 
ENDROOT
BRANCH   8  12
HETATM   12  S   UNL     1       2.592   2.321   2.468  1.00  0.00     0.078 S 
HETATM   13  O   UNL     1       2.774   0.872   2.811  1.00  0.00    -0.251 OA
BRANCH  12  14
HETATM   14  C   UNL     1       3.993   2.742   1.385  1.00  0.00     0.112 C 
HETATM   15  C   UNL     1       5.300   2.094   1.847  1.00  0.00     0.250 C 
HETATM   16  N   UNL     1       6.387   2.403   0.847  1.00  0.00    -0.074 N 
HETATM   17  H   UNL     1       6.183   1.930  -0.046  1.00  0.00     0.277 HD
HETATM   18  H   UNL     1       7.263   1.976   1.182  1.00  0.00     0.277 HD
HETATM   19  C   UNL     1       6.608   3.863   0.623  1.00  0.00     0.232 C 
HETATM   20  C   UNL     1       5.305   4.507   0.164  1.00  0.00     0.029 C 
HETATM   21  C   UNL     1       4.155   4.241   1.141  1.00  0.00     0.021 C 
ENDBRANCH  12  14
ENDBRANCH   8  12
TORSDOF 2
