REMARK  6 active torsions:
REMARK  status: ('A' for Active; 'I' for Inactive)
REMARK    1  A    between atoms: C_9  and  C_10 
REMARK       I    between atoms: C_10  and  N_11 
REMARK    2  A    between atoms: N_11  and  C_12 
REMARK    3  A    between atoms: C_12  and  C_13 
REMARK    4  A    between atoms: C_13  and  O_14 
REMARK    5  A    between atoms: C_13  and  C_15 
REMARK    6  A    between atoms: C_18  and  O_19 
ROOT
HETATM    1  C   UNL     1       1.674  -0.685   0.315  1.00  0.00     0.258 C 
HETATM    2  N   UNL     1       2.073  -1.703   1.155  1.00  0.00    -0.350 N 
HETATM    3  O   UNL     1       1.984  -0.645  -0.872  1.00  0.00    -0.267 OA
HETATM    4  H   UNL     1       1.660  -1.701   2.087  1.00  0.00     0.163 HD
ENDROOT
BRANCH   2   5
HETATM    5  C   UNL     1       2.709  -2.942   0.678  1.00  0.00     0.114 C 
HETATM    6  C   UNL     1       1.719  -3.747  -0.166  1.00  0.00     0.035 C 
BRANCH   5   7
HETATM    7  C   UNL     1       4.073  -2.669  -0.024  1.00  0.00     0.173 C 
BRANCH   7   8
HETATM    8  O   UNL     1       4.974  -2.105   0.945  1.00  0.00    -0.389 OA
HETATM    9  H   UNL     1       4.525  -1.306   1.272  1.00  0.00     0.210 HD
ENDBRANCH   7   8
BRANCH   7  10
HETATM   10  C   UNL     1       4.722  -3.891  -0.639  1.00  0.00    -0.028 A 
HETATM   11  C   UNL     1       4.588  -4.121  -2.017  1.00  0.00     0.012 A 
HETATM   12  C   UNL     1       5.161  -5.247  -2.610  1.00  0.00     0.037 A 
HETATM   13  C   UNL     1       5.883  -6.163  -1.845  1.00  0.00     0.068 A 
HETATM   14  C   UNL     1       6.017  -5.948  -0.473  1.00  0.00     0.037 A 
HETATM   15  C   UNL     1       5.438  -4.821   0.126  1.00  0.00     0.012 A 
BRANCH  13  16
HETATM   16  O   UNL     1       6.396  -7.215  -2.552  1.00  0.00    -0.356 OA
HETATM   17  C   UNL     1       7.273  -8.089  -1.854  1.00  0.00     0.210 C 
ENDBRANCH  13  16
ENDBRANCH   7  10
ENDBRANCH   5   7
ENDBRANCH   2   5
BRANCH   1  18
HETATM   18  C   UNL     1       0.852   0.345   0.922  1.00  0.00     0.105 A 
HETATM   19  C   UNL     1       0.307   0.365   2.195  1.00  0.00     0.169 A 
HETATM   20  N   UNL     1       0.384  -0.533   3.230  1.00  0.00    -0.233 NA
HETATM   21  N   UNL     1      -0.439   1.546   2.287  1.00  0.00    -0.219 N 
HETATM   22  C   UNL     1      -0.288  -0.234   4.306  1.00  0.00     0.035 A 
HETATM   23  C   UNL     1      -0.244  -1.185   5.474  1.00  0.00     0.070 C 
HETATM   24  C   UNL     1      -1.119   0.998   4.487  1.00  0.00     0.053 A 
HETATM   25  C   UNL     1      -1.158   1.853   3.450  1.00  0.00     0.036 A 
HETATM   26  C   UNL     1      -1.948   3.125   3.473  1.00  0.00     0.070 C 
HETATM   27  N   UNL     1      -0.359   2.277   1.149  1.00  0.00    -0.170 NA
HETATM   28  C   UNL     1       0.407   1.555   0.326  1.00  0.00     0.071 A 
HETATM   29  C   UNL     1       0.698   2.057  -1.042  1.00  0.00     0.073 C 
ENDBRANCH   1  18
TORSDOF 6
