REMARK  2 active torsions:
REMARK  status: ('A' for Active; 'I' for Inactive)
REMARK    1  A    between atoms: C_4  and  C_5 
REMARK    2  A    between atoms: C_10  and  C_11 
ROOT
HETATM    1  C   UNL     1       7.296  -0.345   0.204  1.00  0.00     0.202 C 
HETATM    2  N   UNL     1       6.243  -1.296   0.517  1.00  0.00    -0.331 N 
HETATM    3  C   UNL     1       4.896  -0.983   0.082  1.00  0.00     0.155 C 
HETATM    4  C   UNL     1       6.549  -2.595   0.893  1.00  0.00     0.256 C 
HETATM    5  O   UNL     1       5.739  -3.519   0.879  1.00  0.00    -0.267 OA
HETATM    6  C   UNL     1       7.939  -2.842   1.336  1.00  0.00     0.053 A 
HETATM    7  C   UNL     1       8.798  -1.745   1.461  1.00  0.00     0.026 A 
HETATM    8  N   UNL     1       8.339  -0.443   1.217  1.00  0.00    -0.266 NA
HETATM    9  C   UNL     1       8.367  -4.138   1.649  1.00  0.00     0.019 A 
HETATM   10  C   UNL     1       9.663  -4.342   2.118  1.00  0.00     0.001 A 
HETATM   11  C   UNL     1      10.515  -3.252   2.289  1.00  0.00     0.002 A 
HETATM   12  C   UNL     1      10.079  -1.959   1.980  1.00  0.00     0.024 A 
HETATM   13  H   UNL     1       9.094   0.210   1.023  1.00  0.00     0.130 HD
ENDROOT
BRANCH   1  14
HETATM   14  C   UNL     1       7.754  -0.484  -1.225  1.00  0.00     0.029 A 
HETATM   15  C   UNL     1       8.335   0.531  -2.039  1.00  0.00     0.121 A 
HETATM   16  N   UNL     1       8.638   0.084  -3.266  1.00  0.00    -0.172 NA
HETATM   17  N   UNL     1       8.277  -1.206  -3.241  1.00  0.00    -0.288 N 
HETATM   18  H   UNL     1       8.423  -1.765  -4.076  1.00  0.00     0.188 HD
HETATM   19  C   UNL     1       7.746  -1.596  -2.051  1.00  0.00     0.122 A 
BRANCH  15  20
HETATM   20  C   UNL     1       8.608   1.944  -1.633  1.00  0.00     0.106 A 
HETATM   21  O   UNL     1       8.346   2.467  -0.396  1.00  0.00    -0.313 OA
HETATM   22  C   UNL     1       8.713   3.778  -0.417  1.00  0.00     0.050 A 
HETATM   23  C   UNL     1       8.494   4.549   0.824  1.00  0.00     0.076 C 
HETATM   24  C   UNL     1       9.226   4.106  -1.652  1.00  0.00     0.035 A 
HETATM   25  C   UNL     1       9.161   2.927  -2.433  1.00  0.00     0.042 A 
ENDBRANCH  15  20
ENDBRANCH   1  14
TORSDOF 2
