REMARK  4 active torsions:
REMARK  status: ('A' for Active; 'I' for Inactive)
REMARK       I    between atoms: C_2  and  N_3 
REMARK    1  A    between atoms: N_3  and  C_4 
REMARK    2  A    between atoms: C_10  and  C_11 
REMARK    3  A    between atoms: C_14  and  C_15 
REMARK    4  A    between atoms: C_22  and  N_23 
REMARK       I    between atoms: N_23  and  C_24 
ROOT
HETATM    1  C   UNL     1      -1.047   3.951   5.926  1.00  0.00     0.010 A 
HETATM    2  C   UNL     1      -1.740   2.927   6.587  1.00  0.00     0.016 A 
HETATM    3  C   UNL     1      -2.683   3.215   7.579  1.00  0.00     0.017 A 
HETATM    4  C   UNL     1      -2.955   4.539   7.945  1.00  0.00     0.017 A 
HETATM    5  C   UNL     1      -2.252   5.564   7.295  1.00  0.00     0.017 A 
HETATM    6  C   UNL     1      -1.309   5.276   6.297  1.00  0.00     0.016 A 
ENDROOT
BRANCH   1   7
HETATM    7  C   UNL     1      -0.081   3.592   4.883  1.00  0.00     0.139 A 
HETATM    8  N   UNL     1       0.408   4.461   3.933  1.00  0.00    -0.338 N 
HETATM    9  C   UNL     1       1.256   3.778   3.100  1.00  0.00     0.063 A 
HETATM   10  H   UNL     1       0.157   5.433   3.845  1.00  0.00     0.167 HD
HETATM   11  C   UNL     1       1.252   2.483   3.598  1.00  0.00     0.088 A 
HETATM   12  C   UNL     1       1.999   4.164   1.986  1.00  0.00     0.034 A 
HETATM   13  C   UNL     1       2.031   1.496   2.971  1.00  0.00     0.063 A 
HETATM   14  N   UNL     1       0.425   2.387   4.688  1.00  0.00    -0.228 NA
HETATM   15  C   UNL     1       2.793   1.842   1.849  1.00  0.00     0.037 A 
HETATM   16  C   UNL     1       2.767   3.164   1.373  1.00  0.00     0.032 A 
BRANCH  15  17
HETATM   17  N   UNL     1       3.609   0.928   1.145  1.00  0.00    -0.327 N 
HETATM   18  C   UNL     1       3.794  -0.416   1.414  1.00  0.00     0.218 C 
HETATM   19  C   UNL     1       4.743  -1.080   0.446  1.00  0.00     0.117 C 
HETATM   20  O   UNL     1       3.263  -1.070   2.304  1.00  0.00    -0.274 OA
HETATM   21  H   UNL     1       4.108   1.306   0.350  1.00  0.00     0.169 HD
ENDBRANCH  15  17
ENDBRANCH   1   7
BRANCH   4  22
HETATM   22  C   UNL     1      -3.939   4.868   8.974  1.00  0.00     0.180 A 
HETATM   23  O   UNL     1      -4.629   3.812   9.519  1.00  0.00    -0.289 OA
HETATM   24  C   UNL     1      -5.467   4.394  10.420  1.00  0.00     0.107 A 
HETATM   25  C   UNL     1      -5.250   5.759  10.383  1.00  0.00     0.095 A 
HETATM   26  C   UNL     1      -6.387   3.765  11.243  1.00  0.00     0.042 A 
HETATM   27  N   UNL     1      -4.278   6.052   9.458  1.00  0.00    -0.221 NA
HETATM   28  C   UNL     1      -5.999   6.588  11.230  1.00  0.00     0.064 A 
HETATM   29  C   UNL     1      -6.949   6.001  12.089  1.00  0.00     0.037 A 
HETATM   30  C   UNL     1      -7.130   4.609  12.084  1.00  0.00     0.032 A 
BRANCH  29  31
HETATM   31  N   UNL     1      -7.675   6.880  12.923  1.00  0.00    -0.327 N 
HETATM   32  C   UNL     1      -8.660   6.555  13.838  1.00  0.00     0.218 C 
HETATM   33  C   UNL     1      -9.217   7.760  14.557  1.00  0.00     0.117 C 
HETATM   34  O   UNL     1      -9.096   5.436  14.082  1.00  0.00    -0.274 OA
HETATM   35  H   UNL     1      -7.446   7.862  12.830  1.00  0.00     0.169 HD
ENDBRANCH  29  31
ENDBRANCH   4  22
TORSDOF 4
