REMARK  7 active torsions:
REMARK  status: ('A' for Active; 'I' for Inactive)
REMARK    1  A    between atoms: C_2  and  C_3 
REMARK    2  A    between atoms: C_3  and  N_4 
REMARK    3  A    between atoms: C_3  and  C_22 
REMARK       I    between atoms: N_4  and  C_5 
REMARK       I    between atoms: C_5  and  N_6 
REMARK    4  A    between atoms: N_6  and  C_7 
REMARK    5  A    between atoms: C_7  and  C_8 
REMARK    6  A    between atoms: C_11  and  N_12 
REMARK       I    between atoms: N_12  and  C_13 
REMARK       I    between atoms: C_13  and  N_14 
REMARK    7  A    between atoms: N_14  and  C_15 
ROOT
HETATM    1  N   UNL     1       6.208   0.014  -1.467  1.00  0.00    -0.331 N 
HETATM    2  C   UNL     1       4.866  -0.178  -1.657  1.00  0.00     0.317 C 
HETATM    3  N   UNL     1       4.310   0.852  -2.360  1.00  0.00    -0.339 N 
HETATM    4  O   UNL     1       4.245  -1.146  -1.237  1.00  0.00    -0.247 OA
HETATM    5  H   UNL     1       6.504   0.974  -1.541  1.00  0.00     0.165 HD
HETATM    6  H   UNL     1       4.925   1.350  -2.986  1.00  0.00     0.164 HD
ENDROOT
BRANCH   1   7
HETATM    7  C   UNL     1       6.994  -0.844  -0.582  1.00  0.00     0.159 C 
BRANCH   7   8
HETATM    8  C   UNL     1       8.297  -0.153  -0.095  1.00  0.00     0.008 C 
HETATM    9  C   UNL     1       7.978   0.964   0.907  1.00  0.00     0.012 C 
HETATM   10  C   UNL     1       9.171   0.412  -1.224  1.00  0.00     0.012 C 
ENDBRANCH   7   8
BRANCH   7  11
HETATM   11  C   UNL     1       7.264  -2.169  -1.253  1.00  0.00     0.128 A 
HETATM   12  N   UNL     1       8.429  -2.707  -1.563  1.00  0.00    -0.231 NA
HETATM   13  C   UNL     1       8.143  -3.942  -2.092  1.00  0.00     0.085 A 
HETATM   14  C   UNL     1       6.773  -4.172  -2.106  1.00  0.00     0.062 A 
HETATM   15  C   UNL     1       9.008  -4.930  -2.581  1.00  0.00     0.034 A 
HETATM   16  N   UNL     1       6.238  -3.034  -1.566  1.00  0.00    -0.341 N 
HETATM   17  C   UNL     1       6.197  -5.347  -2.590  1.00  0.00     0.032 A 
HETATM   18  H   UNL     1       5.254  -2.826  -1.429  1.00  0.00     0.167 HD
HETATM   19  C   UNL     1       7.076  -6.324  -3.073  1.00  0.00     0.002 A 
HETATM   20  C   UNL     1       8.458  -6.123  -3.070  1.00  0.00     0.002 A 
ENDBRANCH   7  11
ENDBRANCH   1   7
BRANCH   3  21
HETATM   21  C   UNL     1       2.905   0.853  -2.700  1.00  0.00     0.162 C 
BRANCH  21  22
HETATM   22  C   UNL     1       2.419   2.268  -2.875  1.00  0.00    -0.040 A 
HETATM   23  C   UNL     1       2.124   2.788  -4.139  1.00  0.00     0.011 A 
HETATM   24  C   UNL     1       1.707   4.118  -4.284  1.00  0.00     0.030 A 
HETATM   25  C   UNL     1       1.600   4.954  -3.171  1.00  0.00     0.036 A 
HETATM   26  C   UNL     1       1.859   4.423  -1.904  1.00  0.00     0.030 A 
HETATM   27  C   UNL     1       2.275   3.097  -1.756  1.00  0.00     0.011 A 
BRANCH  25  28
HETATM   28  N   UNL     1       1.202   6.302  -3.220  1.00  0.00    -0.309 N 
HETATM   29  C   UNL     1       1.106   7.210  -4.232  1.00  0.00     0.321 C 
HETATM   30  N   UNL     1       1.732   6.907  -5.402  1.00  0.00    -0.339 N 
HETATM   31  O   UNL     1       0.522   8.270  -4.021  1.00  0.00    -0.247 OA
HETATM   32  H   UNL     1       2.537   6.312  -5.275  1.00  0.00     0.164 HD
HETATM   33  H   UNL     1       0.895   6.713  -2.347  1.00  0.00     0.170 HD
BRANCH  30  34
HETATM   34  C   UNL     1       1.809   7.816  -6.541  1.00  0.00     0.078 C 
HETATM   35  C   UNL     1       0.438   8.245  -7.061  1.00  0.00     0.032 C 
HETATM   36  C   UNL     1       2.700   9.020  -6.246  1.00  0.00     0.032 C 
ENDBRANCH  30  34
ENDBRANCH  25  28
ENDBRANCH  21  22
ENDBRANCH   3  21
TORSDOF 7
