REMARK  10 active torsions:
REMARK  status: ('A' for Active; 'I' for Inactive)
REMARK    1  A    between atoms: O_2  and  C_3 
REMARK    2  A    between atoms: C_6  and  C_7 
REMARK    3  A    between atoms: C_7  and  C_8 
REMARK    4  A    between atoms: C_8  and  N_9 
REMARK    5  A    between atoms: N_12  and  C_13 
REMARK    6  A    between atoms: C_16  and  O_17 
REMARK    7  A    between atoms: C_23  and  C_24 
REMARK    8  A    between atoms: C_24  and  C_25 
REMARK       I    between atoms: C_25  and  N_26 
REMARK    9  A    between atoms: N_26  and  C_27 
REMARK   10  A    between atoms: C_30  and  O_31 
ROOT
HETATM    1  N   UNL     1       7.390   6.205  -2.276  1.00  0.00    -0.319 N 
HETATM    2  C   UNL     1       6.769   7.348  -1.756  1.00  0.00     0.332 C 
HETATM    3  O   UNL     1       6.038   7.311  -0.777  1.00  0.00    -0.246 OA
HETATM    4  N   UNL     1       7.074   8.421  -2.568  1.00  0.00    -0.232 N 
HETATM    5  C   UNL     1       7.656   7.939  -3.713  1.00  0.00     0.256 C 
HETATM    6  O   UNL     1       7.893   8.519  -4.770  1.00  0.00    -0.270 OA
HETATM    7  C   UNL     1       8.095   6.494  -3.509  1.00  0.00     0.190 C 
ENDROOT
BRANCH   7   8
HETATM    8  C   UNL     1       9.612   6.505  -3.330  1.00  0.00     0.138 C 
BRANCH   8   9
HETATM    9  C   UNL     1      10.409   6.337  -4.615  1.00  0.00     0.224 C 
HETATM   10  N   UNL     1      10.101   7.234  -5.616  1.00  0.00    -0.327 N 
HETATM   11  H   UNL     1       9.248   7.787  -5.533  1.00  0.00     0.169 HD
HETATM   12  O   UNL     1      11.293   5.485  -4.669  1.00  0.00    -0.273 OA
BRANCH  10  13
HETATM   13  C   UNL     1      10.839   7.499  -6.787  1.00  0.00     0.034 A 
HETATM   14  C   UNL     1      10.211   8.269  -7.772  1.00  0.00     0.032 A 
HETATM   15  C   UNL     1      10.897   8.631  -8.933  1.00  0.00     0.039 A 
HETATM   16  C   UNL     1      12.231   8.268  -9.104  1.00  0.00     0.068 A 
HETATM   17  C   UNL     1      12.857   7.484  -8.135  1.00  0.00     0.039 A 
HETATM   18  C   UNL     1      12.160   7.094  -6.983  1.00  0.00     0.032 A 
BRANCH  16  19
HETATM   19  O   UNL     1      12.814   8.706 -10.260  1.00  0.00    -0.356 OA
HETATM   20  C   UNL     1      14.213   8.959 -10.172  1.00  0.00     0.210 C 
ENDBRANCH  16  19
ENDBRANCH  10  13
ENDBRANCH   8   9
ENDBRANCH   7   8
BRANCH   1  21
HETATM   21  C   UNL     1       6.909   4.870  -1.924  1.00  0.00     0.133 C 
BRANCH  21  22
HETATM   22  C   UNL     1       7.931   3.745  -2.098  1.00  0.00     0.058 C 
BRANCH  22  23
HETATM   23  C   UNL     1       7.386   2.416  -1.635  1.00  0.00    -0.057 A 
HETATM   24  C   UNL     1       6.508   1.680  -2.441  1.00  0.00     0.010 A 
HETATM   25  C   UNL     1       5.992   0.454  -2.001  1.00  0.00     0.037 A 
HETATM   26  C   UNL     1       6.349  -0.050  -0.751  1.00  0.00     0.068 A 
HETATM   27  C   UNL     1       7.218   0.686   0.056  1.00  0.00     0.037 A 
HETATM   28  C   UNL     1       7.734   1.910  -0.380  1.00  0.00     0.010 A 
BRANCH  26  29
HETATM   29  O   UNL     1       5.923  -1.229  -0.205  1.00  0.00    -0.356 OA
HETATM   30  C   UNL     1       5.085  -2.047  -1.011  1.00  0.00     0.210 C 
ENDBRANCH  26  29
ENDBRANCH  22  23
ENDBRANCH  21  22
ENDBRANCH   1  21
BRANCH   4  31
HETATM   31  C   UNL     1       6.781   9.794  -2.301  1.00  0.00     0.047 A 
HETATM   32  C   UNL     1       6.074  10.196  -1.159  1.00  0.00     0.033 A 
HETATM   33  C   UNL     1       5.867  11.553  -0.865  1.00  0.00     0.039 A 
HETATM   34  C   UNL     1       6.376  12.550  -1.690  1.00  0.00     0.068 A 
HETATM   35  C   UNL     1       7.058  12.178  -2.840  1.00  0.00     0.039 A 
HETATM   36  C   UNL     1       7.257  10.820  -3.137  1.00  0.00     0.033 A 
BRANCH  34  37
HETATM   37  O   UNL     1       6.139  13.830  -1.277  1.00  0.00    -0.356 OA
HETATM   38  C   UNL     1       6.904  14.850  -1.908  1.00  0.00     0.210 C 
ENDBRANCH  34  37
ENDBRANCH   4  31
TORSDOF 10
