REMARK  5 active torsions:
REMARK  status: ('A' for Active; 'I' for Inactive)
REMARK       I    between atoms: C_2  and  N_3 
REMARK    1  A    between atoms: N_3  and  C_4 
REMARK    2  A    between atoms: C_5  and  C_6 
REMARK    3  A    between atoms: C_15  and  C_16 
REMARK       I    between atoms: C_16  and  N_17 
REMARK    4  A    between atoms: N_17  and  C_18 
REMARK    5  A    between atoms: C_18  and  C_19 
ROOT
HETATM    1  C   UNL     1       4.446  -3.478   0.018  1.00  0.00     0.138 A 
HETATM    2  N   UNL     1       4.812  -4.686  -0.323  1.00  0.00    -0.240 NA
HETATM    3  C   UNL     1       5.997  -4.850  -1.061  1.00  0.00     0.084 A 
HETATM    4  C   UNL     1       6.802  -3.769  -1.438  1.00  0.00     0.065 A 
HETATM    5  N   UNL     1       6.424  -2.479  -1.064  1.00  0.00    -0.320 N 
HETATM    6  C   UNL     1       5.291  -2.240  -0.328  1.00  0.00     0.275 A 
HETATM    7  O   UNL     1       4.980  -1.118   0.042  1.00  0.00    -0.266 OA
HETATM    8  C   UNL     1       6.391  -6.138  -1.426  1.00  0.00     0.035 A 
HETATM    9  C   UNL     1       7.569  -6.348  -2.158  1.00  0.00     0.019 A 
HETATM   10  C   UNL     1       8.362  -5.258  -2.538  1.00  0.00     0.034 A 
HETATM   11  C   UNL     1       7.975  -3.962  -2.166  1.00  0.00     0.049 A 
HETATM   12  H   UNL     1       6.999  -1.680  -1.293  1.00  0.00     0.169 HD
ENDROOT
BRANCH  10  13
HETATM   13  C   UNL     1       9.641  -5.402  -3.291  1.00  0.00     0.252 C 
HETATM   14  N   UNL     1       9.826  -6.551  -4.027  1.00  0.00    -0.353 N 
HETATM   15  H   UNL     1       9.144  -7.293  -4.020  1.00  0.00     0.163 HD
HETATM   16  O   UNL     1      10.473  -4.500  -3.248  1.00  0.00    -0.268 OA
BRANCH  14  17
HETATM   17  C   UNL     1      11.108  -6.814  -4.643  1.00  0.00     0.163 C 
BRANCH  17  18
HETATM   18  C   UNL     1      11.050  -7.967  -5.610  1.00  0.00    -0.019 A 
HETATM   19  C   UNL     1      10.978  -9.305  -5.191  1.00  0.00     0.042 A 
HETATM   20 CL   UNL     1      10.910  -9.731  -3.518  1.00  0.00    -0.084 Cl
HETATM   21  C   UNL     1      10.948 -10.344  -6.127  1.00  0.00     0.024 A 
HETATM   22  C   UNL     1      10.982 -10.061  -7.492  1.00  0.00     0.002 A 
HETATM   23  C   UNL     1      11.039  -8.739  -7.923  1.00  0.00     0.001 A 
HETATM   24  C   UNL     1      11.069  -7.700  -6.991  1.00  0.00     0.010 A 
ENDBRANCH  17  18
ENDBRANCH  14  17
ENDBRANCH  10  13
BRANCH   1  25
HETATM   25  C   UNL     1       3.187  -3.295   0.799  1.00  0.00     0.025 A 
HETATM   26  C   UNL     1       2.869  -4.157   1.875  1.00  0.00     0.047 A 
HETATM   27  C   UNL     1       1.675  -3.937   2.569  1.00  0.00     0.030 A 
HETATM   28  C   UNL     1       0.825  -2.880   2.225  1.00  0.00     0.002 A 
HETATM   29  C   UNL     1       1.148  -2.035   1.169  1.00  0.00     0.001 A 
HETATM   30  C   UNL     1       2.322  -2.246   0.450  1.00  0.00     0.016 A 
BRANCH  26  31
HETATM   31  N   UNL     1       3.737  -5.232   2.169  1.00  0.00    -0.327 N 
HETATM   32  C   UNL     1       3.898  -6.043   3.252  1.00  0.00     0.218 C 
HETATM   33  C   UNL     1       3.252  -5.717   4.568  1.00  0.00     0.117 C 
HETATM   34  O   UNL     1       4.631  -7.030   3.151  1.00  0.00    -0.274 OA
HETATM   35  H   UNL     1       4.374  -5.487   1.411  1.00  0.00     0.169 HD
ENDBRANCH  26  31
ENDBRANCH   1  25
TORSDOF 5
