REMARK  6 active torsions:
REMARK  status: ('A' for Active; 'I' for Inactive)
REMARK    1  A    between atoms: C_2  and  C_3 
REMARK    2  A    between atoms: C_8  and  C_9 
REMARK    3  A    between atoms: C_9  and  N_10 
REMARK    4  A    between atoms: N_10  and  C_12 
REMARK    5  A    between atoms: C_12  and  C_13 
REMARK       I    between atoms: C_13  and  N_14 
REMARK    6  A    between atoms: N_14  and  C_15 
ROOT
HETATM    1  N   UNL     1       2.225  -3.254  -1.472  1.00  0.00    -0.063 N 
HETATM    2  H   UNL     1       1.269  -3.228  -1.094  1.00  0.00     0.280 HD
HETATM    3  C   UNL     1       2.200  -4.030  -2.755  1.00  0.00     0.270 C 
ENDROOT
BRANCH   1   4
HETATM    4  C   UNL     1       3.052  -3.934  -0.376  1.00  0.00     0.277 C 
BRANCH   4   5
HETATM    5  C   UNL     1       2.217  -4.808   0.503  1.00  0.00     0.012 A 
HETATM    6  C   UNL     1       1.992  -4.791   1.929  1.00  0.00     0.071 A 
HETATM    7  N   UNL     1       1.128  -5.759   2.272  1.00  0.00    -0.178 NA
HETATM    8  N   UNL     1       0.875  -6.440   1.162  1.00  0.00    -0.288 N 
HETATM    9  H   UNL     1       0.273  -7.258   1.225  1.00  0.00     0.188 HD
HETATM   10  C   UNL     1       1.489  -5.908   0.071  1.00  0.00     0.120 A 
BRANCH   6  11
HETATM   11  C   UNL     1       2.522  -3.938   3.091  1.00  0.00    -0.004 C 
HETATM   12  C   UNL     1       3.279  -4.842   4.093  1.00  0.00     0.021 C 
HETATM   13  C   UNL     1       1.340  -3.266   3.829  1.00  0.00     0.021 C 
HETATM   14  C   UNL     1       3.492  -2.827   2.679  1.00  0.00     0.021 C 
ENDBRANCH   6  11
ENDBRANCH   4   5
ENDBRANCH   1   4
BRANCH   1  15
HETATM   15  C   UNL     1       2.657  -1.806  -1.729  1.00  0.00     0.337 C 
BRANCH  15  16
HETATM   16  C   UNL     1       2.330  -0.883  -0.556  1.00  0.00     0.248 C 
HETATM   17  N   UNL     1       0.968  -0.681  -0.394  1.00  0.00    -0.326 N 
HETATM   18  H   UNL     1       0.351  -0.895  -1.171  1.00  0.00     0.169 HD
HETATM   19  O   UNL     1       3.228  -0.486   0.177  1.00  0.00    -0.271 OA
BRANCH  17  20
HETATM   20  C   UNL     1       0.325  -0.119   0.732  1.00  0.00     0.040 A 
HETATM   21  C   UNL     1       0.985   0.285   1.893  1.00  0.00     0.072 A 
HETATM   22  C   UNL     1       0.253   0.768   2.980  1.00  0.00     0.121 A 
HETATM   23  F   UNL     1       0.903   1.132   4.092  1.00  0.00    -0.206 F 
HETATM   24  C   UNL     1      -1.128   0.864   2.937  1.00  0.00     0.084 A 
HETATM   25  C   UNL     1      -1.778   0.475   1.778  1.00  0.00     0.121 A 
HETATM   26  F   UNL     1      -3.113   0.552   1.708  1.00  0.00    -0.206 F 
HETATM   27  C   UNL     1      -1.070  -0.011   0.680  1.00  0.00     0.072 A 
ENDBRANCH  17  20
ENDBRANCH  15  16
ENDBRANCH   1  15
TORSDOF 6
