REMARK  10 active torsions:
REMARK  status: ('A' for Active; 'I' for Inactive)
REMARK    1  A    between atoms: C_4  and  N_5 
REMARK    2  A    between atoms: N_5  and  C_6 
REMARK    3  A    between atoms: C_6  and  N_7 
REMARK    4  A    between atoms: N_7  and  N_8 
REMARK       I    between atoms: N_8  and  C_9 
REMARK    5  A    between atoms: C_9  and  C_10 
REMARK    6  A    between atoms: C_10  and  O_11 
REMARK    7  A    between atoms: O_11  and  C_12 
REMARK    8  A    between atoms: C_22  and  C_23 
REMARK    9  A    between atoms: C_23  and  O_24 
REMARK   10  A    between atoms: C_27  and  C_28 
ROOT
HETATM    1  N   UNL     1       6.106   0.781   0.511  1.00  0.00    -0.228 NA
HETATM    2  H   UNL     1       5.958   1.774   0.672  1.00  0.00     0.136 HD
ENDROOT
BRANCH   1   3
HETATM    3  C   UNL     1       4.909   0.101   0.333  1.00  0.00     0.073 C 
HETATM    4  S   UNL     1       3.585   1.047   0.833  1.00  0.00    -0.081 SA
HETATM    5  C   UNL     1       2.498  -0.256   0.651  1.00  0.00    -0.007 C 
HETATM    6  C   UNL     1       1.079  -0.085   1.093  1.00  0.00     0.057 C 
HETATM    7  C   UNL     1       3.120  -1.355   0.074  1.00  0.00     0.005 C 
HETATM    8  C   UNL     1       4.528  -1.111  -0.214  1.00  0.00     0.080 C 
BRANCH   7   9
HETATM    9  C   UNL     1       2.387  -2.602  -0.130  1.00  0.00    -0.024 A 
HETATM   10  C   UNL     1       2.745  -3.738   0.609  1.00  0.00     0.012 A 
HETATM   11  C   UNL     1       2.051  -4.936   0.434  1.00  0.00     0.001 A 
HETATM   12  C   UNL     1       0.996  -5.004  -0.474  1.00  0.00     0.000 A 
HETATM   13  C   UNL     1       0.636  -3.877  -1.213  1.00  0.00     0.001 A 
HETATM   14  C   UNL     1       1.332  -2.678  -1.046  1.00  0.00     0.012 A 
ENDBRANCH   7   9
BRANCH   8  15
HETATM   15  C   UNL     1       5.415  -1.984  -0.983  1.00  0.00     0.296 C 
HETATM   16  O   UNL     1       6.638  -1.933  -0.922  1.00  0.00    -0.259 OA
BRANCH  15  17
HETATM   17  O   UNL     1       4.742  -2.830  -1.816  1.00  0.00    -0.322 OA
HETATM   18  C   UNL     1       5.578  -3.669  -2.612  1.00  0.00     0.213 C 
ENDBRANCH  15  17
ENDBRANCH   8  15
ENDBRANCH   1   3
BRANCH   1  19
HETATM   19  C   UNL     1       7.061   0.332   1.398  1.00  0.00     0.170 C 
HETATM   20  S   UNL     1       7.816   1.486   2.360  1.00  0.00    -0.045 SA
BRANCH  19  21
HETATM   21  N   UNL     1       7.270  -1.022   1.484  1.00  0.00    -0.278 N 
HETATM   22  H   UNL     1       7.302  -1.511   0.581  1.00  0.00     0.189 HD
BRANCH  21  23
HETATM   23  N   UNL     1       8.161  -1.543   2.440  1.00  0.00    -0.266 N 
HETATM   24  C   UNL     1       9.388  -2.029   2.031  1.00  0.00     0.260 C 
HETATM   25  O   UNL     1       9.696  -2.217   0.855  1.00  0.00    -0.269 OA
HETATM   26  H   UNL     1       8.048  -1.225   3.402  1.00  0.00     0.190 HD
BRANCH  24  27
HETATM   27  C   UNL     1      10.357  -2.308   3.179  1.00  0.00     0.280 C 
BRANCH  27  28
HETATM   28  O   UNL     1       9.693  -2.224   4.437  1.00  0.00    -0.340 OA
BRANCH  28  29
HETATM   29  C   UNL     1      10.371  -2.662   5.543  1.00  0.00     0.091 A 
HETATM   30  C   UNL     1       9.611  -2.883   6.706  1.00  0.00     0.068 A 
HETATM   31 CL   UNL     1       7.899  -2.630   6.714  1.00  0.00    -0.081 Cl
HETATM   32  C   UNL     1      10.214  -3.323   7.885  1.00  0.00     0.046 A 
HETATM   33  C   UNL     1      11.588  -3.538   7.910  1.00  0.00     0.012 A 
HETATM   34 BR   UNL     1      12.418  -4.134   9.500  1.00  0.00    -0.051 Br
HETATM   35  C   UNL     1      12.359  -3.314   6.771  1.00  0.00     0.022 A 
HETATM   36  C   UNL     1      11.752  -2.874   5.589  1.00  0.00     0.040 A 
ENDBRANCH  28  29
ENDBRANCH  27  28
ENDBRANCH  24  27
ENDBRANCH  21  23
ENDBRANCH  19  21
ENDBRANCH   1  19
TORSDOF 10
