REMARK  3 active torsions:
REMARK  status: ('A' for Active; 'I' for Inactive)
REMARK    1  A    between atoms: C_10  and  N_11 
REMARK       I    between atoms: N_11  and  C_12 
REMARK    2  A    between atoms: C_12  and  C_13 
REMARK    3  A    between atoms: C_18  and  N_19 
ROOT
HETATM    1  N   UNL     1       8.272   1.205  -1.784  1.00  0.00    -0.323 N 
HETATM    2  C   UNL     1       9.450   0.747  -2.337  1.00  0.00     0.258 C 
HETATM    3  O   UNL     1      10.384   1.420  -2.758  1.00  0.00    -0.267 OA
HETATM    4  H   UNL     1       7.606   0.503  -1.483  1.00  0.00     0.169 HD
ENDROOT
BRANCH   2   5
HETATM    5  C   UNL     1       9.622  -0.730  -2.312  1.00  0.00     0.056 A 
HETATM    6  C   UNL     1       8.637  -1.643  -2.692  1.00  0.00     0.050 A 
HETATM    7 CL   UNL     1       7.106  -1.174  -3.336  1.00  0.00    -0.083 Cl
HETATM    8  C   UNL     1       8.890  -3.008  -2.564  1.00  0.00     0.027 A 
HETATM    9  C   UNL     1      10.114  -3.461  -2.055  1.00  0.00     0.031 A 
HETATM   10  C   UNL     1      11.120  -2.566  -1.674  1.00  0.00     0.038 A 
HETATM   11  C   UNL     1      10.861  -1.197  -1.830  1.00  0.00     0.048 A 
BRANCH  10  12
HETATM   12  N   UNL     1      12.356  -3.011  -1.130  1.00  0.00    -0.318 N 
HETATM   13  C   UNL     1      12.644  -4.308  -0.676  1.00  0.00     0.224 C 
HETATM   14  O   UNL     1      11.945  -5.309  -0.702  1.00  0.00    -0.273 OA
HETATM   15  C   UNL     1      14.004  -4.275  -0.019  1.00  0.00     0.105 C 
HETATM   16  C   UNL     1      14.628  -3.011  -0.575  1.00  0.00     0.029 C 
HETATM   17  C   UNL     1      13.437  -2.106  -0.809  1.00  0.00     0.133 C 
ENDBRANCH  10  12
ENDBRANCH   2   5
BRANCH   1  18
HETATM   18  C   UNL     1       7.888   2.541  -1.545  1.00  0.00     0.035 A 
HETATM   19  C   UNL     1       8.657   3.649  -1.899  1.00  0.00     0.032 A 
HETATM   20  C   UNL     1       8.241   4.955  -1.602  1.00  0.00     0.033 A 
HETATM   21  C   UNL     1       7.027   5.113  -0.928  1.00  0.00     0.042 A 
HETATM   22  N   UNL     1       6.387   6.253  -0.497  1.00  0.00    -0.359 N 
HETATM   23  C   UNL     1       6.227   4.033  -0.567  1.00  0.00    -0.005 A 
HETATM   24  C   UNL     1       5.213   5.933   0.141  1.00  0.00     0.006 A 
HETATM   25  H   UNL     1       6.746   7.189  -0.624  1.00  0.00     0.166 HD
HETATM   26  C   UNL     1       4.326   6.963   0.734  1.00  0.00     0.068 C 
HETATM   27  C   UNL     1       5.086   4.559   0.098  1.00  0.00     0.038 A 
HETATM   28  C   UNL     1       6.660   2.731  -0.889  1.00  0.00     0.043 A 
ENDBRANCH   1  18
TORSDOF 3
