REMARK  4 active torsions:
REMARK  status: ('A' for Active; 'I' for Inactive)
REMARK    1  A    between atoms: C_4  and  C_5 
REMARK    2  A    between atoms: C_9  and  C_10 
REMARK       I    between atoms: C_10  and  N_11 
REMARK    3  A    between atoms: N_11  and  N_12 
REMARK    4  A    between atoms: C_13  and  C_14 
ROOT
HETATM    1  C   UNL     1       6.072  -1.407  -0.619  1.00  0.00     0.289 C 
HETATM    2  N   UNL     1       5.936  -2.785  -0.559  1.00  0.00    -0.242 N 
HETATM    3  O   UNL     1       5.132  -0.618  -0.563  1.00  0.00    -0.264 OA
HETATM    4  H   UNL     1       6.747  -3.385  -0.631  1.00  0.00     0.192 HD
ENDROOT
BRANCH   1   5
HETATM    5  C   UNL     1       7.429  -0.941  -0.766  1.00  0.00     0.121 A 
HETATM    6  N   UNL     1       7.709   0.391  -0.893  1.00  0.00    -0.272 N 
HETATM    7  N   UNL     1       9.011   0.668  -1.048  1.00  0.00    -0.174 NA
HETATM    8  H   UNL     1       7.038   1.155  -0.891  1.00  0.00     0.189 HD
HETATM    9  C   UNL     1       9.623  -0.525  -0.995  1.00  0.00     0.089 A 
HETATM   10  C   UNL     1       8.661  -1.562  -0.820  1.00  0.00     0.071 A 
BRANCH   9  11
HETATM   11  C   UNL     1      11.078  -0.652  -1.123  1.00  0.00    -0.006 A 
HETATM   12  C   UNL     1      11.750  -1.800  -0.676  1.00  0.00     0.014 A 
HETATM   13  C   UNL     1      13.137  -1.913  -0.814  1.00  0.00     0.001 A 
HETATM   14  C   UNL     1      13.869  -0.882  -1.399  1.00  0.00     0.000 A 
HETATM   15  C   UNL     1      13.217   0.265  -1.843  1.00  0.00     0.001 A 
HETATM   16  C   UNL     1      11.831   0.380  -1.704  1.00  0.00     0.014 A 
ENDBRANCH   9  11
ENDBRANCH   1   5
BRANCH   2  17
HETATM   17  N   UNL     1       4.695  -3.347  -0.444  1.00  0.00    -0.182 NA
HETATM   18  C   UNL     1       4.661  -4.640  -0.420  1.00  0.00     0.168 C 
BRANCH  18  19
HETATM   19  C   UNL     1       3.399  -5.315  -0.308  1.00  0.00     0.052 A 
HETATM   20  N   UNL     1       2.191  -4.654  -0.222  1.00  0.00    -0.358 N 
HETATM   21  H   UNL     1       2.099  -3.645  -0.234  1.00  0.00     0.166 HD
HETATM   22  C   UNL     1       1.180  -5.567  -0.127  1.00  0.00     0.016 A 
HETATM   23  C   UNL     1       1.729  -6.832  -0.156  1.00  0.00    -0.033 A 
HETATM   24  C   UNL     1      -0.268  -5.237  -0.044  1.00  0.00     0.057 C 
HETATM   25  C   UNL     1       0.901  -8.068  -0.057  1.00  0.00     0.040 C 
HETATM   26  C   UNL     1       3.131  -6.673  -0.266  1.00  0.00     0.040 A 
HETATM   27  C   UNL     1      -0.585  -7.760  -0.330  1.00  0.00     0.005 C 
HETATM   28  C   UNL     1      -1.059  -6.484   0.393  1.00  0.00     0.006 C 
ENDBRANCH  18  19
ENDBRANCH   2  17
TORSDOF 4
