REMARK  6 active torsions:
REMARK  status: ('A' for Active; 'I' for Inactive)
REMARK    1  A    between atoms: C_2  and  C_3 
REMARK    2  A    between atoms: C_6  and  N_7 
REMARK    3  A    between atoms: N_7  and  C_8 
REMARK    4  A    between atoms: C_8  and  C_9 
REMARK    5  A    between atoms: N_15  and  C_16 
REMARK    6  A    between atoms: C_23  and  C_24 
ROOT
HETATM    1  C   UNL     1       3.698   5.844  -5.158  1.00  0.00     0.028 A 
HETATM    2  C   UNL     1       3.285   5.781  -6.587  1.00  0.00     0.255 A 
HETATM    3  O   UNL     1       2.916   4.794  -7.192  1.00  0.00    -0.268 OA
HETATM    4  N   UNL     1       3.290   7.020  -7.303  1.00  0.00    -0.307 N 
HETATM    5  C   UNL     1       3.591   8.212  -6.665  1.00  0.00     0.144 A 
HETATM    6  C   UNL     1       3.852   8.246  -5.319  1.00  0.00     0.038 A 
HETATM    7  N   UNL     1       3.631   9.521  -7.111  1.00  0.00    -0.216 N 
HETATM    8  N   UNL     1       3.733  10.377  -6.058  1.00  0.00    -0.169 NA
HETATM    9  C   UNL     1       3.927   9.615  -4.970  1.00  0.00     0.077 C 
HETATM   10  C   UNL     1       3.935   7.038  -4.581  1.00  0.00     0.032 A 
HETATM   11  H   UNL     1       2.970   6.989  -8.262  1.00  0.00     0.170 HD
ENDROOT
BRANCH   1  12
HETATM   12  C   UNL     1       3.756   4.544  -4.423  1.00  0.00     0.164 C 
BRANCH  12  13
HETATM   13  N   UNL     1       5.043   3.922  -4.682  1.00  0.00    -0.385 N 
HETATM   14  H   UNL     1       5.843   4.551  -4.663  1.00  0.00     0.160 HD
BRANCH  13  15
HETATM   15  C   UNL     1       5.374   2.713  -4.055  1.00  0.00     0.028 A 
HETATM   16  C   UNL     1       6.644   2.173  -4.298  1.00  0.00     0.029 A 
HETATM   17  C   UNL     1       7.036   0.948  -3.747  1.00  0.00     0.009 A 
HETATM   18  C   UNL     1       6.156   0.220  -2.943  1.00  0.00    -0.058 A 
HETATM   19  C   UNL     1       4.877   0.735  -2.717  1.00  0.00     0.009 A 
HETATM   20  C   UNL     1       4.486   1.955  -3.285  1.00  0.00     0.029 A 
BRANCH  18  21
HETATM   21  C   UNL     1       6.580  -1.089  -2.328  1.00  0.00     0.034 C 
HETATM   22  C   UNL     1       7.470  -0.884  -1.111  1.00  0.00     0.010 C 
ENDBRANCH  18  21
ENDBRANCH  13  15
ENDBRANCH  12  13
ENDBRANCH   1  12
BRANCH   9  23
HETATM   23  C   UNL     1       4.139  10.271  -3.606  1.00  0.00    -0.004 C 
HETATM   24  C   UNL     1       4.111  11.816  -3.699  1.00  0.00     0.021 C 
HETATM   25  C   UNL     1       3.022   9.853  -2.628  1.00  0.00     0.021 C 
HETATM   26  C   UNL     1       5.509   9.872  -3.024  1.00  0.00     0.021 C 
ENDBRANCH   9  23
BRANCH   7  27
HETATM   27  C   UNL     1       3.580  10.023  -8.439  1.00  0.00     0.060 A 
HETATM   28  C   UNL     1       3.279  11.380  -8.642  1.00  0.00     0.031 A 
HETATM   29  C   UNL     1       3.217  11.903  -9.935  1.00  0.00     0.002 A 
HETATM   30  C   UNL     1       3.472  11.084 -11.031  1.00  0.00     0.000 A 
HETATM   31  C   UNL     1       3.801   9.743 -10.837  1.00  0.00     0.002 A 
HETATM   32  C   UNL     1       3.860   9.210  -9.545  1.00  0.00     0.031 A 
ENDBRANCH   7  27
TORSDOF 6
