REMARK  7 active torsions:
REMARK  status: ('A' for Active; 'I' for Inactive)
REMARK    1  A    between atoms: C_4  and  N_5 
REMARK       I    between atoms: N_5  and  C_6 
REMARK    2  A    between atoms: C_6  and  C_7 
REMARK    3  A    between atoms: C_7  and  N_8 
REMARK    4  A    between atoms: N_11  and  C_12 
REMARK    5  A    between atoms: C_12  and  C_13 
REMARK    6  A    between atoms: C_28  and  C_29 
REMARK       I    between atoms: C_29  and  N_30 
REMARK    7  A    between atoms: N_30  and  C_31 
ROOT
HETATM    1  N   UNL     1       2.596   2.572   0.239  1.00  0.00    -0.290 N 
HETATM    2  C   UNL     1       1.332   2.258   0.732  1.00  0.00     0.332 C 
HETATM    3  O   UNL     1       0.574   3.161   1.102  1.00  0.00    -0.246 OA
HETATM    4  N   UNL     1       1.000   0.916   0.832  1.00  0.00    -0.261 N 
HETATM    5  C   UNL     1       1.906  -0.106   0.583  1.00  0.00     0.264 C 
HETATM    6  O   UNL     1       1.804  -1.251   1.014  1.00  0.00    -0.267 OA
HETATM    7  C   UNL     1       3.109   0.247  -0.183  1.00  0.00     0.059 A 
HETATM    8  C   UNL     1       3.458   1.589  -0.315  1.00  0.00     0.056 A 
HETATM    9  C   UNL     1       3.937  -0.769  -0.670  1.00  0.00     0.020 A 
HETATM   10  C   UNL     1       5.152  -0.444  -1.265  1.00  0.00     0.018 A 
HETATM   11  C   UNL     1       5.548   0.896  -1.388  1.00  0.00     0.034 A 
HETATM   12  C   UNL     1       4.675   1.908  -0.948  1.00  0.00     0.048 A 
ENDROOT
BRANCH   1  13
HETATM   13  C   UNL     1       3.073   3.938   0.473  1.00  0.00     0.237 C 
BRANCH  13  14
HETATM   14  C   UNL     1       2.675   4.952  -0.600  1.00  0.00     0.240 C 
HETATM   15  N   UNL     1       1.344   5.323  -0.516  1.00  0.00    -0.325 N 
HETATM   16  H   UNL     1       0.753   4.716   0.053  1.00  0.00     0.169 HD
HETATM   17  O   UNL     1       3.509   5.365  -1.402  1.00  0.00    -0.271 OA
BRANCH  15  18
HETATM   18  C   UNL     1       0.716   6.446  -1.099  1.00  0.00     0.041 A 
HETATM   19  C   UNL     1       1.454   7.494  -1.667  1.00  0.00     0.037 A 
HETATM   20  C   UNL     1       0.823   8.651  -2.149  1.00  0.00    -0.060 A 
HETATM   21  C   UNL     1       1.627   9.799  -2.687  1.00  0.00     0.048 C 
HETATM   22  C   UNL     1      -0.566   8.755  -2.063  1.00  0.00     0.007 A 
HETATM   23  C   UNL     1      -1.314   7.713  -1.517  1.00  0.00     0.009 A 
HETATM   24  C   UNL     1      -0.689   6.552  -1.032  1.00  0.00    -0.035 A 
HETATM   25  C   UNL     1      -1.553   5.467  -0.447  1.00  0.00     0.050 C 
ENDBRANCH  15  18
ENDBRANCH  13  14
ENDBRANCH   1  13
BRANCH   4  26
HETATM   26  C   UNL     1      -0.181   0.577   1.622  1.00  0.00     0.175 C 
BRANCH  26  27
HETATM   27  C   UNL     1      -1.143  -0.383   0.954  1.00  0.00    -0.037 A 
HETATM   28  C   UNL     1      -2.011   0.056  -0.057  1.00  0.00     0.048 A 
HETATM   29  C   UNL     1      -2.902  -0.857  -0.587  1.00  0.00     0.105 A 
HETATM   30  C   UNL     1      -2.945  -2.164  -0.161  1.00  0.00     0.105 A 
HETATM   31  O   UNL     1      -3.826  -0.599  -1.551  1.00  0.00    -0.323 OA
HETATM   32  O   UNL     1      -3.898  -2.892  -0.803  1.00  0.00    -0.323 OA
HETATM   33  C   UNL     1      -2.102  -2.637   0.816  1.00  0.00     0.040 A 
HETATM   34  C   UNL     1      -4.465  -1.888  -1.669  1.00  0.00     0.352 A 
HETATM   35  C   UNL     1      -1.197  -1.735   1.378  1.00  0.00     0.012 A 
ENDBRANCH  26  27
ENDBRANCH   4  26
BRANCH  11  36
HETATM   36  C   UNL     1       6.940   1.144  -1.881  1.00  0.00     0.252 C 
HETATM   37  N   UNL     1       7.407   2.444  -1.906  1.00  0.00    -0.352 N 
HETATM   38  H   UNL     1       6.812   3.207  -1.627  1.00  0.00     0.163 HD
HETATM   39  O   UNL     1       7.650   0.186  -2.176  1.00  0.00    -0.268 OA
BRANCH  37  40
HETATM   40  C   UNL     1       8.845   2.714  -1.910  1.00  0.00     0.084 C 
HETATM   41  C   UNL     1       9.172   3.995  -2.683  1.00  0.00     0.025 C 
HETATM   42  C   UNL     1       8.736   5.264  -1.952  1.00  0.00     0.002 C 
HETATM   43  C   UNL     1       9.266   5.309  -0.522  1.00  0.00     0.000 C 
HETATM   44  C   UNL     1       8.900   4.050   0.258  1.00  0.00     0.002 C 
HETATM   45  C   UNL     1       9.367   2.786  -0.466  1.00  0.00     0.025 C 
ENDBRANCH  37  40
ENDBRANCH  11  36
TORSDOF 7
