REMARK  3 active torsions:
REMARK  status: ('A' for Active; 'I' for Inactive)
REMARK    1  A    between atoms: C_2  and  N_3 
REMARK    2  A    between atoms: C_8  and  C_9 
REMARK       I    between atoms: C_9  and  N_10 
REMARK    3  A    between atoms: N_10  and  C_11 
ROOT
HETATM    1  C   UNL     1       2.219  -4.535  -0.534  1.00  0.00     0.036 A 
HETATM    2  C   UNL     1       2.408  -3.166  -0.352  1.00  0.00     0.049 A 
HETATM    3  C   UNL     1       2.028  -2.235  -1.337  1.00  0.00     0.061 A 
HETATM    4  C   UNL     1       1.422  -2.681  -2.518  1.00  0.00     0.050 A 
HETATM    5  N   UNL     1       0.882  -1.867  -3.529  1.00  0.00    -0.324 N 
HETATM    6  C   UNL     1       0.324  -0.621  -3.408  1.00  0.00     0.245 C 
HETATM    7  O   UNL     1      -0.272  -0.157  -4.383  1.00  0.00    -0.271 OA
HETATM    8  C   UNL     1       0.294   0.034  -2.027  1.00  0.00     0.180 C 
HETATM    9  N   UNL     1       1.644   0.188  -1.512  1.00  0.00    -0.334 N 
HETATM   10  C   UNL     1       2.456  -0.835  -1.091  1.00  0.00     0.256 C 
HETATM   11  O   UNL     1       3.523  -0.631  -0.516  1.00  0.00    -0.267 OA
HETATM   12  C   UNL     1      -0.266   1.462  -2.056  1.00  0.00     0.037 C 
HETATM   13  C   UNL     1       0.557   2.191  -1.002  1.00  0.00     0.022 C 
HETATM   14  C   UNL     1       1.933   1.568  -1.168  1.00  0.00     0.127 C 
HETATM   15  C   UNL     1       1.322  -4.064  -2.737  1.00  0.00     0.033 A 
HETATM   16  C   UNL     1       1.717  -4.982  -1.756  1.00  0.00     0.032 A 
HETATM   17  H   UNL     1       0.665  -2.291  -4.424  1.00  0.00     0.169 HD
ENDROOT
BRANCH   1  18
HETATM   18  N   UNL     1       2.533  -5.501   0.446  1.00  0.00    -0.323 N 
HETATM   19  C   UNL     1       2.763  -5.244   1.789  1.00  0.00     0.256 C 
HETATM   20  O   UNL     1       2.660  -4.149   2.332  1.00  0.00    -0.267 OA
HETATM   21  H   UNL     1       2.546  -6.461   0.135  1.00  0.00     0.169 HD
BRANCH  19  22
HETATM   22  C   UNL     1       3.161  -6.406   2.640  1.00  0.00     0.034 A 
HETATM   23  C   UNL     1       2.819  -7.728   2.346  1.00  0.00     0.018 A 
HETATM   24  C   UNL     1       3.227  -8.773   3.190  1.00  0.00     0.015 A 
HETATM   25  C   UNL     1       3.976  -8.488   4.349  1.00  0.00    -0.008 A 
HETATM   26  C   UNL     1       4.291  -7.160   4.643  1.00  0.00     0.045 A 
HETATM   27  C   UNL     1       4.536  -9.289   5.378  1.00  0.00     0.031 A 
HETATM   28  N   UNL     1       5.011  -7.159   5.826  1.00  0.00    -0.352 N 
HETATM   29  C   UNL     1       3.894  -6.108   3.802  1.00  0.00     0.047 A 
HETATM   30  C   UNL     1       5.178  -8.451   6.261  1.00  0.00     0.092 A 
BRANCH  28  31
HETATM   31  C   UNL     1       5.560  -5.965   6.473  1.00  0.00     0.081 C 
HETATM   32  C   UNL     1       7.011  -5.745   6.051  1.00  0.00     0.032 C 
HETATM   33  C   UNL     1       5.422  -5.983   7.998  1.00  0.00     0.032 C 
ENDBRANCH  28  31
ENDBRANCH  19  22
ENDBRANCH   1  18
TORSDOF 3
