REMARK  6 active torsions:
REMARK  status: ('A' for Active; 'I' for Inactive)
REMARK    1  A    between atoms: O_2  and  C_3 
REMARK    2  A    between atoms: C_6  and  C_7 
REMARK    3  A    between atoms: C_12  and  C_13 
REMARK       I    between atoms: C_13  and  N_14 
REMARK    4  A    between atoms: N_14  and  C_15 
REMARK    5  A    between atoms: C_15  and  C_16 
REMARK    6  A    between atoms: C_24  and  C_25 
ROOT
HETATM    1  C   UNL     1       4.387   4.647  -2.579  1.00  0.00     0.118 C 
HETATM    2  N   UNL     1       3.232   5.150  -3.319  1.00  0.00    -0.366 N 
HETATM    3  C   UNL     1       2.914   6.458  -3.366  1.00  0.00     0.123 A 
HETATM    4  N   UNL     1       3.734   7.409  -2.829  1.00  0.00    -0.240 N 
HETATM    5  N   UNL     1       3.227   8.653  -2.854  1.00  0.00    -0.165 NA
HETATM    6  C   UNL     1       2.052   8.497  -3.510  1.00  0.00     0.148 A 
HETATM    7  C   UNL     1       1.832   7.135  -3.861  1.00  0.00     0.088 A 
HETATM    8  C   UNL     1       4.991   7.097  -2.177  1.00  0.00     0.221 C 
HETATM    9  C   UNL     1       4.901   5.690  -1.564  1.00  0.00     0.066 C 
HETATM   10  H   UNL     1       2.641   4.442  -3.754  1.00  0.00     0.161 HD
ENDROOT
BRANCH   6  11
HETATM   11  C   UNL     1       1.148   9.623  -3.780  1.00  0.00     0.272 C 
HETATM   12  N   UNL     1       1.642  10.831  -3.352  1.00  0.00    -0.351 N 
HETATM   13  H   UNL     1       2.527  10.803  -2.853  1.00  0.00     0.163 HD
HETATM   14  O   UNL     1       0.062   9.485  -4.334  1.00  0.00    -0.266 OA
BRANCH  12  15
HETATM   15  C   UNL     1       0.919  12.067  -3.489  1.00  0.00     0.161 C 
BRANCH  15  16
HETATM   16  C   UNL     1       1.827  13.216  -3.849  1.00  0.00    -0.041 A 
HETATM   17  C   UNL     1       2.831  13.069  -4.819  1.00  0.00     0.009 A 
HETATM   18  C   UNL     1       3.642  14.147  -5.174  1.00  0.00     0.001 A 
HETATM   19  C   UNL     1       3.447  15.391  -4.578  1.00  0.00     0.000 A 
HETATM   20  C   UNL     1       2.441  15.557  -3.628  1.00  0.00     0.001 A 
HETATM   21  C   UNL     1       1.633  14.477  -3.267  1.00  0.00     0.009 A 
ENDBRANCH  15  16
ENDBRANCH  12  15
ENDBRANCH   6  11
BRANCH   8  22
HETATM   22  C   UNL     1       6.132   7.235  -3.157  1.00  0.00     0.409 C 
HETATM   23  F   UNL     1       6.268   8.497  -3.620  1.00  0.00    -0.169 F 
HETATM   24  F   UNL     1       7.304   6.924  -2.541  1.00  0.00    -0.169 F 
HETATM   25  F   UNL     1       6.031   6.414  -4.223  1.00  0.00    -0.169 F 
ENDBRANCH   8  22
BRANCH   1  26
HETATM   26  C   UNL     1       3.999   3.358  -1.875  1.00  0.00    -0.035 A 
HETATM   27  C   UNL     1       4.777   2.201  -2.023  1.00  0.00     0.012 A 
HETATM   28  C   UNL     1       4.427   1.013  -1.367  1.00  0.00     0.037 A 
HETATM   29  C   UNL     1       3.296   0.966  -0.552  1.00  0.00     0.068 A 
HETATM   30  C   UNL     1       2.512   2.110  -0.408  1.00  0.00     0.037 A 
HETATM   31  C   UNL     1       2.858   3.295  -1.059  1.00  0.00     0.012 A 
BRANCH  29  32
HETATM   32  O   UNL     1       2.847  -0.122   0.144  1.00  0.00    -0.356 OA
HETATM   33  C   UNL     1       3.674  -1.278   0.134  1.00  0.00     0.210 C 
ENDBRANCH  29  32
ENDBRANCH   1  26
TORSDOF 6
