REMARK  2 active torsions:
REMARK  status: ('A' for Active; 'I' for Inactive)
REMARK    1  A    between atoms: C_12  and  C_13 
REMARK    2  A    between atoms: C_16  and  O_17 
ROOT
HETATM    1  C   UNL     1       3.419   0.286   0.690  1.00  0.00     0.002 A 
HETATM    2  C   UNL     1       2.446   1.206   0.301  1.00  0.00     0.026 A 
HETATM    3  C   UNL     1       1.246   0.771  -0.271  1.00  0.00     0.036 A 
HETATM    4  C   UNL     1       0.999  -0.613  -0.424  1.00  0.00     0.053 A 
HETATM    5  N   UNL     1      -0.241  -1.109  -0.910  1.00  0.00    -0.356 N 
HETATM    6  C   UNL     1      -1.448  -0.618  -0.444  1.00  0.00     0.041 A 
HETATM    7  C   UNL     1      -1.732   0.616   0.008  1.00  0.00     0.056 A 
HETATM    8  C   UNL     1      -3.087   0.552   0.582  1.00  0.00     0.251 A 
HETATM    9  O   UNL     1      -3.652   1.420   1.218  1.00  0.00    -0.268 OA
HETATM   10  N   UNL     1      -3.588  -0.695   0.314  1.00  0.00    -0.351 N 
HETATM   11  C   UNL     1      -2.632  -1.539  -0.316  1.00  0.00     0.180 A 
HETATM   12  C   UNL     1      -0.916   1.864   0.056  1.00  0.00     0.134 C 
HETATM   13  N   UNL     1       0.332   1.745  -0.731  1.00  0.00    -0.278 NA
HETATM   14  C   UNL     1       1.998  -1.524  -0.047  1.00  0.00     0.031 A 
HETATM   15  C   UNL     1       3.200  -1.077   0.507  1.00  0.00     0.002 A 
HETATM   16  H   UNL     1      -0.228  -2.119  -1.029  1.00  0.00     0.166 HD
HETATM   17  H   UNL     1      -4.491  -0.978   0.671  1.00  0.00     0.163 HD
HETATM   18  H   UNL     1       0.066   1.447  -1.670  1.00  0.00     0.128 HD
ENDROOT
BRANCH  12  19
HETATM   19  C   UNL     1      -1.658   3.077  -0.512  1.00  0.00    -0.035 A 
HETATM   20  C   UNL     1      -1.885   4.206   0.295  1.00  0.00     0.012 A 
HETATM   21  C   UNL     1      -2.566   5.319  -0.206  1.00  0.00     0.037 A 
HETATM   22  C   UNL     1      -3.019   5.312  -1.521  1.00  0.00     0.065 A 
HETATM   23  C   UNL     1      -2.806   4.212  -2.340  1.00  0.00     0.037 A 
HETATM   24  C   UNL     1      -2.130   3.097  -1.839  1.00  0.00     0.012 A 
BRANCH  22  25
HETATM   25  O   UNL     1      -3.688   6.377  -2.048  1.00  0.00    -0.361 OA
HETATM   26  H   UNL     1      -3.781   7.051  -1.355  1.00  0.00     0.217 HD
ENDBRANCH  22  25
ENDBRANCH  12  19
TORSDOF 2
