REMARK  8 active torsions:
REMARK  status: ('A' for Active; 'I' for Inactive)
REMARK    1  A    between atoms: C_4  and  C_5 
REMARK    2  A    between atoms: C_5  and  N_6 
REMARK       I    between atoms: N_6  and  C_7 
REMARK    3  A    between atoms: C_7  and  C_8 
REMARK    4  A    between atoms: C_11  and  C_12 
REMARK    5  A    between atoms: C_12  and  O_13 
REMARK    6  A    between atoms: O_13  and  C_14 
REMARK    7  A    between atoms: C_25  and  C_26 
REMARK    8  A    between atoms: C_26  and  O_27 
ROOT
HETATM    1  N   UNL     1       4.502   3.787   0.294  1.00  0.00    -0.351 N 
HETATM    2  C   UNL     1       4.931   5.084   0.432  1.00  0.00     0.251 C 
HETATM    3  O   UNL     1       4.197   5.990   0.815  1.00  0.00    -0.268 OA
HETATM    4  H   UNL     1       5.061   3.077  -0.164  1.00  0.00     0.163 HD
ENDROOT
BRANCH   2   5
HETATM    5  C   UNL     1       6.341   5.367   0.045  1.00  0.00     0.032 A 
HETATM    6  C   UNL     1       6.668   6.668  -0.353  1.00  0.00     0.017 A 
HETATM    7  C   UNL     1       7.971   6.978  -0.752  1.00  0.00     0.010 A 
HETATM    8  C   UNL     1       8.965   5.990  -0.758  1.00  0.00    -0.034 A 
HETATM    9  C   UNL     1       8.643   4.699  -0.316  1.00  0.00     0.010 A 
HETATM   10  C   UNL     1       7.339   4.386   0.081  1.00  0.00     0.017 A 
BRANCH   8  11
HETATM   11  C   UNL     1      10.368   6.324  -1.205  1.00  0.00     0.214 C 
BRANCH  11  12
HETATM   12  O   UNL     1      11.091   6.835  -0.090  1.00  0.00    -0.347 OA
BRANCH  12  13
HETATM   13  C   UNL     1      12.382   7.229  -0.318  1.00  0.00     0.069 A 
HETATM   14  C   UNL     1      13.063   7.153  -1.534  1.00  0.00     0.037 A 
HETATM   15  C   UNL     1      14.387   7.594  -1.627  1.00  0.00     0.003 A 
HETATM   16  C   UNL     1      15.035   8.113  -0.507  1.00  0.00     0.000 A 
HETATM   17  C   UNL     1      14.360   8.190   0.709  1.00  0.00     0.003 A 
HETATM   18  C   UNL     1      13.039   7.749   0.801  1.00  0.00     0.037 A 
ENDBRANCH  12  13
ENDBRANCH  11  12
ENDBRANCH   8  11
ENDBRANCH   2   5
BRANCH   1  19
HETATM   19  C   UNL     1       3.122   3.426   0.532  1.00  0.00     0.182 C 
BRANCH  19  20
HETATM   20  C   UNL     1       2.852   1.970   0.218  1.00  0.00     0.052 A 
HETATM   21  N   UNL     1       3.885   1.209  -0.239  1.00  0.00    -0.256 NA
HETATM   22  C   UNL     1       3.649  -0.097  -0.533  1.00  0.00     0.040 A 
HETATM   23  C   UNL     1       4.842  -0.864  -1.027  1.00  0.00     0.071 C 
HETATM   24  C   UNL     1       2.391  -0.692  -0.380  1.00  0.00    -0.006 A 
HETATM   25  C   UNL     1       1.346   0.122   0.085  1.00  0.00     0.014 A 
HETATM   26  C   UNL     1       1.574   1.459   0.388  1.00  0.00     0.029 A 
BRANCH  24  27
HETATM   27  C   UNL     1       2.120  -2.142  -0.714  1.00  0.00     0.149 C 
HETATM   28  C   UNL     1       1.300  -2.297  -1.989  1.00  0.00     0.044 C 
BRANCH  27  29
HETATM   29  O   UNL     1       1.413  -2.770   0.357  1.00  0.00    -0.391 OA
HETATM   30  H   UNL     1       1.777  -2.419   1.189  1.00  0.00     0.210 HD
ENDBRANCH  27  29
ENDBRANCH  24  27
ENDBRANCH  19  20
ENDBRANCH   1  19
TORSDOF 8
