REMARK  3 active torsions:
REMARK  status: ('A' for Active; 'I' for Inactive)
REMARK    1  A    between atoms: C_12  and  C_13 
REMARK       I    between atoms: C_13  and  N_14 
REMARK    2  A    between atoms: N_14  and  C_15 
REMARK    3  A    between atoms: C_15  and  C_16 
ROOT
HETATM    1  C   UNL     1       2.552  -1.615   0.031  1.00  0.00     0.001 A 
HETATM    2  C   UNL     1       1.155  -1.642   0.041  1.00  0.00     0.016 A 
HETATM    3  C   UNL     1       0.439  -0.443   0.034  1.00  0.00     0.026 A 
HETATM    4  C   UNL     1       1.125   0.788   0.017  1.00  0.00     0.081 A 
HETATM    5  O   UNL     1       0.519   2.026   0.008  1.00  0.00    -0.346 OA
HETATM    6  C   UNL     1      -0.935   2.123   0.010  1.00  0.00     0.219 A 
HETATM    7  C   UNL     1      -1.659   0.834   0.027  1.00  0.00     0.031 A 
HETATM    8  C   UNL     1      -0.999  -0.364   0.040  1.00  0.00     0.074 A 
HETATM    9  N   UNL     1      -1.954  -1.328   0.054  1.00  0.00    -0.276 N 
HETATM   10  H   UNL     1      -1.834  -2.335   0.068  1.00  0.00     0.189 HD
HETATM   11  N   UNL     1      -3.212  -0.831   0.047  1.00  0.00    -0.168 NA
HETATM   12  C   UNL     1      -3.036   0.512   0.030  1.00  0.00     0.155 A 
HETATM   13  C   UNL     1       2.520   0.803   0.008  1.00  0.00     0.038 A 
HETATM   14  C   UNL     1       3.232  -0.397   0.015  1.00  0.00     0.003 A 
ENDROOT
BRANCH  12  15
HETATM   15  C   UNL     1      -4.167   1.452   0.014  1.00  0.00     0.272 C 
HETATM   16  N   UNL     1      -5.391   0.830   0.016  1.00  0.00    -0.351 N 
HETATM   17  H   UNL     1      -5.374  -0.185   0.052  1.00  0.00     0.163 HD
HETATM   18  O   UNL     1      -4.014   2.669   0.000  1.00  0.00    -0.266 OA
BRANCH  16  19
HETATM   19  C   UNL     1      -6.642   1.541  -0.001  1.00  0.00     0.161 C 
BRANCH  19  20
HETATM   20  C   UNL     1      -7.459   1.248   1.232  1.00  0.00    -0.040 A 
HETATM   21  C   UNL     1      -6.976   1.599   2.502  1.00  0.00     0.010 A 
HETATM   22  C   UNL     1      -7.736   1.345   3.647  1.00  0.00     0.024 A 
HETATM   23  C   UNL     1      -8.986   0.744   3.526  1.00  0.00     0.034 A 
HETATM   24 CL   UNL     1      -9.926   0.436   4.934  1.00  0.00    -0.084 Cl
HETATM   25  C   UNL     1      -9.482   0.393   2.273  1.00  0.00     0.024 A 
HETATM   26  C   UNL     1      -8.720   0.644   1.128  1.00  0.00     0.010 A 
ENDBRANCH  19  20
ENDBRANCH  16  19
ENDBRANCH  12  15
TORSDOF 3
