REMARK  4 active torsions:
REMARK  status: ('A' for Active; 'I' for Inactive)
REMARK    1  A    between atoms: O_2  and  C_3 
REMARK    2  A    between atoms: C_6  and  C_7 
REMARK       I    between atoms: C_7  and  N_8 
REMARK    3  A    between atoms: N_8  and  C_9 
REMARK    4  A    between atoms: C_14  and  C_15 
ROOT
HETATM    1  C   UNL     1       5.303   2.085   3.243  1.00  0.00     0.259 C 
HETATM    2  N   UNL     1       6.054   3.159   3.682  1.00  0.00    -0.320 N 
HETATM    3  O   UNL     1       4.337   2.145   2.490  1.00  0.00    -0.267 OA
HETATM    4  H   UNL     1       6.672   2.992   4.470  1.00  0.00     0.169 HD
ENDROOT
BRANCH   2   5
HETATM    5  C   UNL     1       5.959   4.505   3.251  1.00  0.00     0.074 A 
HETATM    6  C   UNL     1       5.369   4.934   2.058  1.00  0.00     0.143 A 
HETATM    7  F   UNL     1       4.916   4.077   1.135  1.00  0.00    -0.204 F 
HETATM    8  C   UNL     1       5.315   6.288   1.734  1.00  0.00     0.045 A 
HETATM    9  C   UNL     1       5.868   7.240   2.592  1.00  0.00     0.017 A 
HETATM   10  C   UNL     1       6.499   6.845   3.779  1.00  0.00     0.000 A 
HETATM   11  C   UNL     1       6.542   5.472   4.089  1.00  0.00     0.047 A 
BRANCH  10  12
HETATM   12  C   UNL     1       7.095   7.844   4.666  1.00  0.00     0.085 A 
HETATM   13  O   UNL     1       7.791   7.365   5.741  1.00  0.00    -0.322 OA
HETATM   14  C   UNL     1       8.266   8.434   6.429  1.00  0.00     0.142 A 
HETATM   15  C   UNL     1       7.887   9.604   5.818  1.00  0.00     0.027 A 
HETATM   16  C   UNL     1       7.132   9.226   4.681  1.00  0.00     0.040 A 
ENDBRANCH  10  12
ENDBRANCH   2   5
BRANCH   1  17
HETATM   17  C   UNL     1       5.675   0.741   3.778  1.00  0.00     0.073 A 
HETATM   18  C   UNL     1       6.582   0.555   4.824  1.00  0.00     0.165 A 
HETATM   19  C   UNL     1       6.892  -0.726   5.303  1.00  0.00     0.107 A 
HETATM   20  F   UNL     1       7.167   1.618   5.405  1.00  0.00    -0.202 F 
HETATM   21  C   UNL     1       6.292  -1.839   4.710  1.00  0.00     0.040 A 
HETATM   22  C   UNL     1       5.385  -1.670   3.662  1.00  0.00     0.004 A 
HETATM   23  C   UNL     1       5.075  -0.390   3.202  1.00  0.00     0.020 A 
BRANCH  19  24
HETATM   24  O   UNL     1       7.789  -0.769   6.338  1.00  0.00    -0.353 OA
HETATM   25  C   UNL     1       7.992  -2.028   6.967  1.00  0.00     0.210 C 
ENDBRANCH  19  24
ENDBRANCH   1  17
TORSDOF 4
