REMARK  7 active torsions:
REMARK  status: ('A' for Active; 'I' for Inactive)
REMARK    1  A    between atoms: C_8  and  C_9 
REMARK    2  A    between atoms: C_9  and  C_10 
REMARK    3  A    between atoms: C_10  and  N_11 
REMARK    4  A    between atoms: C_10  and  C_19 
REMARK       I    between atoms: N_11  and  C_12 
REMARK    5  A    between atoms: C_12  and  C_13 
REMARK       I    between atoms: C_19  and  N_20 
REMARK    6  A    between atoms: N_20  and  N_21 
REMARK       I    between atoms: N_21  and  C_22 
REMARK       I    between atoms: C_22  and  N_23 
REMARK    7  A    between atoms: N_23  and  C_24 
ROOT
HETATM    1  C   UNL     1      -0.898  -3.433   0.155  1.00  0.00     0.183 C 
ENDROOT
BRANCH   1   2
HETATM    2  C   UNL     1      -1.763  -2.213  -0.216  1.00  0.00     0.076 C 
BRANCH   2   3
HETATM    3  C   UNL     1      -1.239  -0.906   0.304  1.00  0.00    -0.028 A 
HETATM    4  C   UNL     1       0.007  -0.273  -0.012  1.00  0.00    -0.002 A 
HETATM    5  C   UNL     1       1.096  -0.599  -0.848  1.00  0.00     0.014 A 
HETATM    6  C   UNL     1       0.066   0.916   0.717  1.00  0.00     0.042 A 
HETATM    7  C   UNL     1       2.200   0.259  -0.910  1.00  0.00     0.001 A 
HETATM    8  C   UNL     1       2.229   1.434  -0.165  1.00  0.00     0.002 A 
HETATM    9  C   UNL     1       1.159   1.789   0.660  1.00  0.00     0.030 A 
HETATM   10  N   UNL     1      -1.106   1.016   1.428  1.00  0.00    -0.365 N 
HETATM   11  H   UNL     1      -1.346   1.788   2.034  1.00  0.00     0.165 HD
HETATM   12  C   UNL     1      -1.895  -0.076   1.193  1.00  0.00     0.096 A 
ENDBRANCH   2   3
ENDBRANCH   1   2
BRANCH   1  13
HETATM   13  N   UNL     1      -0.499  -3.490   1.564  1.00  0.00    -0.343 N 
HETATM   14  C   UNL     1      -1.413  -3.486   2.597  1.00  0.00     0.259 C 
HETATM   15  O   UNL     1      -2.594  -3.753   2.393  1.00  0.00    -0.267 OA
HETATM   16  H   UNL     1       0.392  -3.061   1.789  1.00  0.00     0.163 HD
BRANCH  14  17
HETATM   17  C   UNL     1      -0.874  -3.182   3.917  1.00  0.00     0.072 A 
HETATM   18  S   UNL     1       0.773  -2.756   4.156  1.00  0.00    -0.097 SA
HETATM   19  C   UNL     1       0.564  -2.603   5.845  1.00  0.00     0.050 A 
HETATM   20  C   UNL     1      -0.733  -2.857   6.229  1.00  0.00     0.009 A 
HETATM   21  C   UNL     1      -1.561  -3.188   5.117  1.00  0.00     0.025 A 
ENDBRANCH  14  17
ENDBRANCH   1  13
BRANCH   1  22
HETATM   22  C   UNL     1      -1.544  -4.713  -0.410  1.00  0.00     0.259 C 
HETATM   23  N   UNL     1      -1.319  -5.860   0.330  1.00  0.00    -0.264 N 
HETATM   24  H   UNL     1      -1.197  -5.768   1.339  1.00  0.00     0.190 HD
HETATM   25  O   UNL     1      -2.071  -4.748  -1.525  1.00  0.00    -0.269 OA
BRANCH  23  26
HETATM   26  N   UNL     1      -2.003  -7.015  -0.084  1.00  0.00    -0.249 N 
HETATM   27  C   UNL     1      -2.301  -7.974   0.840  1.00  0.00     0.339 C 
HETATM   28  N   UNL     1      -2.931  -9.101   0.399  1.00  0.00    -0.308 N 
HETATM   29  O   UNL     1      -1.979  -7.872   2.024  1.00  0.00    -0.245 OA
HETATM   30  H   UNL     1      -2.922  -9.824   1.109  1.00  0.00     0.170 HD
HETATM   31  H   UNL     1      -1.844  -7.287  -1.048  1.00  0.00     0.192 HD
BRANCH  28  32
HETATM   32  C   UNL     1      -3.591  -9.404  -0.807  1.00  0.00     0.036 A 
HETATM   33  C   UNL     1      -4.015  -8.451  -1.738  1.00  0.00     0.031 A 
HETATM   34  C   UNL     1      -4.652  -8.846  -2.921  1.00  0.00     0.026 A 
HETATM   35  C   UNL     1      -4.889 -10.195  -3.167  1.00  0.00     0.034 A 
HETATM   36 CL   UNL     1      -5.666 -10.680  -4.622  1.00  0.00    -0.084 Cl
HETATM   37  C   UNL     1      -4.509 -11.152  -2.231  1.00  0.00     0.026 A 
HETATM   38  C   UNL     1      -3.871 -10.755  -1.051  1.00  0.00     0.031 A 
ENDBRANCH  28  32
ENDBRANCH  23  26
ENDBRANCH   1  22
TORSDOF 7
