REMARK  5 active torsions:
REMARK  status: ('A' for Active; 'I' for Inactive)
REMARK    1  A    between atoms: C_2  and  C_3 
REMARK    2  A    between atoms: C_7  and  N_8 
REMARK       I    between atoms: N_8  and  C_9 
REMARK    3  A    between atoms: C_9  and  C_10 
REMARK    4  A    between atoms: C_10  and  N_11 
REMARK    5  A    between atoms: N_11  and  C_14 
ROOT
HETATM    1  C   UNL     1       3.066   1.549   1.432  1.00  0.00     0.043 C 
HETATM    2  N   UNL     1       2.464   2.753   1.544  1.00  0.00    -0.252 NA
HETATM    3  C   UNL     1       2.781   3.571   2.551  1.00  0.00     0.069 A 
HETATM    4  C   UNL     1       3.684   3.217   3.571  1.00  0.00     0.020 A 
HETATM    5  C   UNL     1       4.204   1.888   3.529  1.00  0.00     0.055 C 
HETATM    6  C   UNL     1       3.967   1.072   2.391  1.00  0.00    -0.010 C 
HETATM    7  C   UNL     1       4.609  -0.284   2.244  1.00  0.00     0.052 C 
HETATM    8  C   UNL     1       2.196   4.831   2.547  1.00  0.00     0.032 A 
HETATM    9  C   UNL     1       2.510   5.795   3.502  1.00  0.00     0.002 A 
HETATM   10  C   UNL     1       3.451   5.502   4.473  1.00  0.00     0.001 A 
HETATM   11  C   UNL     1       4.039   4.236   4.498  1.00  0.00     0.016 A 
ENDROOT
BRANCH   5  12
HETATM   12  N   UNL     1       4.970   1.304   4.591  1.00  0.00    -0.324 N 
HETATM   13  C   UNL     1       4.755   1.492   5.947  1.00  0.00     0.248 C 
HETATM   14  O   UNL     1       3.939   2.238   6.480  1.00  0.00    -0.271 OA
HETATM   15  H   UNL     1       5.471   0.462   4.336  1.00  0.00     0.169 HD
BRANCH  13  16
HETATM   16  C   UNL     1       5.656   0.628   6.836  1.00  0.00     0.335 C 
BRANCH  16  17
HETATM   17  N   UNL     1       5.499   0.931   8.312  1.00  0.00    -0.063 N 
HETATM   18  H   UNL     1       6.298   0.552   8.834  1.00  0.00     0.278 HD
HETATM   19  H   UNL     1       5.555   1.958   8.389  1.00  0.00     0.278 HD
BRANCH  17  20
HETATM   20  C   UNL     1       4.210   0.536   8.990  1.00  0.00     0.178 C 
HETATM   21  C   UNL     1       4.033  -0.976   8.964  1.00  0.00     0.039 C 
HETATM   22  C   UNL     1       4.282   1.053  10.425  1.00  0.00     0.039 C 
ENDBRANCH  17  20
ENDBRANCH  16  17
ENDBRANCH  13  16
ENDBRANCH   5  12
BRANCH   1  23
HETATM   23  C   UNL     1       2.643   0.770   0.209  1.00  0.00     0.055 C 
HETATM   24  C   UNL     1       1.625  -0.313   0.535  1.00  0.00     0.011 C 
ENDBRANCH   1  23
TORSDOF 5
