REMARK  8 active torsions:
REMARK  status: ('A' for Active; 'I' for Inactive)
REMARK       I    between atoms: N_2  and  C_3 
REMARK    1  A    between atoms: N_2  and  C_29 
REMARK    2  A    between atoms: C_3  and  C_4 
REMARK    3  A    between atoms: C_7  and  C_8 
REMARK       I    between atoms: C_8  and  N_9 
REMARK    4  A    between atoms: N_9  and  C_10 
REMARK    5  A    between atoms: N_20  and  C_21 
REMARK    6  A    between atoms: C_21  and  C_22 
REMARK    7  A    between atoms: C_29  and  C_30 
REMARK    8  A    between atoms: C_30  and  C_31 
ROOT
HETATM    1  C   UNL     1       6.628  -1.013  -3.103  1.00  0.00     0.098 C 
HETATM    2  C   UNL     1       5.573  -1.605  -2.247  1.00  0.00     0.206 C 
HETATM    3  O   UNL     1       4.676  -2.302  -2.718  1.00  0.00    -0.286 OA
HETATM    4  C   UNL     1       5.636  -1.325  -0.781  1.00  0.00     0.098 C 
HETATM    5  C   UNL     1       6.796  -0.830  -0.313  1.00  0.00     0.111 C 
HETATM    6  N   UNL     1       7.900  -0.523  -1.103  1.00  0.00    -0.362 N 
HETATM    7  C   UNL     1       7.737  -0.578  -2.482  1.00  0.00     0.111 C 
ENDROOT
BRANCH   1   8
HETATM    8  C   UNL     1       6.611  -0.927  -4.582  1.00  0.00     0.258 C 
HETATM    9  N   UNL     1       5.574  -0.247  -5.213  1.00  0.00    -0.352 N 
HETATM   10  C   UNL     1       5.674  -0.031  -6.650  1.00  0.00     0.152 C 
HETATM   11  O   UNL     1       7.591  -1.354  -5.199  1.00  0.00    -0.267 OA
BRANCH   9  12
HETATM   12  C   UNL     1       4.337   0.253  -4.590  1.00  0.00     0.131 C 
BRANCH  12  13
HETATM   13  C   UNL     1       4.511   1.567  -3.826  1.00  0.00     0.079 C 
BRANCH  13  14
HETATM   14  C   UNL     1       3.228   1.953  -3.132  1.00  0.00     0.035 A 
HETATM   15  N   UNL     1       2.110   2.008  -3.896  1.00  0.00    -0.266 NA
HETATM   16  C   UNL     1       0.950   2.341  -3.286  1.00  0.00     0.117 A 
HETATM   17  C   UNL     1       0.847   2.638  -1.940  1.00  0.00     0.019 A 
HETATM   18  C   UNL     1       2.004   2.595  -1.171  1.00  0.00     0.003 A 
HETATM   19  C   UNL     1       3.213   2.248  -1.771  1.00  0.00     0.027 A 
ENDBRANCH  13  14
ENDBRANCH  12  13
ENDBRANCH   9  12
ENDBRANCH   1   8
BRANCH   4  20
HETATM   20  C   UNL     1       4.501  -1.550   0.161  1.00  0.00     0.257 C 
HETATM   21  N   UNL     1       3.365  -2.053  -0.423  1.00  0.00    -0.352 N 
HETATM   22  H   UNL     1       3.417  -2.319  -1.407  1.00  0.00     0.163 HD
HETATM   23  O   UNL     1       4.584  -1.259   1.349  1.00  0.00    -0.267 OA
BRANCH  21  24
HETATM   24  C   UNL     1       2.077  -2.260   0.243  1.00  0.00     0.084 C 
HETATM   25  C   UNL     1       2.180  -3.366   1.299  1.00  0.00     0.025 C 
HETATM   26  C   UNL     1       0.870  -3.887   1.896  1.00  0.00     0.002 C 
HETATM   27  C   UNL     1      -0.258  -4.133   0.891  1.00  0.00     0.000 C 
HETATM   28  C   UNL     1      -1.338  -3.049   0.862  1.00  0.00     0.000 C 
HETATM   29  C   UNL     1      -0.935  -1.674   0.323  1.00  0.00     0.000 C 
HETATM   30  C   UNL     1       0.049  -0.907   1.206  1.00  0.00     0.002 C 
HETATM   31  C   UNL     1       1.503  -0.924   0.732  1.00  0.00     0.025 C 
ENDBRANCH  21  24
ENDBRANCH   4  20
BRANCH   6  32
HETATM   32  C   UNL     1       9.205  -0.172  -0.496  1.00  0.00     0.159 C 
BRANCH  32  33
HETATM   33  C   UNL     1       9.368   1.316  -0.159  1.00  0.00     0.139 C 
HETATM   34  O   UNL     1       8.486   1.740   0.899  1.00  0.00    -0.384 OA
HETATM   35  C   UNL     1       8.132   3.111   0.660  1.00  0.00     0.168 C 
HETATM   36  C   UNL     1       8.947   3.584  -0.528  1.00  0.00     0.029 C 
HETATM   37  C   UNL     1       9.158   2.302  -1.295  1.00  0.00     0.035 C 
ENDBRANCH  32  33
ENDBRANCH   6  32
TORSDOF 8
