REMARK  7 active torsions:
REMARK  status: ('A' for Active; 'I' for Inactive)
REMARK    1  A    between atoms: C_3  and  C_4 
REMARK    2  A    between atoms: C_4  and  N_5 
REMARK    3  A    between atoms: N_5  and  C_6 
REMARK    4  A    between atoms: C_13  and  C_14 
REMARK       I    between atoms: C_14  and  N_15 
REMARK    5  A    between atoms: C_19  and  O_20 
REMARK    6  A    between atoms: O_20  and  C_21 
REMARK    7  A    between atoms: C_21  and  C_22 
ROOT
HETATM    1  C   UNL     1      -0.701   4.091  -0.866  1.00  0.00     0.029 A 
HETATM    2  C   UNL     1      -1.521   5.162  -0.464  1.00  0.00     0.045 A 
HETATM    3  C   UNL     1      -2.542   5.643  -1.308  1.00  0.00     0.030 A 
HETATM    4  C   UNL     1      -2.715   5.047  -2.549  1.00  0.00     0.063 A 
HETATM    5  N   UNL     1      -3.759   5.711  -3.128  1.00  0.00    -0.277 N 
HETATM    6  H   UNL     1      -4.162   5.539  -4.042  1.00  0.00     0.189 HD
HETATM    7  N   UNL     1      -4.273   6.702  -2.380  1.00  0.00    -0.168 NA
HETATM    8  C   UNL     1      -3.528   6.673  -1.251  1.00  0.00     0.156 A 
HETATM    9  C   UNL     1      -1.913   4.000  -3.003  1.00  0.00     0.034 A 
HETATM   10  C   UNL     1      -0.897   3.553  -2.143  1.00  0.00     0.031 A 
ENDROOT
BRANCH   1  11
HETATM   11  N   UNL     1       0.336   3.713  -0.020  1.00  0.00    -0.386 N 
HETATM   12  H   UNL     1       0.165   3.897   0.963  1.00  0.00     0.160 HD
BRANCH  11  13
HETATM   13  C   UNL     1       1.219   2.580  -0.278  1.00  0.00     0.161 C 
BRANCH  13  14
HETATM   14  C   UNL     1       0.556   1.225  -0.123  1.00  0.00    -0.007 A 
HETATM   15  C   UNL     1      -0.421   1.002   0.865  1.00  0.00     0.011 A 
HETATM   16  C   UNL     1      -0.997  -0.256   1.033  1.00  0.00     0.001 A 
HETATM   17  C   UNL     1      -0.593  -1.317   0.230  1.00  0.00     0.003 A 
HETATM   18  C   UNL     1       0.389  -1.122  -0.744  1.00  0.00     0.037 A 
HETATM   19  C   UNL     1       0.963   0.141  -0.928  1.00  0.00     0.076 A 
BRANCH  19  20
HETATM   20  O   UNL     1       1.946   0.410  -1.844  1.00  0.00    -0.350 OA
BRANCH  20  21
HETATM   21  C   UNL     1       2.149  -0.536  -2.892  1.00  0.00     0.180 C 
BRANCH  21  22
HETATM   22  C   UNL     1       3.060   0.094  -3.901  1.00  0.00     0.010 A 
HETATM   23  C   UNL     1       3.021  -0.327  -5.348  1.00  0.00     0.007 A 
HETATM   24  C   UNL     1       2.507   1.029  -4.947  1.00  0.00     0.007 A 
ENDBRANCH  21  22
ENDBRANCH  20  21
ENDBRANCH  19  20
ENDBRANCH  13  14
ENDBRANCH  11  13
ENDBRANCH   1  11
BRANCH   8  25
HETATM   25  C   UNL     1      -3.762   7.622  -0.154  1.00  0.00     0.270 C 
HETATM   26  N   UNL     1      -4.760   8.525  -0.401  1.00  0.00    -0.365 N 
HETATM   27  H   UNL     1      -5.240   8.483  -1.293  1.00  0.00     0.159 HD
HETATM   28  H   UNL     1      -4.981   9.229   0.284  1.00  0.00     0.159 HD
HETATM   29  O   UNL     1      -3.137   7.637   0.902  1.00  0.00    -0.266 OA
ENDBRANCH   8  25
TORSDOF 7
