REMARK  2 active torsions:
REMARK  status: ('A' for Active; 'I' for Inactive)
REMARK    1  A    between atoms: C_2  and  N_3 
REMARK    2  A    between atoms: N_3  and  C_4 
ROOT
HETATM    1  C   UNL     1       3.586  -2.865  -0.116  1.00  0.00     0.143 A 
HETATM    2  N   UNL     1       4.783  -3.480   0.046  1.00  0.00    -0.223 NA
HETATM    3  C   UNL     1       4.879  -4.805  -0.107  1.00  0.00     0.236 A 
HETATM    4  N   UNL     1       3.901  -5.653  -0.406  1.00  0.00    -0.234 NA
HETATM    5  C   UNL     1       2.722  -5.035  -0.574  1.00  0.00     0.114 A 
HETATM    6  C   UNL     1       2.470  -3.670  -0.476  1.00  0.00     0.053 A 
HETATM    7  S   UNL     1       1.336  -5.954  -0.934  1.00  0.00    -0.073 SA
HETATM    8  C   UNL     1       0.356  -4.571  -0.971  1.00  0.00    -0.008 A 
HETATM    9  C   UNL     1       1.067  -3.401  -0.759  1.00  0.00    -0.028 A 
HETATM   10  C   UNL     1       0.374  -2.066  -0.787  1.00  0.00     0.041 C 
HETATM   11  C   UNL     1      -1.044  -2.143  -1.375  1.00  0.00     0.005 C 
HETATM   12  C   UNL     1      -1.815  -3.359  -0.851  1.00  0.00     0.005 C 
HETATM   13  C   UNL     1      -1.114  -4.666  -1.241  1.00  0.00     0.047 C 
ENDROOT
BRANCH   1  14
HETATM   14  N   UNL     1       3.486  -1.475   0.057  1.00  0.00    -0.340 N 
HETATM   15  H   UNL     1       2.574  -1.105  -0.153  1.00  0.00     0.167 HD
BRANCH  14  16
HETATM   16  C   UNL     1       4.319  -0.542   0.704  1.00  0.00     0.036 A 
HETATM   17  C   UNL     1       4.024   0.825   0.555  1.00  0.00     0.032 A 
HETATM   18  C   UNL     1       4.806   1.811   1.164  1.00  0.00     0.042 A 
HETATM   19  C   UNL     1       5.905   1.443   1.930  1.00  0.00     0.102 A 
HETATM   20  C   UNL     1       6.246   0.094   2.047  1.00  0.00     0.104 A 
HETATM   21  O   UNL     1       6.607   2.454   2.533  1.00  0.00    -0.346 OA
HETATM   22  C   UNL     1       5.457  -0.887   1.441  1.00  0.00     0.069 A 
HETATM   23  O   UNL     1       7.336  -0.344   2.758  1.00  0.00    -0.346 OA
HETATM   24  C   UNL     1       8.235   0.730   3.053  1.00  0.00     0.202 C 
HETATM   25  C   UNL     1       7.472   1.945   3.555  1.00  0.00     0.202 C 
ENDBRANCH  14  16
ENDBRANCH   1  14
TORSDOF 2
