REMARK  8 active torsions:
REMARK  status: ('A' for Active; 'I' for Inactive)
REMARK    1  A    between atoms: C_3  and  C_4 
REMARK    2  A    between atoms: N_5  and  N_6 
REMARK    3  A    between atoms: C_17  and  C_18 
REMARK       I    between atoms: C_18  and  N_19 
REMARK    4  A    between atoms: N_19  and  C_20 
REMARK    5  A    between atoms: C_20  and  C_21 
REMARK    6  A    between atoms: C_21  and  C_22 
REMARK    7  A    between atoms: C_29  and  N_30 
REMARK    8  A    between atoms: C_31  and  O_32 
ROOT
HETATM    1  N   UNL     1       1.224   4.274  -0.056  1.00  0.00    -0.202 N 
HETATM    2  C   UNL     1       0.638   5.520   0.071  1.00  0.00     0.183 A 
HETATM    3  C   UNL     1       1.666   6.457  -0.003  1.00  0.00     0.124 A 
HETATM    4  N   UNL     1       1.414   7.779   0.178  1.00  0.00    -0.242 NA
HETATM    5  C   UNL     1       0.120   8.097   0.339  1.00  0.00     0.086 A 
HETATM    6  C   UNL     1      -0.911   7.122   0.376  1.00  0.00     0.088 A 
HETATM    7  N   UNL     1      -0.670   5.804   0.275  1.00  0.00    -0.225 NA
HETATM    8  C   UNL     1      -0.224   9.439   0.456  1.00  0.00     0.034 A 
HETATM    9  C   UNL     1      -1.553   9.846   0.593  1.00  0.00     0.002 A 
HETATM   10  C   UNL     1      -2.560   8.893   0.620  1.00  0.00     0.002 A 
HETATM   11  C   UNL     1      -2.229   7.541   0.516  1.00  0.00     0.034 A 
HETATM   12  C   UNL     1       2.884   5.762  -0.266  1.00  0.00     0.099 C 
HETATM   13  C   UNL     1       2.498   4.464  -0.585  1.00  0.00     0.122 C 
ENDROOT
BRANCH  12  14
HETATM   14  C   UNL     1       4.249   6.277  -0.159  1.00  0.00     0.236 C 
HETATM   15  N   UNL     1       5.255   5.346  -0.404  1.00  0.00    -0.258 NA
HETATM   16  H   UNL     1       4.916   4.656  -1.060  1.00  0.00     0.130 HD
HETATM   17  O   UNL     1       4.512   7.418   0.205  1.00  0.00    -0.274 OA
BRANCH  15  18
HETATM   18  C   UNL     1       5.760   4.592   0.739  1.00  0.00     0.099 C 
BRANCH  18  19
HETATM   19  C   UNL     1       6.463   5.390   1.838  1.00  0.00     0.048 C 
BRANCH  19  20
HETATM   20  C   UNL     1       6.639   4.523   3.070  1.00  0.00    -0.083 C 
HETATM   21  C   UNL     1       7.966   3.822   3.243  1.00  0.00     0.034 C 
HETATM   22  C   UNL     1       7.942   2.712   4.300  1.00  0.00     0.005 C 
HETATM   23  C   UNL     1       7.158   3.132   5.540  1.00  0.00     0.004 C 
HETATM   24  C   UNL     1       5.723   3.511   5.181  1.00  0.00     0.027 C 
HETATM   25  C   UNL     1       5.634   4.367   3.953  1.00  0.00    -0.024 C 
ENDBRANCH  19  20
ENDBRANCH  18  19
ENDBRANCH  15  18
ENDBRANCH  12  14
BRANCH  13  26
HETATM   26  N   UNL     1       3.182   3.415  -1.144  1.00  0.00    -0.286 NA
HETATM   27  H   UNL     1       3.563   3.573  -2.078  1.00  0.00     0.125 HD
HETATM   28  H   UNL     1       2.654   2.538  -1.184  1.00  0.00     0.125 HD
ENDBRANCH  13  26
BRANCH   1  29
HETATM   29  N   UNL     1       0.796   3.007   0.281  1.00  0.00    -0.176 NA
HETATM   30  C   UNL     1      -0.165   2.934   1.147  1.00  0.00     0.153 C 
BRANCH  30  31
HETATM   31  C   UNL     1      -0.542   1.627   1.737  1.00  0.00     0.016 A 
HETATM   32  C   UNL     1      -1.635   1.583   2.609  1.00  0.00     0.016 A 
HETATM   33  C   UNL     1      -1.958   0.387   3.257  1.00  0.00     0.001 A 
HETATM   34  C   UNL     1      -1.192  -0.760   3.039  1.00  0.00     0.003 A 
HETATM   35  C   UNL     1      -0.103  -0.719   2.170  1.00  0.00     0.037 A 
HETATM   36  C   UNL     1       0.221   0.471   1.524  1.00  0.00     0.077 A 
BRANCH  36  37
HETATM   37  O   UNL     1       1.326   0.448   0.716  1.00  0.00    -0.360 OA
HETATM   38  H   UNL     1       1.438   1.365   0.384  1.00  0.00     0.217 HD
ENDBRANCH  36  37
ENDBRANCH  30  31
ENDBRANCH   1  29
TORSDOF 8
