REMARK  5 active torsions:
REMARK  status: ('A' for Active; 'I' for Inactive)
REMARK    1  A    between atoms: C_2  and  C_3 
REMARK    2  A    between atoms: C_4  and  N_5 
REMARK    3  A    between atoms: N_5  and  C_6 
REMARK    4  A    between atoms: C_7  and  C_8 
REMARK    5  A    between atoms: C_11  and  C_12 
ROOT
HETATM    1  C   UNL     1       5.967   1.138   2.429  1.00  0.00     0.113 C 
HETATM    2  C   UNL     1       6.400   2.413   2.475  1.00  0.00     0.082 C 
HETATM    3  C   UNL     1       5.806   3.453   1.539  1.00  0.00     0.024 C 
HETATM    4  N   UNL     1       5.313   4.316   0.762  1.00  0.00    -0.096 N 
ENDROOT
BRANCH   2   5
HETATM    5  C   UNL     1       7.466   2.782   3.336  1.00  0.00     0.119 A 
HETATM    6  S   UNL     1       9.105   2.506   2.851  1.00  0.00    -0.078 SA
HETATM    7  C   UNL     1       9.657   3.175   4.328  1.00  0.00     0.084 A 
HETATM    8  C   UNL     1       8.584   3.566   5.103  1.00  0.00     0.075 A 
HETATM    9  N   UNL     1       7.344   3.344   4.523  1.00  0.00    -0.239 NA
BRANCH   8  10
HETATM   10  C   UNL     1       8.690   4.189   6.419  1.00  0.00    -0.005 A 
HETATM   11  C   UNL     1       7.641   4.999   6.880  1.00  0.00     0.039 A 
HETATM   12  C   UNL     1       7.705   5.612   8.136  1.00  0.00     0.056 A 
HETATM   13 CL   UNL     1       6.371   6.600   8.619  1.00  0.00    -0.083 Cl
HETATM   14  C   UNL     1       8.823   5.415   8.951  1.00  0.00     0.055 A 
HETATM   15 CL   UNL     1       8.974   6.136  10.513  1.00  0.00    -0.083 Cl
HETATM   16  C   UNL     1       9.869   4.604   8.505  1.00  0.00     0.026 A 
HETATM   17  C   UNL     1       9.803   3.994   7.247  1.00  0.00     0.015 A 
ENDBRANCH   8  10
ENDBRANCH   2   5
BRANCH   1  18
HETATM   18  N   UNL     1       4.959   0.603   1.661  1.00  0.00    -0.364 N 
HETATM   19  H   UNL     1       5.089  -0.354   1.308  1.00  0.00     0.165 HD
BRANCH  18  20
HETATM   20  C   UNL     1       3.601   1.006   1.623  1.00  0.00     0.048 A 
HETATM   21  C   UNL     1       2.797   0.690   0.489  1.00  0.00     0.039 A 
HETATM   22  C   UNL     1       1.463   1.119   0.396  1.00  0.00     0.057 A 
HETATM   23  C   UNL     1       0.961   1.866   1.437  1.00  0.00     0.106 A 
HETATM   24  C   UNL     1       1.727   2.194   2.529  1.00  0.00     0.107 A 
HETATM   25  O   UNL     1      -0.304   2.356   1.525  1.00  0.00    -0.323 OA
HETATM   26  C   UNL     1       3.041   1.792   2.646  1.00  0.00     0.070 A 
HETATM   27  O   UNL     1       1.039   2.929   3.443  1.00  0.00    -0.323 OA
HETATM   28  C   UNL     1      -0.247   3.034   2.798  1.00  0.00     0.352 A 
BRANCH  21  29
HETATM   29  C   UNL     1       3.380  -0.107  -0.622  1.00  0.00     0.158 C 
HETATM   30  C   UNL     1       3.011   0.257  -2.036  1.00  0.00     0.097 C 
HETATM   31  O   UNL     1       4.142  -1.039  -0.363  1.00  0.00    -0.293 OA
ENDBRANCH  21  29
ENDBRANCH  18  20
ENDBRANCH   1  18
TORSDOF 5
