REMARK  3 active torsions:
REMARK  status: ('A' for Active; 'I' for Inactive)
REMARK    1  A    between atoms: C_3  and  N_4 
REMARK       I    between atoms: N_7  and  C_8 
REMARK    2  A    between atoms: C_8  and  C_9 
REMARK    3  A    between atoms: C_23  and  O_24 
ROOT
HETATM    1  N   UNL     1       0.905   2.572  -0.480  1.00  0.00    -0.278 NA
HETATM    2  C   UNL     1       1.969   2.622  -1.517  1.00  0.00     0.115 C 
HETATM    3  C   UNL     1       2.170   4.064  -2.018  1.00  0.00     0.141 C 
HETATM    4  N   UNL     1       2.425   4.986  -0.902  1.00  0.00    -0.346 N 
HETATM    5  C   UNL     1       3.283   6.059  -1.127  1.00  0.00     0.256 C 
HETATM    6  O   UNL     1       3.776   6.294  -2.229  1.00  0.00    -0.267 OA
HETATM    7  C   UNL     1       1.395   4.928   0.148  1.00  0.00     0.141 C 
HETATM    8  C   UNL     1       1.194   3.488   0.661  1.00  0.00     0.115 C 
ENDROOT
BRANCH   5   9
HETATM    9  C   UNL     1       3.670   6.944  -0.007  1.00  0.00     0.064 A 
HETATM   10  C   UNL     1       3.829   8.302  -0.209  1.00  0.00     0.077 A 
HETATM   11  C   UNL     1       4.219   9.159   0.823  1.00  0.00     0.065 A 
HETATM   12  N   UNL     1       3.683   9.074  -1.365  1.00  0.00    -0.330 N 
HETATM   13  N   UNL     1       4.302  10.451   0.306  1.00  0.00    -0.331 N 
HETATM   14  C   UNL     1       4.483   8.710   2.094  1.00  0.00     0.074 A 
HETATM   15  C   UNL     1       3.992  10.401  -1.059  1.00  0.00     0.176 A 
HETATM   16  H   UNL     1       4.587  11.284   0.799  1.00  0.00     0.168 HD
HETATM   17  S   UNL     1       4.009  11.673  -2.105  1.00  0.00    -0.041 SA
HETATM   18  C   UNL     1       4.366   7.336   2.297  1.00  0.00     0.119 A 
HETATM   19  F   UNL     1       4.633   6.833   3.509  1.00  0.00    -0.206 F 
HETATM   20  C   UNL     1       3.984   6.453   1.269  1.00  0.00     0.061 A 
HETATM   21  H   UNL     1       3.483   8.701  -2.286  1.00  0.00     0.168 HD
ENDBRANCH   5   9
BRANCH   1  22
HETATM   22  C   UNL     1       0.599   1.273   0.002  1.00  0.00     0.044 A 
HETATM   23  C   UNL     1       1.529   0.237   0.143  1.00  0.00     0.026 A 
HETATM   24  C   UNL     1       1.143  -1.002   0.669  1.00  0.00     0.002 A 
HETATM   25  C   UNL     1      -0.177  -1.224   1.067  1.00  0.00     0.003 A 
HETATM   26  C   UNL     1      -1.121  -0.210   0.931  1.00  0.00     0.038 A 
HETATM   27  C   UNL     1      -0.727   1.010   0.398  1.00  0.00     0.087 A 
BRANCH  27  28
HETATM   28  O   UNL     1      -1.672   1.987   0.220  1.00  0.00    -0.359 OA
HETATM   29  H   UNL     1      -1.192   2.653  -0.313  1.00  0.00     0.218 HD
ENDBRANCH  27  28
ENDBRANCH   1  22
TORSDOF 3
