REMARK  9 active torsions:
REMARK  status: ('A' for Active; 'I' for Inactive)
REMARK    1  A    between atoms: O_2  and  C_3 
REMARK    2  A    between atoms: C_4  and  O_5 
REMARK    3  A    between atoms: C_8  and  C_9 
REMARK    4  A    between atoms: C_9  and  C_10 
REMARK    5  A    between atoms: C_10  and  N_11 
REMARK       I    between atoms: N_11  and  C_12 
REMARK    6  A    between atoms: C_12  and  C_13 
REMARK    7  A    between atoms: C_13  and  C_14 
REMARK    8  A    between atoms: N_21  and  C_22 
REMARK    9  A    between atoms: C_22  and  C_23 
REMARK       I    between atoms: C_23  and  N_24 
ROOT
HETATM    1  C   UNL     1       2.916   9.763  -0.183  1.00  0.00     0.048 C 
HETATM    2  C   UNL     1       3.324  11.075   0.228  1.00  0.00     0.006 A 
HETATM    3  C   UNL     1       2.200  11.909   0.141  1.00  0.00     0.045 A 
HETATM    4  C   UNL     1       2.246  13.269   0.492  1.00  0.00     0.030 A 
HETATM    5  C   UNL     1       3.462  13.803   0.922  1.00  0.00     0.002 A 
HETATM    6  C   UNL     1       4.595  13.005   1.011  1.00  0.00     0.001 A 
HETATM    7  C   UNL     1       4.538  11.647   0.675  1.00  0.00     0.015 A 
HETATM    8  N   UNL     1       1.151  11.134  -0.306  1.00  0.00    -0.346 N 
HETATM    9  C   UNL     1       1.597   9.874  -0.590  1.00  0.00     0.108 C 
ENDROOT
BRANCH   1  10
HETATM   10  C   UNL     1       3.644   8.497  -0.227  1.00  0.00     0.251 C 
HETATM   11  O   UNL     1       3.146   7.482  -0.716  1.00  0.00    -0.281 OA
BRANCH  10  12
HETATM   12  C   UNL     1       5.053   8.359   0.356  1.00  0.00     0.292 C 
HETATM   13  N   UNL     1       6.072   7.945  -0.478  1.00  0.00    -0.354 N 
HETATM   14  H   UNL     1       6.922   7.718   0.025  1.00  0.00     0.162 HD
HETATM   15  O   UNL     1       5.260   8.589   1.541  1.00  0.00    -0.264 OA
BRANCH  13  16
HETATM   16  C   UNL     1       5.886   7.431  -1.824  1.00  0.00     0.127 C 
BRANCH  16  17
HETATM   17  C   UNL     1       7.219   7.147  -2.516  1.00  0.00     0.058 C 
BRANCH  17  18
HETATM   18  C   UNL     1       7.024   6.701  -3.943  1.00  0.00    -0.054 A 
HETATM   19  C   UNL     1       7.198   7.607  -5.001  1.00  0.00     0.046 A 
HETATM   20  C   UNL     1       6.995   7.226  -6.339  1.00  0.00     0.102 A 
HETATM   21  C   UNL     1       6.608   5.902  -6.614  1.00  0.00     0.101 A 
HETATM   22  C   UNL     1       6.424   5.005  -5.552  1.00  0.00     0.040 A 
HETATM   23  C   UNL     1       6.631   5.394  -4.230  1.00  0.00     0.010 A 
BRANCH  20  24
HETATM   24  O   UNL     1       7.137   8.094  -7.389  1.00  0.00    -0.353 OA
HETATM   25  C   UNL     1       7.567   9.421  -7.117  1.00  0.00     0.210 C 
ENDBRANCH  20  24
BRANCH  21  26
HETATM   26  O   UNL     1       6.349   5.319  -7.828  1.00  0.00    -0.353 OA
HETATM   27  C   UNL     1       6.704   6.017  -9.011  1.00  0.00     0.210 C 
ENDBRANCH  21  26
ENDBRANCH  17  18
ENDBRANCH  16  17
ENDBRANCH  13  16
ENDBRANCH  10  12
ENDBRANCH   1  10
BRANCH   8  28
HETATM   28  C   UNL     1      -0.219  11.584  -0.505  1.00  0.00     0.231 C 
BRANCH  28  29
HETATM   29  C   UNL     1      -1.007  11.624   0.795  1.00  0.00     0.238 C 
HETATM   30  N   UNL     1      -1.698  10.491   1.234  1.00  0.00    -0.351 N 
HETATM   31  C   UNL     1      -2.417  10.571   2.508  1.00  0.00     0.126 C 
HETATM   32  C   UNL     1      -1.769   9.208   0.526  1.00  0.00     0.126 C 
HETATM   33  C   UNL     1      -1.946   9.562   3.559  1.00  0.00     0.020 C 
HETATM   34  C   UNL     1      -2.401   8.135   3.259  1.00  0.00     0.002 C 
HETATM   35  C   UNL     1      -1.513   7.359   2.288  1.00  0.00     0.002 C 
HETATM   36  C   UNL     1      -0.864   8.156   1.159  1.00  0.00     0.020 C 
HETATM   37  O   UNL     1      -1.033  12.683   1.435  1.00  0.00    -0.272 OA
ENDBRANCH  28  29
ENDBRANCH   8  28
TORSDOF 9
