REMARK  3 active torsions:
REMARK  status: ('A' for Active; 'I' for Inactive)
REMARK    1  A    between atoms: C_2  and  C_3 
REMARK    2  A    between atoms: C_10  and  C_12 
REMARK    3  A    between atoms: C_10  and  O_11 
ROOT
HETATM    1  C   UNL     1       2.708  -1.074   1.182  1.00  0.00    -0.058 A 
HETATM    2  C   UNL     1       3.441  -0.563   2.266  1.00  0.00     0.020 A 
HETATM    3  C   UNL     1       3.789  -1.423   3.297  1.00  0.00     0.018 A 
HETATM    4  C   UNL     1       3.394  -2.761   3.263  1.00  0.00     0.045 A 
HETATM    5  N   UNL     1       3.859  -3.433   4.383  1.00  0.00    -0.323 N 
HETATM    6  C   UNL     1       4.600  -2.590   5.215  1.00  0.00     0.266 A 
HETATM    7  O   UNL     1       5.111  -2.942   6.268  1.00  0.00    -0.269 OA
HETATM    8  C   UNL     1       4.560  -1.156   4.573  1.00  0.00     0.199 A 
HETATM    9  C   UNL     1       2.667  -3.293   2.220  1.00  0.00     0.031 A 
HETATM   10  C   UNL     1       2.329  -2.436   1.169  1.00  0.00     0.009 A 
HETATM   11  H   UNL     1       3.728  -4.413   4.586  1.00  0.00     0.169 HD
ENDROOT
BRANCH   8  12
HETATM   12  C   UNL     1       5.929  -0.637   4.189  1.00  0.00     0.025 A 
HETATM   13  C   UNL     1       6.899  -1.261   3.310  1.00  0.00     0.003 A 
HETATM   14  C   UNL     1       8.009  -0.419   3.237  1.00  0.00     0.043 A 
HETATM   15  C   UNL     1       6.939  -2.458   2.559  1.00  0.00     0.014 A 
HETATM   16  C   UNL     1       9.137  -0.701   2.455  1.00  0.00     0.030 A 
HETATM   17  N   UNL     1       7.755   0.656   4.047  1.00  0.00    -0.359 N 
HETATM   18  C   UNL     1       9.140  -1.887   1.719  1.00  0.00     0.002 A 
HETATM   19  C   UNL     1       8.057  -2.757   1.770  1.00  0.00     0.001 A 
HETATM   20  H   UNL     1       8.401   1.419   4.195  1.00  0.00     0.166 HD
HETATM   21  C   UNL     1       6.521   0.547   4.631  1.00  0.00     0.016 A 
HETATM   22  C   UNL     1       6.034   1.594   5.570  1.00  0.00     0.069 C 
ENDBRANCH   8  12
BRANCH   8  23
HETATM   23  O   UNL     1       3.802  -0.251   5.373  1.00  0.00    -0.371 OA
HETATM   24  H   UNL     1       2.872  -0.516   5.285  1.00  0.00     0.212 HD
ENDBRANCH   8  23
BRANCH   1  25
HETATM   25  C   UNL     1       2.365  -0.179   0.017  1.00  0.00     0.034 C 
HETATM   26  C   UNL     1       3.526  -0.055  -0.959  1.00  0.00     0.010 C 
ENDBRANCH   1  25
TORSDOF 3
