REMARK  3 active torsions:
REMARK  status: ('A' for Active; 'I' for Inactive)
REMARK    1  A    between atoms: O_2  and  C_3 
REMARK    2  A    between atoms: C_4  and  N_5 
REMARK       I    between atoms: N_5  and  C_6 
REMARK       I    between atoms: C_6  and  N_7 
REMARK    3  A    between atoms: C_8  and  C_9 
ROOT
HETATM    1  N   UNL     1       0.337   3.958   1.999  1.00  0.00    -0.306 N 
HETATM    2  C   UNL     1       0.846   3.876   0.718  1.00  0.00     0.323 C 
HETATM    3  N   UNL     1       1.206   5.121   0.144  1.00  0.00    -0.324 N 
HETATM    4  C   UNL     1       2.264   5.116  -0.899  1.00  0.00     0.139 C 
HETATM    5  C   UNL     1       2.533   6.499  -1.544  1.00  0.00     0.032 C 
HETATM    6  C   UNL     1       2.559   7.641  -0.549  1.00  0.00     0.004 C 
HETATM    7  C   UNL     1       1.244   7.646   0.202  1.00  0.00     0.020 C 
HETATM    8  C   UNL     1       1.080   6.339   0.957  1.00  0.00     0.128 C 
HETATM    9  O   UNL     1       0.978   2.799   0.145  1.00  0.00    -0.247 OA
HETATM   10  H   UNL     1       0.736   4.659   2.606  1.00  0.00     0.171 HD
ENDROOT
BRANCH   4  11
HETATM   11  C   UNL     1       1.993   4.177  -2.043  1.00  0.00     0.033 A 
HETATM   12  N   UNL     1       0.739   3.970  -2.569  1.00  0.00    -0.357 N 
HETATM   13  H   UNL     1      -0.112   4.354  -2.183  1.00  0.00     0.166 HD
HETATM   14  C   UNL     1       0.803   3.139  -3.665  1.00  0.00     0.042 A 
HETATM   15  C   UNL     1       2.138   2.770  -3.821  1.00  0.00    -0.007 A 
HETATM   16  C   UNL     1      -0.210   2.680  -4.515  1.00  0.00     0.030 A 
HETATM   17  C   UNL     1       2.873   3.417  -2.793  1.00  0.00     0.041 A 
HETATM   18  C   UNL     1       2.485   1.904  -4.876  1.00  0.00     0.014 A 
HETATM   19  C   UNL     1       1.486   1.440  -5.738  1.00  0.00     0.001 A 
HETATM   20  C   UNL     1       0.159   1.825  -5.558  1.00  0.00     0.002 A 
ENDBRANCH   4  11
BRANCH   1  21
HETATM   21  C   UNL     1      -0.318   2.923   2.703  1.00  0.00     0.072 A 
HETATM   22  C   UNL     1      -0.285   2.968   4.108  1.00  0.00     0.095 A 
HETATM   23  C   UNL     1      -0.990   2.043   4.880  1.00  0.00     0.042 A 
HETATM   24  C   UNL     1      -1.710   1.036   4.241  1.00  0.00     0.045 A 
HETATM   25  C   UNL     1      -1.720   0.974   2.850  1.00  0.00     0.118 A 
HETATM   26  C   UNL     1      -1.033   1.905   2.074  1.00  0.00     0.074 A 
HETATM   27  F   UNL     1      -2.426   0.008   2.247  1.00  0.00    -0.206 F 
BRANCH  22  28
HETATM   28  O   UNL     1       0.434   3.957   4.738  1.00  0.00    -0.354 OA
HETATM   29  C   UNL     1       1.730   3.457   5.085  1.00  0.00     0.210 C 
ENDBRANCH  22  28
ENDBRANCH   1  21
TORSDOF 3
