REMARK  8 active torsions:
REMARK  status: ('A' for Active; 'I' for Inactive)
REMARK    1  A    between atoms: C_2  and  N_3 
REMARK    2  A    between atoms: C_2  and  C_36 
REMARK       I    between atoms: N_3  and  C_4 
REMARK    3  A    between atoms: C_4  and  C_5 
REMARK    4  A    between atoms: C_5  and  N_6 
REMARK       I    between atoms: N_12  and  C_13 
REMARK    5  A    between atoms: C_13  and  C_14 
REMARK    6  A    between atoms: C_15  and  O_16 
REMARK    7  A    between atoms: C_21  and  O_22 
REMARK    8  A    between atoms: N_27  and  C_28 
ROOT
HETATM    1  N   UNL     1       1.679  -1.666   0.822  1.00  0.00    -0.325 N 
HETATM    2  C   UNL     1       1.954  -0.320   0.928  1.00  0.00     0.250 C 
HETATM    3  O   UNL     1       1.984   0.471  -0.002  1.00  0.00    -0.270 OA
HETATM    4  C   UNL     1       2.354  -0.053   2.392  1.00  0.00     0.118 C 
HETATM    5  C   UNL     1       1.655   1.223   2.892  1.00  0.00     0.061 C 
HETATM    6  C   UNL     1       2.399   2.497   2.508  1.00  0.00     0.129 C 
HETATM    7  N   UNL     1       3.832   2.365   2.723  1.00  0.00    -0.348 N 
HETATM    8  C   UNL     1       4.406   2.917   3.875  1.00  0.00     0.259 C 
HETATM    9  O   UNL     1       3.747   3.412   4.785  1.00  0.00    -0.267 OA
HETATM   10  C   UNL     1       4.453   1.317   1.928  1.00  0.00     0.129 C 
HETATM   11  C   UNL     1       3.902  -0.035   2.376  1.00  0.00     0.061 C 
HETATM   12  N   UNL     1       1.842  -1.285   3.065  1.00  0.00    -0.346 N 
HETATM   13  C   UNL     1       1.553  -2.325   2.087  1.00  0.00     0.254 C 
ENDROOT
BRANCH  12  14
HETATM   14  C   UNL     1       1.890  -1.586   4.415  1.00  0.00     0.032 A 
HETATM   15  C   UNL     1       2.534  -0.774   5.364  1.00  0.00     0.029 A 
HETATM   16  C   UNL     1       2.556  -1.080   6.733  1.00  0.00     0.002 A 
HETATM   17  C   UNL     1       1.921  -2.220   7.203  1.00  0.00     0.000 A 
HETATM   18  C   UNL     1       1.269  -3.048   6.302  1.00  0.00     0.002 A 
HETATM   19  C   UNL     1       1.257  -2.732   4.935  1.00  0.00     0.029 A 
ENDBRANCH  12  14
BRANCH   1  20
HETATM   20  C   UNL     1       1.675  -2.410  -0.425  1.00  0.00     0.230 C 
BRANCH  20  21
HETATM   21  C   UNL     1       0.312  -2.911  -0.896  1.00  0.00     0.236 C 
HETATM   22  N   UNL     1      -0.733  -2.054  -0.635  1.00  0.00    -0.351 N 
HETATM   23  H   UNL     1      -0.462  -1.134  -0.306  1.00  0.00     0.163 HD
HETATM   24  O   UNL     1       0.218  -3.938  -1.563  1.00  0.00    -0.272 OA
BRANCH  22  25
HETATM   25  C   UNL     1      -2.033  -2.125  -1.292  1.00  0.00     0.113 C 
HETATM   26  C   UNL     1      -2.677  -3.514  -1.312  1.00  0.00     0.037 C 
BRANCH  25  27
HETATM   27  C   UNL     1      -1.975  -1.449  -2.652  1.00  0.00    -0.036 A 
HETATM   28  C   UNL     1      -2.420  -0.124  -2.794  1.00  0.00     0.009 A 
HETATM   29  C   UNL     1      -2.339   0.531  -4.024  1.00  0.00     0.001 A 
HETATM   30  C   UNL     1      -1.804  -0.124  -5.130  1.00  0.00     0.000 A 
HETATM   31  C   UNL     1      -1.349  -1.434  -5.006  1.00  0.00     0.001 A 
HETATM   32  C   UNL     1      -1.432  -2.092  -3.777  1.00  0.00     0.009 A 
ENDBRANCH  25  27
ENDBRANCH  22  25
ENDBRANCH  20  21
ENDBRANCH   1  20
BRANCH   8  33
HETATM   33  C   UNL     1       5.884   3.018   3.938  1.00  0.00     0.098 A 
HETATM   34  C   UNL     1       6.478   4.238   3.574  1.00  0.00     0.086 A 
HETATM   35  C   UNL     1       7.865   4.385   3.613  1.00  0.00     0.038 A 
HETATM   36  C   UNL     1       8.664   3.310   3.988  1.00  0.00     0.005 A 
HETATM   37  C   UNL     1       8.079   2.096   4.362  1.00  0.00     0.038 A 
HETATM   38  C   UNL     1       6.685   1.941   4.356  1.00  0.00     0.086 A 
BRANCH  34  39
HETATM   39  O   UNL     1       5.727   5.347   3.284  1.00  0.00    -0.355 OA
HETATM   40  C   UNL     1       5.543   5.492   1.878  1.00  0.00     0.210 C 
ENDBRANCH  34  39
BRANCH  38  41
HETATM   41  O   UNL     1       6.041   0.795   4.739  1.00  0.00    -0.355 OA
HETATM   42  C   UNL     1       6.837  -0.352   5.017  1.00  0.00     0.210 C 
ENDBRANCH  38  41
ENDBRANCH   8  33
TORSDOF 8
