REMARK  10 active torsions:
REMARK  status: ('A' for Active; 'I' for Inactive)
REMARK    1  A    between atoms: C_2  and  C_3 
REMARK    2  A    between atoms: C_3  and  C_4 
REMARK       I    between atoms: C_4  and  N_5 
REMARK    3  A    between atoms: N_5  and  C_6 
REMARK    4  A    between atoms: C_6  and  N_7 
REMARK    5  A    between atoms: C_6  and  C_21 
REMARK    6  A    between atoms: N_7  and  C_8 
REMARK    7  A    between atoms: C_8  and  N_9 
REMARK    8  A    between atoms: N_9  and  N_10 
REMARK       I    between atoms: N_10  and  C_11 
REMARK    9  A    between atoms: C_11  and  C_12 
REMARK   10  A    between atoms: C_13  and  O_14 
ROOT
HETATM    1  C   UNL     1       2.568  -0.991  -1.696  1.00  0.00     0.188 C 
HETATM    2  S   UNL     1       1.184  -1.897  -1.957  1.00  0.00    -0.039 SA
ENDROOT
BRANCH   1   3
HETATM    3  N   UNL     1       3.652  -1.626  -1.187  1.00  0.00    -0.341 N 
HETATM    4  H   UNL     1       3.487  -2.602  -0.949  1.00  0.00     0.164 HD
BRANCH   3   5
HETATM    5  C   UNL     1       4.908  -1.101  -0.662  1.00  0.00     0.241 C 
BRANCH   5   6
HETATM    6  N   UNL     1       5.980  -1.971  -1.138  1.00  0.00    -0.336 N 
HETATM    7  C   UNL     1       6.126  -3.278  -0.759  1.00  0.00     0.219 C 
HETATM    8  O   UNL     1       5.353  -3.832   0.013  1.00  0.00    -0.274 OA
HETATM    9  H   UNL     1       6.573  -1.617  -1.877  1.00  0.00     0.164 HD
BRANCH   7  10
HETATM   10  C   UNL     1       7.299  -3.999  -1.389  1.00  0.00     0.102 C 
BRANCH  10  11
HETATM   11  C   UNL     1       8.634  -3.651  -0.736  1.00  0.00     0.005 C 
HETATM   12  C   UNL     1       9.260  -2.374  -1.278  1.00  0.00     0.005 C 
ENDBRANCH  10  11
ENDBRANCH   7  10
ENDBRANCH   5   6
BRANCH   5  13
HETATM   13  C   UNL     1       4.891  -0.732   0.890  1.00  0.00     0.226 C 
HETATM   14 CL   UNL     1       6.566  -0.539   1.528  1.00  0.00    -0.080 Cl
HETATM   15 CL   UNL     1       4.072   0.872   1.111  1.00  0.00    -0.080 Cl
HETATM   16 CL   UNL     1       4.004  -1.902   1.916  1.00  0.00    -0.080 Cl
ENDBRANCH   5  13
ENDBRANCH   3   5
ENDBRANCH   1   3
BRANCH   1  17
HETATM   17  N   UNL     1       2.674   0.349  -1.951  1.00  0.00    -0.274 N 
HETATM   18  H   UNL     1       3.565   0.839  -1.975  1.00  0.00     0.189 HD
BRANCH  17  19
HETATM   19  N   UNL     1       1.662   1.019  -2.653  1.00  0.00    -0.264 N 
HETATM   20  C   UNL     1       1.974   2.219  -3.257  1.00  0.00     0.272 C 
HETATM   21  O   UNL     1       3.079   2.750  -3.142  1.00  0.00    -0.266 OA
HETATM   22  H   UNL     1       0.735   0.601  -2.633  1.00  0.00     0.190 HD
BRANCH  20  23
HETATM   23  C   UNL     1       0.904   2.886  -4.044  1.00  0.00     0.066 A 
HETATM   24  C   UNL     1       0.976   4.269  -4.273  1.00  0.00     0.081 A 
HETATM   25  C   UNL     1      -0.019   4.920  -5.000  1.00  0.00     0.037 A 
HETATM   26  C   UNL     1      -1.086   4.192  -5.526  1.00  0.00     0.003 A 
HETATM   27  C   UNL     1      -1.155   2.814  -5.330  1.00  0.00     0.001 A 
HETATM   28  C   UNL     1      -0.163   2.159  -4.593  1.00  0.00     0.020 A 
BRANCH  24  29
HETATM   29  O   UNL     1       1.999   5.054  -3.813  1.00  0.00    -0.360 OA
HETATM   30  H   UNL     1       2.699   4.465  -3.456  1.00  0.00     0.217 HD
ENDBRANCH  24  29
ENDBRANCH  20  23
ENDBRANCH  17  19
ENDBRANCH   1  17
TORSDOF 10
