REMARK  3 active torsions:
REMARK  status: ('A' for Active; 'I' for Inactive)
REMARK    1  A    between atoms: N_7  and  C_9 
REMARK    2  A    between atoms: C_9  and  C_10 
REMARK    3  A    between atoms: C_13  and  C_14 
ROOT
HETATM    1  C   UNL     1       0.715   0.476   0.168  1.00  0.00     0.269 C 
HETATM    2  N   UNL     1       2.172   0.205  -0.119  1.00  0.00    -0.074 N 
HETATM    3  H   UNL     1       2.382   0.912  -0.842  1.00  0.00     0.279 HD
HETATM    4  C   UNL     1       2.500  -1.114  -0.771  1.00  0.00     0.245 C 
HETATM    5  C   UNL     1       2.644  -2.323   0.210  1.00  0.00     0.008 C 
HETATM    6  C   UNL     1       3.293  -3.480  -0.618  1.00  0.00     0.246 C 
HETATM    7  N   UNL     1       3.241  -4.844   0.032  1.00  0.00    -0.063 N 
HETATM    8  H   UNL     1       3.444  -5.506  -0.739  1.00  0.00     0.280 HD
HETATM    9  C   UNL     1       1.873  -5.244   0.508  1.00  0.00     0.235 C 
HETATM   10  C   UNL     1       1.299  -4.168   1.410  1.00  0.00     0.029 C 
HETATM   11  C   UNL     1       1.261  -2.802   0.718  1.00  0.00     0.014 C 
HETATM   12  C   UNL     1       3.555  -1.888   1.386  1.00  0.00     0.014 C 
HETATM   13  C   UNL     1       3.149  -0.559   2.029  1.00  0.00     0.029 C 
HETATM   14  C   UNL     1       3.089   0.572   1.018  1.00  0.00     0.234 C 
ENDROOT
BRANCH   7  15
HETATM   15  C   UNL     1       4.376  -5.203   1.006  1.00  0.00     0.323 C 
BRANCH  15  16
HETATM   16  C   UNL     1       5.704  -5.209   0.344  1.00  0.00     0.199 A 
HETATM   17  O   UNL     1       6.609  -4.285   0.755  1.00  0.00    -0.194 OA
HETATM   18  N   UNL     1       7.687  -4.387  -0.114  1.00  0.00    -0.106 NA
HETATM   19  C   UNL     1       7.352  -5.388  -0.946  1.00  0.00     0.189 A 
HETATM   20  N   UNL     1       6.074  -5.875  -0.724  1.00  0.00    -0.202 NA
BRANCH  19  21
HETATM   21  C   UNL     1       8.207  -5.895  -2.011  1.00  0.00     0.016 A 
HETATM   22  C   UNL     1       9.292  -5.143  -2.484  1.00  0.00     0.039 A 
HETATM   23  C   UNL     1      10.098  -5.643  -3.507  1.00  0.00     0.035 A 
HETATM   24 CL   UNL     1      11.411  -4.699  -4.091  1.00  0.00    -0.084 Cl
HETATM   25  C   UNL     1       9.845  -6.895  -4.063  1.00  0.00     0.024 A 
HETATM   26  C   UNL     1       8.773  -7.654  -3.596  1.00  0.00     0.003 A 
HETATM   27  C   UNL     1       7.955  -7.155  -2.578  1.00  0.00     0.015 A 
ENDBRANCH  19  21
ENDBRANCH  15  16
ENDBRANCH   7  15
TORSDOF 3
