REMARK  4 active torsions:
REMARK  status: ('A' for Active; 'I' for Inactive)
REMARK    1  A    between atoms: C_2  and  C_3 
REMARK    2  A    between atoms: C_6  and  C_7 
REMARK    3  A    between atoms: C_11  and  C_12 
REMARK       I    between atoms: C_12  and  N_13 
REMARK    4  A    between atoms: N_13  and  N_14 
ROOT
HETATM    1  C   UNL     1       4.198  -9.055   0.074  1.00  0.00     0.289 C 
HETATM    2  N   UNL     1       2.954  -9.470   0.520  1.00  0.00    -0.241 N 
HETATM    3  O   UNL     1       5.101  -9.819  -0.258  1.00  0.00    -0.264 OA
HETATM    4  H   UNL     1       2.251  -8.790   0.807  1.00  0.00     0.192 HD
ENDROOT
BRANCH   1   5
HETATM    5  C   UNL     1       4.381  -7.626   0.029  1.00  0.00     0.121 A 
HETATM    6  N   UNL     1       5.579  -7.082  -0.338  1.00  0.00    -0.272 N 
HETATM    7  N   UNL     1       5.606  -5.743  -0.319  1.00  0.00    -0.174 NA
HETATM    8  H   UNL     1       6.417  -7.590  -0.605  1.00  0.00     0.189 HD
HETATM    9  C   UNL     1       4.367  -5.382   0.052  1.00  0.00     0.089 A 
HETATM   10  C   UNL     1       3.568  -6.539   0.286  1.00  0.00     0.071 A 
BRANCH   9  11
HETATM   11  C   UNL     1       3.986  -3.970   0.176  1.00  0.00    -0.006 A 
HETATM   12  C   UNL     1       2.641  -3.576   0.185  1.00  0.00     0.014 A 
HETATM   13  C   UNL     1       2.293  -2.224   0.298  1.00  0.00     0.008 A 
HETATM   14  C   UNL     1       3.283  -1.240   0.400  1.00  0.00    -0.059 A 
HETATM   15  C   UNL     1       4.626  -1.629   0.399  1.00  0.00     0.008 A 
HETATM   16  C   UNL     1       4.972  -2.979   0.283  1.00  0.00     0.014 A 
BRANCH  14  17
HETATM   17  C   UNL     1       2.909   0.214   0.533  1.00  0.00     0.034 C 
HETATM   18  C   UNL     1       2.714   0.618   1.986  1.00  0.00     0.010 C 
ENDBRANCH  14  17
ENDBRANCH   9  11
ENDBRANCH   1   5
BRANCH   2  19
HETATM   19  N   UNL     1       2.662 -10.803   0.614  1.00  0.00    -0.165 NA
HETATM   20  C   UNL     1       1.492 -11.111   1.074  1.00  0.00     0.157 A 
HETATM   21  C   UNL     1       0.374 -10.172   1.539  1.00  0.00     0.277 A 
HETATM   22  C   UNL     1       0.980 -12.462   1.258  1.00  0.00     0.027 A 
HETATM   23  O   UNL     1       0.441  -8.961   1.526  1.00  0.00    -0.266 OA
HETATM   24  N   UNL     1      -0.654 -10.994   1.946  1.00  0.00    -0.321 N 
HETATM   25  C   UNL     1      -0.305 -12.333   1.783  1.00  0.00     0.048 A 
HETATM   26  H   UNL     1      -1.532 -10.652   2.308  1.00  0.00     0.169 HD
HETATM   27  C   UNL     1      -1.072 -13.441   2.075  1.00  0.00     0.030 A 
HETATM   28  C   UNL     1      -0.507 -14.698   1.823  1.00  0.00     0.002 A 
HETATM   29  C   UNL     1       0.794 -14.820   1.290  1.00  0.00     0.001 A 
HETATM   30  C   UNL     1       1.559 -13.688   1.000  1.00  0.00     0.016 A 
ENDBRANCH   2  19
TORSDOF 4
