REMARK  10 active torsions:
REMARK  status: ('A' for Active; 'I' for Inactive)
REMARK    1  A    between atoms: C_2  and  N_3 
REMARK    2  A    between atoms: N_3  and  C_4 
REMARK    3  A    between atoms: C_6  and  N_7 
REMARK    4  A    between atoms: N_10  and  C_12 
REMARK    5  A    between atoms: C_25  and  N_26 
REMARK    6  A    between atoms: N_26  and  C_27 
REMARK    7  A    between atoms: C_27  and  C_28 
REMARK    8  A    between atoms: C_28  and  O_29 
REMARK    9  A    between atoms: C_33  and  O_34 
REMARK   10  A    between atoms: O_34  and  C_35 
ROOT
HETATM    1  C   UNL     1       0.029   3.838  -0.345  1.00  0.00     0.745 A 
HETATM    2  N   UNL     1      -1.271   3.861  -0.618  1.00  0.00     0.130 NA
HETATM    3  C   UNL     1      -1.908   5.005  -0.439  1.00  0.00     0.743 A 
HETATM    4  N   UNL     1      -1.312   6.090   0.032  1.00  0.00    -0.030 NA
HETATM    5  C   UNL     1      -0.018   5.985   0.303  1.00  0.00     0.238 A 
HETATM    6  N   UNL     1       0.687   4.876   0.144  1.00  0.00    -0.030 NA
ENDROOT
BRANCH   3   7
HETATM    7  N   UNL     1      -3.270   5.056  -0.747  1.00  0.00    -0.210 N 
HETATM    8  C   UNL     1      -4.002   6.206  -0.204  1.00  0.00     0.169 C 
HETATM    9  C   UNL     1      -4.372   5.969   1.277  1.00  0.00     0.256 C 
HETATM   10  N   UNL     1      -5.184   4.654   1.425  1.00  0.00    -0.059 N 
HETATM   11  H   UNL     1      -5.983   4.751   0.786  1.00  0.00     0.281 HD
HETATM   12  C   UNL     1      -4.350   3.481   0.845  1.00  0.00     0.256 C 
HETATM   13  C   UNL     1      -3.975   3.772  -0.629  1.00  0.00     0.169 C 
BRANCH  10  14
HETATM   14  C   UNL     1      -5.804   4.421   2.818  1.00  0.00     0.129 C 
HETATM   15  C   UNL     1      -6.848   5.538   3.094  1.00  0.00     0.043 C 
HETATM   16  C   UNL     1      -7.521   5.326   4.461  1.00  0.00    -0.012 C 
HETATM   17  C   UNL     1      -6.441   5.336   5.557  1.00  0.00     0.009 C 
HETATM   18  C   UNL     1      -8.243   3.972   4.466  1.00  0.00     0.009 C 
HETATM   19  C   UNL     1      -5.421   4.211   5.307  1.00  0.00    -0.012 C 
HETATM   20  C   UNL     1      -4.741   4.428   3.937  1.00  0.00     0.043 C 
HETATM   21  C   UNL     1      -6.158   2.862   5.310  1.00  0.00     0.009 C 
HETATM   22  C   UNL     1      -7.234   2.845   4.211  1.00  0.00    -0.012 C 
HETATM   23  C   UNL     1      -6.556   3.062   2.846  1.00  0.00     0.043 C 
ENDBRANCH  10  14
ENDBRANCH   3   7
BRANCH   1  24
HETATM   24  N   UNL     1       0.762   2.667  -0.527  1.00  0.00    -0.188 N 
HETATM   25  H   UNL     1       1.711   2.794  -0.199  1.00  0.00     0.184 HD
BRANCH  24  26
HETATM   26  C   UNL     1       0.580   1.605  -1.425  1.00  0.00     0.049 A 
HETATM   27  C   UNL     1      -0.343   1.634  -2.475  1.00  0.00     0.033 A 
HETATM   28  C   UNL     1      -0.520   0.536  -3.328  1.00  0.00     0.039 A 
HETATM   29  C   UNL     1       0.210  -0.633  -3.128  1.00  0.00     0.078 A 
HETATM   30  C   UNL     1       1.119  -0.683  -2.070  1.00  0.00     0.039 A 
HETATM   31  C   UNL     1       1.300   0.421  -1.228  1.00  0.00     0.033 A 
BRANCH  29  32
HETATM   32  O   UNL     1       0.134  -1.775  -3.870  1.00  0.00    -0.255 OA
BRANCH  32  33
HETATM   33  C   UNL     1      -0.767  -1.793  -4.965  1.00  0.00     0.530 C 
HETATM   34  F   UNL     1      -2.037  -1.592  -4.550  1.00  0.00    -0.144 F 
HETATM   35  F   UNL     1      -0.441  -0.853  -5.878  1.00  0.00    -0.144 F 
HETATM   36  F   UNL     1      -0.707  -3.002  -5.561  1.00  0.00    -0.144 F 
ENDBRANCH  32  33
ENDBRANCH  29  32
ENDBRANCH  24  26
ENDBRANCH   1  24
BRANCH   5  37
HETATM   37  N   UNL     1       0.587   7.137   0.772  1.00  0.00    -0.258 NA
HETATM   38  H   UNL     1      -0.006   7.927   0.537  1.00  0.00     0.130 HD
BRANCH  37  39
HETATM   39  C   UNL     1       1.976   7.358   0.364  1.00  0.00     0.121 C 
BRANCH  39  40
HETATM   40  C   UNL     1       2.100   7.615  -1.144  1.00  0.00     0.178 C 
BRANCH  40  41
HETATM   41  O   UNL     1       1.175   8.626  -1.549  1.00  0.00    -0.400 OA
HETATM   42  H   UNL     1       0.420   8.170  -1.960  1.00  0.00     0.209 HD
ENDBRANCH  40  41
ENDBRANCH  39  40
ENDBRANCH  37  39
ENDBRANCH   5  37
TORSDOF 10
