REMARK  8 active torsions:
REMARK  status: ('A' for Active; 'I' for Inactive)
REMARK    1  A    between atoms: O_2  and  C_3 
REMARK    2  A    between atoms: C_4  and  O_5 
REMARK    3  A    between atoms: C_13  and  C_14 
REMARK    4  A    between atoms: C_14  and  N_15 
REMARK    5  A    between atoms: C_19  and  C_20 
REMARK    6  A    between atoms: C_20  and  O_21 
REMARK    7  A    between atoms: C_20  and  C_22 
REMARK    8  A    between atoms: C_20  and  C_28 
ROOT
HETATM    1  N   UNL     1       5.619   2.371   7.638  1.00  0.00    -0.064 N 
HETATM    2  H   UNL     1       6.083   2.503   8.545  1.00  0.00     0.280 HD
HETATM    3  C   UNL     1       6.444   3.161   6.638  1.00  0.00     0.236 C 
HETATM    4  C   UNL     1       6.371   4.647   6.957  1.00  0.00     0.036 C 
HETATM    5  C   UNL     1       4.927   5.202   6.993  1.00  0.00     0.033 C 
HETATM    6  C   UNL     1       4.175   4.368   8.055  1.00  0.00     0.036 C 
HETATM    7  C   UNL     1       4.204   2.868   7.802  1.00  0.00     0.236 C 
ENDROOT
BRANCH   1   8
HETATM    8  C   UNL     1       5.680   0.860   7.349  1.00  0.00     0.313 C 
BRANCH   8   9
HETATM    9  C   UNL     1       5.142   0.483   5.968  1.00  0.00     0.133 A 
HETATM   10  N   UNL     1       3.822   0.127   5.892  1.00  0.00    -0.309 N 
HETATM   11  C   UNL     1       3.164  -0.043   4.701  1.00  0.00     0.259 A 
HETATM   12  H   UNL     1       3.226   0.039   6.704  1.00  0.00     0.170 HD
HETATM   13  C   UNL     1       3.991   0.056   3.489  1.00  0.00     0.064 A 
HETATM   14  O   UNL     1       1.955  -0.223   4.668  1.00  0.00    -0.267 OA
HETATM   15  C   UNL     1       5.346   0.341   3.663  1.00  0.00     0.077 A 
HETATM   16  C   UNL     1       3.430  -0.110   2.220  1.00  0.00     0.059 A 
HETATM   17  C   UNL     1       6.159   0.444   2.533  1.00  0.00     0.072 A 
HETATM   18  N   UNL     1       5.909   0.581   4.931  1.00  0.00    -0.233 NA
HETATM   19  C   UNL     1       5.622   0.272   1.251  1.00  0.00     0.103 A 
HETATM   20  C   UNL     1       4.244   0.007   1.092  1.00  0.00     0.102 A 
BRANCH  19  21
HETATM   21  O   UNL     1       6.351   0.378   0.092  1.00  0.00    -0.353 OA
HETATM   22  C   UNL     1       7.768   0.355   0.200  1.00  0.00     0.210 C 
ENDBRANCH  19  21
BRANCH  20  23
HETATM   23  O   UNL     1       3.802  -0.125  -0.199  1.00  0.00    -0.353 OA
HETATM   24  C   UNL     1       2.411  -0.323  -0.412  1.00  0.00     0.210 C 
ENDBRANCH  20  23
ENDBRANCH   8   9
ENDBRANCH   1   8
BRANCH   5  25
HETATM   25  C   UNL     1       4.215   5.273   5.576  1.00  0.00     0.116 C 
BRANCH  25  26
HETATM   26  O   UNL     1       4.074   3.914   5.125  1.00  0.00    -0.380 OA
HETATM   27  H   UNL     1       3.468   3.953   4.359  1.00  0.00     0.211 HD
ENDBRANCH  25  26
BRANCH  25  28
HETATM   28  C   UNL     1       2.794   5.867   5.706  1.00  0.00    -0.019 A 
HETATM   29  C   UNL     1       2.578   7.253   5.816  1.00  0.00     0.010 A 
HETATM   30  C   UNL     1       1.290   7.782   5.955  1.00  0.00     0.001 A 
HETATM   31  C   UNL     1       0.186   6.940   6.001  1.00  0.00     0.000 A 
HETATM   32  C   UNL     1       0.366   5.566   5.910  1.00  0.00     0.001 A 
HETATM   33  C   UNL     1       1.652   5.036   5.768  1.00  0.00     0.010 A 
ENDBRANCH  25  28
BRANCH  25  34
HETATM   34  C   UNL     1       5.083   6.004   4.522  1.00  0.00    -0.019 A 
HETATM   35  C   UNL     1       5.228   5.513   3.208  1.00  0.00     0.010 A 
HETATM   36  C   UNL     1       6.030   6.167   2.266  1.00  0.00     0.001 A 
HETATM   37  C   UNL     1       6.700   7.335   2.608  1.00  0.00     0.000 A 
HETATM   38  C   UNL     1       6.570   7.851   3.892  1.00  0.00     0.001 A 
HETATM   39  C   UNL     1       5.774   7.194   4.835  1.00  0.00     0.010 A 
ENDBRANCH  25  34
ENDBRANCH   5  25
TORSDOF 8
