REMARK  6 active torsions:
REMARK  status: ('A' for Active; 'I' for Inactive)
REMARK    1  A    between atoms: C_2  and  C_3 
REMARK    2  A    between atoms: C_3  and  C_4 
REMARK    3  A    between atoms: C_3  and  C_10 
REMARK    4  A    between atoms: C_10  and  C_11 
REMARK       I    between atoms: C_11  and  N_12 
REMARK    5  A    between atoms: N_12  and  C_13 
REMARK    6  A    between atoms: C_20  and  C_21 
REMARK       I    between atoms: C_21  and  N_22 
ROOT
HETATM    1  C   UNL     1       4.722   4.568   3.028  1.00  0.00     0.035 A 
HETATM    2  C   UNL     1       4.247   5.642   2.262  1.00  0.00     0.046 A 
HETATM    3  C   UNL     1       4.125   6.920   2.853  1.00  0.00     0.030 A 
HETATM    4  C   UNL     1       4.489   7.080   4.184  1.00  0.00     0.063 A 
HETATM    5  N   UNL     1       4.267   8.399   4.465  1.00  0.00    -0.277 N 
HETATM    6  H   UNL     1       4.423   8.874   5.347  1.00  0.00     0.189 HD
HETATM    7  N   UNL     1       3.783   9.114   3.436  1.00  0.00    -0.168 NA
HETATM    8  C   UNL     1       3.689   8.212   2.431  1.00  0.00     0.156 A 
HETATM    9  C   UNL     1       4.968   6.035   4.975  1.00  0.00     0.034 A 
HETATM   10  C   UNL     1       5.073   4.777   4.369  1.00  0.00     0.032 A 
ENDROOT
BRANCH   1  11
HETATM   11  N   UNL     1       4.855   3.252   2.537  1.00  0.00    -0.327 N 
HETATM   12  C   UNL     1       4.626   2.804   1.248  1.00  0.00     0.222 C 
HETATM   13  O   UNL     1       4.334   3.485   0.273  1.00  0.00    -0.273 OA
HETATM   14  H   UNL     1       5.172   2.561   3.205  1.00  0.00     0.169 HD
BRANCH  12  15
HETATM   15  C   UNL     1       4.744   1.295   1.126  1.00  0.00     0.112 C 
BRANCH  15  16
HETATM   16  C   UNL     1       3.502   0.585   1.697  1.00  0.00     0.027 C 
BRANCH  16  17
HETATM   17  C   UNL     1       2.200   0.875   0.914  1.00  0.00     0.005 C 
HETATM   18  C   UNL     1       2.210   0.483  -0.558  1.00  0.00     0.006 C 
ENDBRANCH  16  17
BRANCH  16  19
HETATM   19  C   UNL     1       3.710  -0.910   1.902  1.00  0.00    -0.054 A 
HETATM   20  C   UNL     1       4.436  -1.702   0.999  1.00  0.00     0.007 A 
HETATM   21  C   UNL     1       4.594  -3.073   1.220  1.00  0.00     0.001 A 
HETATM   22  C   UNL     1       4.028  -3.672   2.342  1.00  0.00     0.000 A 
HETATM   23  C   UNL     1       3.297  -2.902   3.243  1.00  0.00     0.001 A 
HETATM   24  C   UNL     1       3.137  -1.533   3.023  1.00  0.00     0.007 A 
ENDBRANCH  16  19
ENDBRANCH  15  16
ENDBRANCH  12  15
ENDBRANCH   1  11
BRANCH   8  25
HETATM   25  C   UNL     1       3.185   8.602   1.107  1.00  0.00     0.270 C 
HETATM   26  N   UNL     1       2.845   9.924   1.006  1.00  0.00    -0.365 N 
HETATM   27  H   UNL     1       2.956  10.516   1.820  1.00  0.00     0.159 HD
HETATM   28  H   UNL     1       2.483  10.280   0.136  1.00  0.00     0.159 HD
HETATM   29  O   UNL     1       3.061   7.841   0.153  1.00  0.00    -0.266 OA
ENDBRANCH   8  25
TORSDOF 6
