REMARK  3 active torsions:
REMARK  status: ('A' for Active; 'I' for Inactive)
REMARK       I    between atoms: C_2  and  N_3 
REMARK    1  A    between atoms: C_2  and  C_16 
REMARK    2  A    between atoms: N_3  and  C_4 
REMARK    3  A    between atoms: C_7  and  C_10 
ROOT
HETATM    1  O   UNL     1       1.811   2.084  -3.193  1.00  0.00    -0.270 OA
HETATM    2  C   UNL     1       2.201   1.193  -2.453  1.00  0.00     0.255 C 
HETATM    3  N   UNL     1       2.229  -0.135  -2.955  1.00  0.00    -0.305 N 
HETATM    4  H   UNL     1       2.589  -0.909  -2.413  1.00  0.00     0.171 HD
ENDROOT
BRANCH   3   5
HETATM    5  C   UNL     1       1.686  -0.461  -4.112  1.00  0.00     0.151 A 
HETATM    6  N   UNL     1       1.010   0.356  -4.920  1.00  0.00    -0.335 N 
HETATM    7  H   UNL     1       0.908   1.338  -4.655  1.00  0.00     0.168 HD
HETATM    8  C   UNL     1       0.472  -0.261  -6.035  1.00  0.00     0.051 A 
HETATM    9  C   UNL     1       0.818  -1.596  -6.095  1.00  0.00     0.083 A 
HETATM   10  S   UNL     1       1.760  -2.070  -4.731  1.00  0.00    -0.063 SA
BRANCH   8  11
HETATM   11  C   UNL     1      -0.367   0.434  -7.005  1.00  0.00    -0.006 A 
HETATM   12  C   UNL     1      -0.315   1.828  -7.114  1.00  0.00     0.033 A 
HETATM   13  C   UNL     1      -1.153   2.457  -8.021  1.00  0.00     0.117 A 
HETATM   14  N   UNL     1      -2.020   1.799  -8.813  1.00  0.00    -0.273 NA
HETATM   15  C   UNL     1      -2.058   0.457  -8.704  1.00  0.00     0.117 A 
HETATM   16  C   UNL     1      -1.264  -0.262  -7.826  1.00  0.00     0.033 A 
ENDBRANCH   8  11
ENDBRANCH   3   5
BRANCH   2  17
HETATM   17  C   UNL     1       2.714   1.353  -1.026  1.00  0.00     0.245 C 
HETATM   18  C   UNL     1       1.975   2.469  -0.306  1.00  0.00     0.218 C 
HETATM   19  O   UNL     1       0.577   2.174  -0.222  1.00  0.00    -0.345 OA
HETATM   20  C   UNL     1       0.354   0.892   0.204  1.00  0.00     0.102 A 
HETATM   21  C   UNL     1      -0.931   0.595   0.648  1.00  0.00     0.039 A 
HETATM   22  C   UNL     1       1.337  -0.102   0.175  1.00  0.00     0.103 A 
HETATM   23  C   UNL     1      -1.228  -0.694   1.093  1.00  0.00     0.003 A 
HETATM   24  C   UNL     1      -0.239  -1.679   1.094  1.00  0.00     0.003 A 
HETATM   25  C   UNL     1       1.047  -1.384   0.636  1.00  0.00     0.040 A 
HETATM   26  O   UNL     1       2.599   0.104  -0.326  1.00  0.00    -0.331 OA
ENDBRANCH   2  17
TORSDOF 3
