REMARK  5 active torsions:
REMARK  status: ('A' for Active; 'I' for Inactive)
REMARK    1  A    between atoms: C_2  and  C_3 
REMARK    2  A    between atoms: C_2  and  C_9 
REMARK    3  A    between atoms: C_9  and  C_10 
REMARK       I    between atoms: C_10  and  N_11 
REMARK    4  A    between atoms: N_11  and  C_12 
REMARK    5  A    between atoms: C_19  and  C_20 
REMARK       I    between atoms: C_20  and  N_21 
ROOT
HETATM    1  C   UNL     1       6.732  -0.641  -0.223  1.00  0.00     0.035 A 
HETATM    2  C   UNL     1       7.763  -0.569   0.724  1.00  0.00     0.046 A 
HETATM    3  C   UNL     1       9.103  -0.738   0.310  1.00  0.00     0.030 A 
HETATM    4  C   UNL     1       9.365  -0.980  -1.033  1.00  0.00     0.063 A 
HETATM    5  N   UNL     1      10.723  -1.111  -1.119  1.00  0.00    -0.277 N 
HETATM    6  H   UNL     1      11.269  -1.300  -1.952  1.00  0.00     0.189 HD
HETATM    7  N   UNL     1      11.373  -0.962   0.046  1.00  0.00    -0.168 NA
HETATM    8  C   UNL     1      10.385  -0.724   0.940  1.00  0.00     0.156 A 
HETATM    9  C   UNL     1       8.365  -1.050  -2.003  1.00  0.00     0.034 A 
HETATM   10  C   UNL     1       7.045  -0.868  -1.570  1.00  0.00     0.032 A 
ENDROOT
BRANCH   1  11
HETATM   11  N   UNL     1       5.366  -0.463   0.093  1.00  0.00    -0.327 N 
HETATM   12  C   UNL     1       4.797  -0.431   1.350  1.00  0.00     0.222 C 
HETATM   13  O   UNL     1       5.388  -0.625   2.409  1.00  0.00    -0.273 OA
HETATM   14  H   UNL     1       4.736  -0.476  -0.696  1.00  0.00     0.169 HD
BRANCH  12  15
HETATM   15  C   UNL     1       3.328  -0.024   1.388  1.00  0.00     0.112 C 
BRANCH  15  16
HETATM   16  C   UNL     1       2.401  -0.563   0.286  1.00  0.00     0.023 C 
HETATM   17  C   UNL     1       0.953  -0.151   0.581  1.00  0.00     0.015 C 
BRANCH  16  18
HETATM   18  C   UNL     1       2.465  -2.064   0.065  1.00  0.00    -0.054 A 
HETATM   19  C   UNL     1       2.532  -2.973   1.131  1.00  0.00     0.007 A 
HETATM   20  C   UNL     1       2.574  -4.348   0.891  1.00  0.00     0.001 A 
HETATM   21  C   UNL     1       2.540  -4.834  -0.414  1.00  0.00     0.000 A 
HETATM   22  C   UNL     1       2.462  -3.945  -1.482  1.00  0.00     0.001 A 
HETATM   23  C   UNL     1       2.421  -2.570  -1.245  1.00  0.00     0.007 A 
ENDBRANCH  16  18
ENDBRANCH  15  16
ENDBRANCH  12  15
ENDBRANCH   1  11
BRANCH   8  24
HETATM   24  C   UNL     1      10.686  -0.484   2.358  1.00  0.00     0.270 C 
HETATM   25  N   UNL     1      12.015  -0.576   2.670  1.00  0.00    -0.365 N 
HETATM   26  H   UNL     1      12.674  -0.785   1.929  1.00  0.00     0.159 HD
HETATM   27  H   UNL     1      12.317  -0.416   3.618  1.00  0.00     0.159 HD
HETATM   28  O   UNL     1       9.852  -0.214   3.216  1.00  0.00    -0.266 OA
ENDBRANCH   8  24
TORSDOF 5
