REMARK  8 active torsions:
REMARK  status: ('A' for Active; 'I' for Inactive)
REMARK    1  A    between atoms: C_3  and  N_4 
REMARK       I    between atoms: N_4  and  C_5 
REMARK    2  A    between atoms: C_5  and  C_6 
REMARK    3  A    between atoms: C_13  and  C_14 
REMARK       I    between atoms: C_14  and  N_15 
REMARK    4  A    between atoms: N_15  and  CA_16 
REMARK    5  A    between atoms: CA_16  and  C_17 
REMARK    6  A    between atoms: CA_16  and  C_27 
REMARK    7  A    between atoms: C_20  and  C_21 
REMARK    8  A    between atoms: C_27  and  O_28 
ROOT
HETATM    1  C   UNL     1       6.488  -0.667  -0.738  1.00  0.00     0.252 C 
HETATM    2  N   UNL     1       7.271  -1.580  -0.068  1.00  0.00    -0.346 N 
HETATM    3  O   UNL     1       6.901  -0.002  -1.682  1.00  0.00    -0.268 OA
HETATM    4  H   UNL     1       6.954  -1.938   0.824  1.00  0.00     0.163 HD
ENDROOT
BRANCH   1   5
HETATM    5  C   UNL     1       5.085  -0.513  -0.281  1.00  0.00     0.034 A 
HETATM    6  C   UNL     1       4.461   0.731  -0.447  1.00  0.00     0.047 A 
HETATM    7  C   UNL     1       3.118   0.933  -0.083  1.00  0.00     0.042 A 
HETATM    8  C   UNL     1       2.365  -0.170   0.358  1.00  0.00    -0.035 A 
HETATM    9  C   UNL     1       0.876  -0.159   0.577  1.00  0.00     0.050 C 
HETATM   10  C   UNL     1       3.013  -1.411   0.546  1.00  0.00     0.010 A 
HETATM   11  C   UNL     1       4.361  -1.585   0.234  1.00  0.00     0.017 A 
BRANCH   7  12
HETATM   12  N   UNL     1       2.649   2.252  -0.255  1.00  0.00    -0.321 N 
HETATM   13  C   UNL     1       1.649   2.919   0.431  1.00  0.00     0.279 C 
HETATM   14  O   UNL     1       1.014   2.474   1.379  1.00  0.00    -0.265 OA
HETATM   15  H   UNL     1       3.221   2.869  -0.824  1.00  0.00     0.169 HD
BRANCH  13  16
HETATM   16  C   UNL     1       1.453   4.277  -0.049  1.00  0.00     0.142 A 
HETATM   17  O   UNL     1       2.260   4.765  -1.046  1.00  0.00    -0.317 OA
HETATM   18  C   UNL     1       1.864   6.041  -1.291  1.00  0.00     0.143 A 
HETATM   19  C   UNL     1       0.817   6.389  -0.472  1.00  0.00     0.027 A 
HETATM   20  C   UNL     1       0.552   5.254   0.331  1.00  0.00     0.045 A 
ENDBRANCH  13  16
ENDBRANCH   7  12
ENDBRANCH   1   5
BRANCH   2  21
HETATM   21  CA  UNL     1       8.669  -1.807  -0.440  1.00  0.00     0.141 C 
BRANCH  21  22
HETATM   22  C   UNL     1       9.376  -2.620   0.632  1.00  0.00    -0.033 A 
HETATM   23  C   UNL     1       8.960  -3.919   0.965  1.00  0.00     0.010 A 
HETATM   24  C   UNL     1       9.656  -4.666   1.920  1.00  0.00     0.017 A 
HETATM   25  C   UNL     1      10.780  -4.131   2.565  1.00  0.00     0.047 A 
HETATM   26  C   UNL     1      11.193  -2.833   2.236  1.00  0.00     0.017 A 
HETATM   27  C   UNL     1      10.497  -2.085   1.283  1.00  0.00     0.010 A 
BRANCH  25  28
HETATM   28  C   UNL     1      11.566  -4.944   3.566  1.00  0.00     0.417 C 
HETATM   29  F   UNL     1      10.884  -6.023   4.042  1.00  0.00    -0.166 F 
HETATM   30  F   UNL     1      12.722  -5.434   3.042  1.00  0.00    -0.166 F 
HETATM   31  F   UNL     1      11.929  -4.221   4.663  1.00  0.00    -0.166 F 
ENDBRANCH  25  28
ENDBRANCH  21  22
BRANCH  21  32
HETATM   32  C   UNL     1       8.802  -2.488  -1.827  1.00  0.00     0.194 C 
BRANCH  32  33
HETATM   33  O   UNL     1       8.715  -1.555  -2.905  1.00  0.00    -0.399 OA
HETATM   34  H   UNL     1       8.011  -0.908  -2.678  1.00  0.00     0.209 HD
ENDBRANCH  32  33
ENDBRANCH  21  32
ENDBRANCH   2  21
TORSDOF 8
