REMARK  4 active torsions:
REMARK  status: ('A' for Active; 'I' for Inactive)
REMARK    1  A    between atoms: C_2  and  C_3 
REMARK    2  A    between atoms: C_4  and  N_5 
REMARK       I    between atoms: N_5  and  C_6 
REMARK       I    between atoms: C_6  and  N_7 
REMARK    3  A    between atoms: C_8  and  C_9 
REMARK    4  A    between atoms: C_21  and  C_22 
ROOT
HETATM    1  N   UNL     1       3.100  -1.799   1.088  1.00  0.00    -0.308 N 
HETATM    2  C   UNL     1       2.126  -2.232   0.214  1.00  0.00     0.323 C 
HETATM    3  N   UNL     1       1.986  -1.448  -0.920  1.00  0.00    -0.325 N 
HETATM    4  C   UNL     1       2.473  -0.078  -1.093  1.00  0.00     0.126 C 
HETATM    5  C   UNL     1       1.275   0.613  -1.765  1.00  0.00     0.032 C 
HETATM    6  C   UNL     1       0.711  -0.478  -2.665  1.00  0.00     0.022 C 
HETATM    7  C   UNL     1       0.852  -1.716  -1.796  1.00  0.00     0.128 C 
HETATM    8  O   UNL     1       1.423  -3.223   0.396  1.00  0.00    -0.247 OA
HETATM    9  H   UNL     1       3.951  -1.561   0.601  1.00  0.00     0.170 HD
ENDROOT
BRANCH   1  10
HETATM   10  C   UNL     1       3.251  -2.365   2.381  1.00  0.00     0.049 A 
HETATM   11  C   UNL     1       4.511  -2.898   2.749  1.00  0.00    -0.031 A 
HETATM   12  C   UNL     1       4.676  -3.466   4.024  1.00  0.00     0.009 A 
HETATM   13  C   UNL     1       3.621  -3.514   4.925  1.00  0.00     0.001 A 
HETATM   14  C   UNL     1       2.392  -2.968   4.574  1.00  0.00     0.009 A 
HETATM   15  C   UNL     1       2.185  -2.363   3.316  1.00  0.00    -0.031 A 
BRANCH  11  16
HETATM   16  C   UNL     1       5.705  -2.935   1.819  1.00  0.00     0.036 C 
HETATM   17  C   UNL     1       6.540  -1.667   1.911  1.00  0.00     0.010 C 
ENDBRANCH  11  16
BRANCH  15  18
HETATM   18  C   UNL     1       0.817  -1.742   3.093  1.00  0.00     0.036 C 
HETATM   19  C   UNL     1       0.815  -0.293   2.619  1.00  0.00     0.010 C 
ENDBRANCH  15  18
ENDBRANCH   1  10
BRANCH   4  20
HETATM   20  C   UNL     1       3.731  -0.013  -1.932  1.00  0.00     0.014 A 
HETATM   21  C   UNL     1       4.550  -1.052  -2.483  1.00  0.00     0.061 A 
HETATM   22  C   UNL     1       4.409  -2.529  -2.399  1.00  0.00     0.073 C 
HETATM   23  N   UNL     1       5.583  -0.560  -3.177  1.00  0.00    -0.179 NA
HETATM   24  N   UNL     1       5.435   0.762  -3.105  1.00  0.00    -0.282 N 
HETATM   25  H   UNL     1       6.106   1.346  -3.594  1.00  0.00     0.189 HD
HETATM   26  C   UNL     1       4.364   1.153  -2.356  1.00  0.00     0.034 A 
HETATM   27  C   UNL     1       4.054   2.591  -2.165  1.00  0.00     0.070 C 
ENDBRANCH   4  20
TORSDOF 4
