REMARK  6 active torsions:
REMARK  status: ('A' for Active; 'I' for Inactive)
REMARK    1  A    between atoms: O_2  and  C_3 
REMARK    2  A    between atoms: C_7  and  C_8 
REMARK    3  A    between atoms: C_8  and  N_9 
REMARK       I    between atoms: N_9  and  C_10 
REMARK       I    between atoms: C_10  and  N_12 
REMARK    4  A    between atoms: N_12  and  C_13 
REMARK    5  A    between atoms: C_16  and  C_21 
REMARK    6  A    between atoms: C_18  and  O_19 
ROOT
HETATM    1  N   UNL     1       2.031  -5.100   0.847  1.00  0.00    -0.339 N 
HETATM    2  C   UNL     1       1.290  -6.257   0.954  1.00  0.00     0.321 C 
HETATM    3  O   UNL     1       1.530  -7.244   0.268  1.00  0.00    -0.247 OA
HETATM    4  N   UNL     1       0.300  -6.143   1.898  1.00  0.00    -0.306 N 
HETATM    5  H   UNL     1       1.600  -4.239   1.144  1.00  0.00     0.164 HD
HETATM    6  H   UNL     1       0.187  -5.251   2.359  1.00  0.00     0.171 HD
ENDROOT
BRANCH   4   7
HETATM    7  C   UNL     1      -0.625  -7.131   2.299  1.00  0.00     0.069 A 
HETATM    8  C   UNL     1      -0.575  -8.460   1.886  1.00  0.00     0.033 A 
HETATM    9  C   UNL     1      -1.530  -9.381   2.339  1.00  0.00     0.015 A 
HETATM   10  C   UNL     1      -2.550  -8.995   3.220  1.00  0.00    -0.020 A 
HETATM   11  C   UNL     1      -2.600  -7.659   3.638  1.00  0.00     0.051 A 
HETATM   12  C   UNL     1      -1.658  -6.737   3.165  1.00  0.00     0.095 A 
BRANCH  10  13
HETATM   13  C   UNL     1      -3.530  -9.972   3.667  1.00  0.00     0.010 A 
HETATM   14  C   UNL     1      -3.948 -11.193   3.082  1.00  0.00     0.152 A 
HETATM   15  N   UNL     1      -4.876 -11.826   3.805  1.00  0.00    -0.187 NA
HETATM   16  N   UNL     1      -5.052 -11.019   4.862  1.00  0.00    -0.289 N 
HETATM   17  H   UNL     1      -5.719 -11.298   5.573  1.00  0.00     0.188 HD
HETATM   18  C   UNL     1      -4.274  -9.897   4.826  1.00  0.00     0.123 A 
ENDBRANCH  10  13
BRANCH  12  19
HETATM   19  O   UNL     1      -1.703  -5.421   3.566  1.00  0.00    -0.354 OA
HETATM   20  C   UNL     1      -2.867  -4.774   3.048  1.00  0.00     0.210 C 
ENDBRANCH  12  19
ENDBRANCH   4   7
BRANCH   1  21
HETATM   21  C   UNL     1       3.032  -5.003  -0.193  1.00  0.00     0.163 C 
BRANCH  21  22
HETATM   22  C   UNL     1       4.014  -3.887   0.051  1.00  0.00    -0.038 A 
HETATM   23  C   UNL     1       4.647  -3.747   1.294  1.00  0.00     0.009 A 
HETATM   24  C   UNL     1       5.603  -2.753   1.492  1.00  0.00     0.003 A 
HETATM   25  C   UNL     1       5.948  -1.901   0.443  1.00  0.00     0.037 A 
HETATM   26  C   UNL     1       5.347  -2.038  -0.810  1.00  0.00     0.068 A 
HETATM   27  C   UNL     1       4.378  -3.025  -1.000  1.00  0.00     0.045 A 
BRANCH  26  28
HETATM   28  O   UNL     1       5.792  -1.156  -1.756  1.00  0.00    -0.356 OA
HETATM   29  C   UNL     1       5.369  -1.384  -3.095  1.00  0.00     0.210 C 
ENDBRANCH  26  28
ENDBRANCH  21  22
ENDBRANCH   1  21
TORSDOF 6
