REMARK  9 active torsions:
REMARK  status: ('A' for Active; 'I' for Inactive)
REMARK    1  A    between atoms: C_6  and  C_7 
REMARK    2  A    between atoms: C_7  and  C_8 
REMARK       I    between atoms: C_8  and  N_9 
REMARK    3  A    between atoms: N_9  and  C_10 
REMARK    4  A    between atoms: C_10  and  C_11 
REMARK    5  A    between atoms: C_11  and  N_12 
REMARK    6  A    between atoms: C_20  and  C_21 
REMARK    7  A    between atoms: C_24  and  C_25 
REMARK    8  A    between atoms: C_32  and  C_33 
REMARK    9  A    between atoms: C_33  and  O_34 
ROOT
HETATM    1  C   UNL     1       0.425   1.015   1.040  1.00  0.00     0.071 C 
HETATM    2  C   UNL     1       1.834   0.502   1.189  1.00  0.00     0.048 C 
HETATM    3  N   UNL     1       2.553   1.145   2.193  1.00  0.00    -0.229 NA
HETATM    4  C   UNL     1       3.629   0.563   2.604  1.00  0.00     0.170 C 
HETATM    5  N   UNL     1       4.136  -0.764   1.991  1.00  0.00    -0.319 N 
HETATM    6  C   UNL     1       4.636  -1.513   2.912  1.00  0.00     0.011 C 
HETATM    7  C   UNL     1       3.848  -0.814   0.539  1.00  0.00     0.166 C 
HETATM    8  S   UNL     1       4.492   0.962   4.041  1.00  0.00    -0.086 SA
HETATM    9  C   UNL     1       5.073  -0.766   4.165  1.00  0.00     0.135 C 
HETATM   10  C   UNL     1       2.382  -0.473   0.420  1.00  0.00     0.069 C 
ENDROOT
BRANCH   6  11
HETATM   11  C   UNL     1       4.675  -3.010   2.777  1.00  0.00     0.156 C 
BRANCH  11  12
HETATM   12  C   UNL     1       4.030  -3.634   4.008  1.00  0.00     0.223 C 
HETATM   13  N   UNL     1       2.733  -4.054   3.883  1.00  0.00    -0.359 N 
HETATM   14  H   UNL     1       2.330  -4.167   2.956  1.00  0.00     0.162 HD
HETATM   15  O   UNL     1       4.597  -3.598   5.097  1.00  0.00    -0.273 OA
BRANCH  13  16
HETATM   16  C   UNL     1       1.791  -4.192   5.008  1.00  0.00     0.150 C 
BRANCH  16  17
HETATM   17  C   UNL     1       2.171  -5.144   6.173  1.00  0.00     0.254 C 
BRANCH  17  18
HETATM   18  N   UNL     1       3.289  -4.608   7.043  1.00  0.00    -0.070 N 
HETATM   19  H   UNL     1       4.008  -4.248   6.384  1.00  0.00     0.279 HD
HETATM   20  C   UNL     1       2.901  -3.455   7.939  1.00  0.00     0.235 C 
HETATM   21  C   UNL     1       4.159  -2.863   8.562  1.00  0.00     0.028 C 
HETATM   22  C   UNL     1       4.961  -3.913   9.323  1.00  0.00     0.003 C 
HETATM   23  C   UNL     1       5.245  -5.136   8.458  1.00  0.00     0.028 C 
HETATM   24  C   UNL     1       3.976  -5.700   7.833  1.00  0.00     0.235 C 
ENDBRANCH  17  18
ENDBRANCH  16  17
ENDBRANCH  13  16
ENDBRANCH  11  12
ENDBRANCH   6  11
BRANCH   7  25
HETATM   25  C   UNL     1       4.791   0.209  -0.135  1.00  0.00    -0.030 C 
HETATM   26  C   UNL     1       6.161   0.243   0.198  1.00  0.00     0.010 C 
HETATM   27  C   UNL     1       6.928   1.383  -0.060  1.00  0.00     0.008 C 
HETATM   28  C   UNL     1       6.366   2.494  -0.699  1.00  0.00    -0.055 C 
HETATM   29  C   UNL     1       5.068   2.380  -1.205  1.00  0.00     0.008 C 
HETATM   30  C   UNL     1       4.296   1.247  -0.942  1.00  0.00     0.010 C 
BRANCH  28  31
HETATM   31  C   UNL     1       7.125   3.810  -0.758  1.00  0.00     0.010 C 
HETATM   32  C   UNL     1       7.336   4.314  -2.184  1.00  0.00     0.015 C 
HETATM   33  C   UNL     1       6.406   4.870   0.090  1.00  0.00     0.015 C 
ENDBRANCH  28  31
ENDBRANCH   7  25
BRANCH  10  34
HETATM   34  C   UNL     1       1.671  -1.310  -0.566  1.00  0.00     0.293 C 
HETATM   35  O   UNL     1       2.227  -1.756  -1.554  1.00  0.00    -0.259 OA
BRANCH  34  36
HETATM   36  O   UNL     1       0.461  -1.673  -0.085  1.00  0.00    -0.323 OA
HETATM   37  C   UNL     1      -0.272  -2.557  -0.943  1.00  0.00     0.213 C 
ENDBRANCH  34  36
ENDBRANCH  10  34
TORSDOF 9
