REMARK  1 active torsions:
REMARK  status: ('A' for Active; 'I' for Inactive)
REMARK       I    between atoms: N_9  and  C_10 
REMARK    1  A    between atoms: C_10  and  C_11 
ROOT
HETATM    1  C   UNL     1       3.897   0.165  -0.132  1.00  0.00     0.002 A 
HETATM    2  C   UNL     1       3.065  -0.954  -0.126  1.00  0.00     0.031 A 
HETATM    3  C   UNL     1       1.698  -0.796   0.105  1.00  0.00     0.056 A 
HETATM    4  C   UNL     1       1.137   0.475   0.315  1.00  0.00     0.036 A 
HETATM    5  N   UNL     1      -0.219   0.637   0.643  1.00  0.00    -0.273 NA
HETATM    6  C   UNL     1      -1.131  -0.457   0.210  1.00  0.00     0.100 C 
HETATM    7  C   UNL     1      -1.491  -0.301  -1.282  1.00  0.00     0.055 C 
HETATM    8  C   UNL     1      -2.423   0.872  -1.552  1.00  0.00     0.128 C 
HETATM    9  N   UNL     1      -3.588   0.851  -0.676  1.00  0.00    -0.348 N 
HETATM   10  C   UNL     1      -4.776   1.388  -1.185  1.00  0.00     0.253 C 
HETATM   11  O   UNL     1      -4.849   1.913  -2.295  1.00  0.00    -0.267 OA
HETATM   12  C   UNL     1      -3.282   0.792   0.754  1.00  0.00     0.128 C 
HETATM   13  C   UNL     1      -2.404  -0.408   1.077  1.00  0.00     0.055 C 
HETATM   14  C   UNL     1      -0.472  -1.858   0.374  1.00  0.00     0.245 C 
HETATM   15  O   UNL     1      -1.112  -2.894   0.560  1.00  0.00    -0.271 OA
HETATM   16  N   UNL     1       0.882  -1.931   0.164  1.00  0.00    -0.324 N 
HETATM   17  C   UNL     1       1.995   1.580   0.352  1.00  0.00     0.026 A 
HETATM   18  C   UNL     1       3.364   1.429   0.115  1.00  0.00     0.002 A 
HETATM   19  H   UNL     1      -0.553   1.572   0.430  1.00  0.00     0.129 HD
HETATM   20  H   UNL     1       1.290  -2.855   0.168  1.00  0.00     0.169 HD
ENDROOT
BRANCH  10  21
HETATM   21  C   UNL     1      -6.021   1.316  -0.382  1.00  0.00     0.034 A 
HETATM   22  C   UNL     1      -6.392   0.125   0.260  1.00  0.00     0.051 A 
HETATM   23  C   UNL     1      -7.587   0.114   0.992  1.00  0.00     0.085 A 
HETATM   24  C   UNL     1      -8.383   1.255   1.026  1.00  0.00     0.062 A 
HETATM   25  N   UNL     1      -8.149  -0.896   1.734  1.00  0.00    -0.242 NA
HETATM   26  N   UNL     1      -9.452   0.896   1.808  1.00  0.00    -0.349 N 
HETATM   27  C   UNL     1      -8.061   2.438   0.359  1.00  0.00     0.033 A 
HETATM   28  H   UNL     1     -10.239   1.482   2.043  1.00  0.00     0.167 HD
HETATM   29  C   UNL     1      -9.265  -0.396   2.212  1.00  0.00     0.208 A 
HETATM   30  C   UNL     1      -6.856   2.443  -0.353  1.00  0.00     0.019 A 
ENDBRANCH  10  21
TORSDOF 1
