REMARK  5 active torsions:
REMARK  status: ('A' for Active; 'I' for Inactive)
REMARK    1  A    between atoms: C_2  and  O_3 
REMARK    2  A    between atoms: O_3  and  C_4 
REMARK    3  A    between atoms: C_8  and  C_9 
REMARK    4  A    between atoms: C_9  and  N_10 
REMARK       I    between atoms: N_10  and  C_11 
REMARK       I    between atoms: C_11  and  N_12 
REMARK    5  A    between atoms: N_12  and  C_13 
ROOT
HETATM    1  N   UNL     1      -0.283  -8.305  -6.676  1.00  0.00    -0.339 N 
HETATM    2  C   UNL     1       0.692  -8.988  -7.358  1.00  0.00     0.316 C 
HETATM    3  N   UNL     1       0.405  -9.085  -8.701  1.00  0.00    -0.337 N 
HETATM    4  O   UNL     1       1.690  -9.462  -6.831  1.00  0.00    -0.247 OA
HETATM    5  H   UNL     1      -1.206  -8.294  -7.082  1.00  0.00     0.164 HD
HETATM    6  H   UNL     1      -0.170  -8.344  -9.076  1.00  0.00     0.164 HD
ENDROOT
BRANCH   1   7
HETATM    7  C   UNL     1      -0.186  -8.103  -5.246  1.00  0.00     0.163 C 
BRANCH   7   8
HETATM    8  C   UNL     1      -0.978  -9.099  -4.437  1.00  0.00    -0.035 A 
HETATM    9  C   UNL     1      -1.098 -10.442  -4.802  1.00  0.00     0.028 A 
HETATM   10  C   UNL     1      -1.808 -11.298  -3.973  1.00  0.00     0.120 A 
HETATM   11  N   UNL     1      -2.385 -10.920  -2.814  1.00  0.00    -0.237 NA
HETATM   12  C   UNL     1      -2.232  -9.635  -2.454  1.00  0.00     0.165 A 
HETATM   13  C   UNL     1      -1.547  -8.702  -3.221  1.00  0.00     0.066 A 
BRANCH  12  14
HETATM   14  O   UNL     1      -2.727  -9.172  -1.257  1.00  0.00    -0.324 OA
BRANCH  14  15
HETATM   15  C   UNL     1      -3.562 -10.014  -0.442  1.00  0.00     0.058 C 
HETATM   16  C   UNL     1      -2.837 -11.260   0.089  1.00  0.00     0.045 C 
HETATM   17  C   UNL     1      -4.886 -10.360  -1.137  1.00  0.00     0.045 C 
HETATM   18  C   UNL     1      -3.893  -9.126   0.775  1.00  0.00     0.045 C 
ENDBRANCH  14  15
ENDBRANCH  12  14
ENDBRANCH   7   8
ENDBRANCH   1   7
BRANCH   3  19
HETATM   19  C   UNL     1       1.336  -9.706  -9.601  1.00  0.00     0.100 A 
HETATM   20  C   UNL     1       0.951 -10.039 -11.024  1.00  0.00     0.049 A 
HETATM   21  C   UNL     1       1.139 -11.147  -9.999  1.00  0.00     0.024 A 
HETATM   22  C   UNL     1       2.012 -10.296 -12.048  1.00  0.00    -0.045 A 
HETATM   23  C   UNL     1       2.312 -12.029 -10.398  1.00  0.00     0.046 A 
HETATM   24  C   UNL     1       2.784 -11.422 -11.699  1.00  0.00    -0.051 A 
HETATM   25  C   UNL     1       3.841 -11.854 -12.486  1.00  0.00     0.007 A 
HETATM   26  C   UNL     1       4.132 -11.141 -13.650  1.00  0.00     0.001 A 
HETATM   27  C   UNL     1       3.371 -10.018 -14.008  1.00  0.00     0.001 A 
HETATM   28  C   UNL     1       2.308  -9.591 -13.206  1.00  0.00     0.008 A 
ENDBRANCH   3  19
TORSDOF 5
