REMARK  7 active torsions:
REMARK  status: ('A' for Active; 'I' for Inactive)
REMARK    1  A    between atoms: C_2  and  C_3 
REMARK    2  A    between atoms: C_6  and  O_7 
REMARK    3  A    between atoms: O_7  and  C_8 
REMARK    4  A    between atoms: C_8  and  C_9 
REMARK       I    between atoms: C_9  and  N_10 
REMARK    5  A    between atoms: N_10  and  N_11 
REMARK       I    between atoms: N_11  and  C_12 
REMARK    6  A    between atoms: C_12  and  C_13 
REMARK    7  A    between atoms: C_16  and  N_17 
ROOT
HETATM    1  N   UNL     1       2.310   7.782  -1.670  1.00  0.00    -0.263 N 
HETATM    2  C   UNL     1       2.979   7.840  -0.460  1.00  0.00     0.270 C 
HETATM    3  O   UNL     1       4.193   7.986  -0.365  1.00  0.00    -0.266 OA
HETATM    4  H   UNL     1       1.376   7.391  -1.730  1.00  0.00     0.190 HD
ENDROOT
BRANCH   1   5
HETATM    5  N   UNL     1       3.077   7.793  -2.841  1.00  0.00    -0.265 N 
HETATM    6  C   UNL     1       2.916   8.756  -3.813  1.00  0.00     0.260 C 
HETATM    7  O   UNL     1       3.737   8.859  -4.726  1.00  0.00    -0.269 OA
HETATM    8  H   UNL     1       4.012   7.393  -2.772  1.00  0.00     0.190 HD
BRANCH   6   9
HETATM    9  C   UNL     1       1.659   9.616  -3.757  1.00  0.00     0.280 C 
BRANCH   9  10
HETATM   10  O   UNL     1       1.740  10.479  -2.631  1.00  0.00    -0.342 OA
BRANCH  10  11
HETATM   11  C   UNL     1       0.688  11.314  -2.396  1.00  0.00     0.069 A 
HETATM   12  C   UNL     1       0.860  12.163  -1.302  1.00  0.00     0.037 A 
HETATM   13  C   UNL     1      -0.136  13.071  -0.940  1.00  0.00     0.010 A 
HETATM   14  C   UNL     1      -1.329  13.135  -1.668  1.00  0.00    -0.058 A 
HETATM   15  C   UNL     1      -1.496  12.286  -2.770  1.00  0.00     0.010 A 
HETATM   16  C   UNL     1      -0.493  11.379  -3.132  1.00  0.00     0.037 A 
BRANCH  14  17
HETATM   17  C   UNL     1      -2.397  14.131  -1.297  1.00  0.00     0.034 C 
HETATM   18  C   UNL     1      -2.207  15.458  -2.015  1.00  0.00     0.010 C 
ENDBRANCH  14  17
ENDBRANCH  10  11
ENDBRANCH   9  10
ENDBRANCH   6   9
ENDBRANCH   1   5
BRANCH   2  19
HETATM   19  C   UNL     1       2.142   7.612   0.748  1.00  0.00     0.033 A 
HETATM   20  C   UNL     1       2.731   6.995   1.853  1.00  0.00     0.019 A 
HETATM   21  C   UNL     1       1.961   6.692   2.979  1.00  0.00     0.032 A 
HETATM   22  C   UNL     1       0.587   6.999   3.024  1.00  0.00     0.058 A 
HETATM   23  C   UNL     1       0.021   7.674   1.937  1.00  0.00     0.032 A 
HETATM   24  C   UNL     1       0.793   7.979   0.804  1.00  0.00     0.019 A 
BRANCH  22  25
HETATM   25  N   UNL     1      -0.159   6.615   4.187  1.00  0.00    -0.238 N 
HETATM   26  N   UNL     1       0.528   6.160   5.274  1.00  0.00    -0.172 NA
HETATM   27  C   UNL     1      -0.384   5.923   6.214  1.00  0.00     0.053 A 
HETATM   28  C   UNL     1       0.021   5.424   7.549  1.00  0.00     0.072 C 
HETATM   29  C   UNL     1      -1.681   6.174   5.744  1.00  0.00     0.055 A 
HETATM   30  C   UNL     1      -1.532   6.581   4.432  1.00  0.00     0.035 A 
HETATM   31  C   UNL     1      -2.617   6.862   3.461  1.00  0.00     0.070 C 
ENDBRANCH  22  25
ENDBRANCH   2  19
TORSDOF 7
