REMARK  4 active torsions:
REMARK  status: ('A' for Active; 'I' for Inactive)
REMARK    1  A    between atoms: O_2  and  C_3 
REMARK    2  A    between atoms: C_4  and  O_5 
REMARK    3  A    between atoms: C_9  and  N_10 
REMARK    4  A    between atoms: N_10  and  C_11 
ROOT
HETATM    1  C   UNL     1       3.277   0.688   1.337  1.00  0.00     0.102 A 
HETATM    2  C   UNL     1       3.294   2.053   1.644  1.00  0.00     0.118 A 
HETATM    3  C   UNL     1       3.882   2.435   2.846  1.00  0.00     0.085 A 
HETATM    4  C   UNL     1       4.412   1.525   3.745  1.00  0.00     0.005 A 
HETATM    5  C   UNL     1       4.948   2.246   4.918  1.00  0.00     0.245 A 
HETATM    6  O   UNL     1       4.678   3.623   4.619  1.00  0.00    -0.291 OA
HETATM    7  C   UNL     1       4.065   3.771   3.402  1.00  0.00     0.298 A 
HETATM    8  O   UNL     1       3.773   4.850   2.937  1.00  0.00    -0.259 OA
HETATM    9  C   UNL     1       4.362   0.169   3.476  1.00  0.00     0.015 A 
HETATM   10  C   UNL     1       3.789  -0.241   2.269  1.00  0.00     0.040 A 
ENDROOT
BRANCH   5  11
HETATM   11  N   UNL     1       6.378   2.038   5.062  1.00  0.00    -0.248 NA
HETATM   12  H   UNL     1       6.570   1.088   5.377  1.00  0.00     0.132 HD
BRANCH  11  13
HETATM   13  C   UNL     1       7.178   2.972   5.713  1.00  0.00     0.082 A 
HETATM   14  N   UNL     1       6.837   4.273   5.775  1.00  0.00    -0.355 N 
HETATM   15  H   UNL     1       5.952   4.550   5.344  1.00  0.00     0.166 HD
HETATM   16  C   UNL     1       7.612   5.224   6.318  1.00  0.00     0.108 A 
HETATM   17  C   UNL     1       8.853   4.890   6.837  1.00  0.00     0.026 A 
HETATM   18 BR   UNL     1       9.949   6.216   7.604  1.00  0.00    -0.050 Br
HETATM   19  C   UNL     1       9.283   3.572   6.765  1.00  0.00     0.024 A 
HETATM   20  C   UNL     1       8.449   2.614   6.184  1.00  0.00     0.043 A 
ENDBRANCH  11  13
ENDBRANCH   5  11
BRANCH   2  21
HETATM   21  O   UNL     1       2.815   2.990   0.779  1.00  0.00    -0.352 OA
HETATM   22  C   UNL     1       1.542   3.502   1.182  1.00  0.00     0.210 C 
ENDBRANCH   2  21
BRANCH   1  23
HETATM   23  O   UNL     1       2.765   0.092   0.217  1.00  0.00    -0.353 OA
HETATM   24  C   UNL     1       2.741   0.858  -0.983  1.00  0.00     0.210 C 
ENDBRANCH   1  23
TORSDOF 4
