REMARK  3 active torsions:
REMARK  status: ('A' for Active; 'I' for Inactive)
REMARK    1  A    between atoms: C_4  and  N_5 
REMARK       I    between atoms: N_5  and  C_6 
REMARK    2  A    between atoms: C_6  and  C_8 
REMARK    3  A    between atoms: C_21  and  C_22 
ROOT
HETATM    1  F   UNL     1       5.123  -2.555   0.252  1.00  0.00    -0.205 F 
HETATM    2  C   UNL     1       4.498  -1.383   0.052  1.00  0.00     0.132 A 
HETATM    3  C   UNL     1       5.287  -0.227   0.052  1.00  0.00     0.072 A 
HETATM    4  C   UNL     1       4.708   1.023  -0.160  1.00  0.00     0.040 A 
HETATM    5  C   UNL     1       3.330   1.090  -0.374  1.00  0.00     0.072 A 
HETATM    6  C   UNL     1       2.556  -0.074  -0.381  1.00  0.00     0.132 A 
HETATM    7  F   UNL     1       1.238   0.062  -0.596  1.00  0.00    -0.205 F 
HETATM    8  C   UNL     1       3.118  -1.335  -0.164  1.00  0.00     0.054 A 
ENDROOT
BRANCH   4   9
HETATM    9  N   UNL     1       5.425   2.240  -0.178  1.00  0.00    -0.327 N 
HETATM   10  C   UNL     1       6.796   2.409  -0.050  1.00  0.00     0.228 C 
HETATM   11  O   UNL     1       7.612   1.509   0.119  1.00  0.00    -0.273 OA
HETATM   12  H   UNL     1       4.868   3.079  -0.291  1.00  0.00     0.169 HD
BRANCH  10  13
HETATM   13  C   UNL     1       7.223   3.867  -0.136  1.00  0.00     0.107 C 
HETATM   14  C   UNL     1       7.004   4.427  -1.536  1.00  0.00     0.190 C 
HETATM   15  O   UNL     1       7.222   5.841  -1.572  1.00  0.00    -0.350 OA
HETATM   16  C   UNL     1       8.408   6.239  -1.011  1.00  0.00     0.075 A 
HETATM   17  C   UNL     1       8.832   7.531  -1.317  1.00  0.00     0.037 A 
HETATM   18  C   UNL     1       9.160   5.433  -0.147  1.00  0.00    -0.024 A 
HETATM   19  C   UNL     1      10.029   8.017  -0.793  1.00  0.00     0.003 A 
HETATM   20  C   UNL     1      10.801   7.211   0.042  1.00  0.00     0.001 A 
HETATM   21  C   UNL     1      10.369   5.923   0.364  1.00  0.00     0.010 A 
HETATM   22  C   UNL     1       8.703   4.045   0.205  1.00  0.00     0.057 C 
ENDBRANCH  10  13
ENDBRANCH   4   9
BRANCH   8  23
HETATM   23  C   UNL     1       2.292  -2.531  -0.178  1.00  0.00     0.016 A 
HETATM   24  C   UNL     1       1.083  -2.814  -0.861  1.00  0.00     0.152 A 
HETATM   25  N   UNL     1       0.619  -4.041  -0.609  1.00  0.00    -0.187 NA
HETATM   26  N   UNL     1       1.524  -4.550   0.241  1.00  0.00    -0.289 N 
HETATM   27  H   UNL     1       1.385  -5.495   0.583  1.00  0.00     0.188 HD
HETATM   28  C   UNL     1       2.537  -3.685   0.537  1.00  0.00     0.123 A 
ENDBRANCH   8  23
TORSDOF 3
