REMARK  6 active torsions:
REMARK  status: ('A' for Active; 'I' for Inactive)
REMARK    1  A    between atoms: O_2  and  C_3 
REMARK    2  A    between atoms: C_6  and  C_7 
REMARK       I    between atoms: C_7  and  N_8 
REMARK    3  A    between atoms: N_8  and  N_9 
REMARK    4  A    between atoms: N_13  and  C_14 
REMARK    5  A    between atoms: C_14  and  C_15 
REMARK    6  A    between atoms: C_15  and  C_16 
ROOT
HETATM    1  N   UNL     1       4.643   1.238  -5.595  1.00  0.00    -0.166 NA
HETATM    2  C   UNL     1       5.135   2.142  -6.379  1.00  0.00     0.157 A 
HETATM    3  C   UNL     1       5.948   1.955  -7.658  1.00  0.00     0.279 A 
HETATM    4  O   UNL     1       6.283   0.873  -8.096  1.00  0.00    -0.265 OA
HETATM    5  N   UNL     1       6.182   3.232  -8.141  1.00  0.00    -0.311 N 
HETATM    6  C   UNL     1       4.989   3.579  -6.198  1.00  0.00     0.027 A 
HETATM    7  C   UNL     1       5.623   4.195  -7.278  1.00  0.00     0.050 A 
HETATM    8  C   UNL     1       5.645   5.574  -7.369  1.00  0.00     0.031 A 
HETATM    9  C   UNL     1       5.028   6.311  -6.347  1.00  0.00     0.002 A 
HETATM   10  C   UNL     1       4.400   5.671  -5.262  1.00  0.00     0.001 A 
HETATM   11  C   UNL     1       4.372   4.279  -5.180  1.00  0.00     0.016 A 
ENDROOT
BRANCH   1  12
HETATM   12  N   UNL     1       4.891  -0.066  -5.919  1.00  0.00    -0.242 N 
HETATM   13  C   UNL     1       4.366  -1.077  -5.129  1.00  0.00     0.271 C 
HETATM   14  O   UNL     1       3.653  -0.886  -4.146  1.00  0.00    -0.266 OA
HETATM   15  H   UNL     1       5.512  -0.257  -6.703  1.00  0.00     0.192 HD
BRANCH  13  16
HETATM   16  C   UNL     1       4.727  -2.482  -5.499  1.00  0.00     0.033 A 
HETATM   17  C   UNL     1       5.286  -2.841  -6.731  1.00  0.00     0.020 A 
HETATM   18  C   UNL     1       5.610  -4.179  -6.988  1.00  0.00     0.038 A 
HETATM   19  C   UNL     1       5.380  -5.173  -6.033  1.00  0.00     0.068 A 
HETATM   20  C   UNL     1       4.803  -4.823  -4.814  1.00  0.00     0.038 A 
HETATM   21  C   UNL     1       4.479  -3.487  -4.552  1.00  0.00     0.020 A 
BRANCH  19  22
HETATM   22  O   UNL     1       5.752  -6.433  -6.413  1.00  0.00    -0.356 OA
HETATM   23  C   UNL     1       5.612  -7.463  -5.442  1.00  0.00     0.210 C 
ENDBRANCH  19  22
ENDBRANCH  13  16
ENDBRANCH   1  12
BRANCH   5  24
HETATM   24  C   UNL     1       6.933   3.517  -9.345  1.00  0.00     0.137 C 
BRANCH  24  25
HETATM   25  C   UNL     1       6.192   3.073 -10.613  1.00  0.00     0.059 C 
BRANCH  25  26
HETATM   26  C   UNL     1       6.854   3.596 -11.865  1.00  0.00    -0.057 A 
HETATM   27  C   UNL     1       8.107   3.114 -12.268  1.00  0.00     0.007 A 
HETATM   28  C   UNL     1       8.724   3.619 -13.414  1.00  0.00     0.001 A 
HETATM   29  C   UNL     1       8.093   4.604 -14.172  1.00  0.00     0.000 A 
HETATM   30  C   UNL     1       6.842   5.083 -13.786  1.00  0.00     0.001 A 
HETATM   31  C   UNL     1       6.226   4.583 -12.637  1.00  0.00     0.007 A 
ENDBRANCH  25  26
ENDBRANCH  24  25
ENDBRANCH   5  24
TORSDOF 6
