REMARK  5 active torsions:
REMARK  status: ('A' for Active; 'I' for Inactive)
REMARK    1  A    between atoms: C_7  and  C_8 
REMARK    2  A    between atoms: N_9  and  N_10 
REMARK       I    between atoms: N_10  and  C_11 
REMARK    3  A    between atoms: C_11  and  C_12 
REMARK    4  A    between atoms: C_12  and  N_13 
REMARK       I    between atoms: N_13  and  C_14 
REMARK    5  A    between atoms: C_14  and  C_15 
ROOT
HETATM    1  N   UNL     1       3.215  -4.662   0.018  1.00  0.00    -0.246 N 
HETATM    2  C   UNL     1       4.009  -5.786   0.182  1.00  0.00     0.255 C 
HETATM    3  O   UNL     1       5.224  -5.780   0.376  1.00  0.00    -0.270 OA
HETATM    4  H   UNL     1       2.244  -4.783  -0.278  1.00  0.00     0.192 HD
ENDROOT
BRANCH   1   5
HETATM    5  N   UNL     1       3.759  -3.413   0.087  1.00  0.00    -0.184 NA
HETATM    6  C   UNL     1       2.921  -2.438  -0.059  1.00  0.00     0.153 C 
BRANCH   6   7
HETATM    7  C   UNL     1       3.383  -1.062  -0.034  1.00  0.00     0.018 A 
HETATM    8  C   UNL     1       4.700  -0.623  -0.010  1.00  0.00     0.018 A 
HETATM    9  C   UNL     1       5.984  -1.376   0.003  1.00  0.00     0.069 C 
HETATM   10  N   UNL     1       4.683   0.750  -0.009  1.00  0.00    -0.358 N 
HETATM   11  H   UNL     1       5.504   1.339   0.003  1.00  0.00     0.166 HD
HETATM   12  C   UNL     1       3.393   1.220  -0.028  1.00  0.00     0.043 A 
HETATM   13  C   UNL     1       2.551   0.108  -0.041  1.00  0.00     0.004 A 
HETATM   14  C   UNL     1       2.915   2.536  -0.034  1.00  0.00     0.030 A 
HETATM   15  C   UNL     1       1.157   0.327  -0.054  1.00  0.00     0.014 A 
HETATM   16  C   UNL     1       0.661   1.636  -0.056  1.00  0.00     0.001 A 
HETATM   17  C   UNL     1       1.531   2.723  -0.049  1.00  0.00     0.002 A 
ENDBRANCH   6   7
ENDBRANCH   1   5
BRANCH   2  18
HETATM   18  C   UNL     1       3.246  -7.096  -0.031  1.00  0.00     0.227 C 
BRANCH  18  19
HETATM   19  N   UNL     1       2.031  -7.228   0.766  1.00  0.00    -0.348 N 
HETATM   20  C   UNL     1       0.840  -6.659   0.375  1.00  0.00     0.252 C 
HETATM   21  O   UNL     1       0.790  -5.883  -0.576  1.00  0.00    -0.268 OA
HETATM   22  H   UNL     1       2.125  -7.676   1.666  1.00  0.00     0.163 HD
BRANCH  20  23
HETATM   23  C   UNL     1      -0.384  -6.953   1.176  1.00  0.00     0.035 A 
HETATM   24  C   UNL     1      -1.545  -6.230   0.873  1.00  0.00     0.059 A 
HETATM   25  C   UNL     1      -2.717  -6.475   1.579  1.00  0.00     0.117 A 
HETATM   26  F   UNL     1      -3.823  -5.780   1.280  1.00  0.00    -0.206 F 
HETATM   27  C   UNL     1      -2.762  -7.429   2.587  1.00  0.00     0.042 A 
HETATM   28  C   UNL     1      -1.615  -8.159   2.891  1.00  0.00     0.004 A 
HETATM   29  C   UNL     1      -0.429  -7.928   2.185  1.00  0.00     0.017 A 
ENDBRANCH  20  23
ENDBRANCH  18  19
ENDBRANCH   2  18
TORSDOF 5
