REMARK  1 active torsions:
REMARK  status: ('A' for Active; 'I' for Inactive)
REMARK    1  A    between atoms: C_11  and  N_12 
REMARK       I    between atoms: N_12  and  C_13 
REMARK       I    between atoms: C_13  and  N_14 
ROOT
HETATM    1  N   UNL     1       2.037   4.737  -0.354  1.00  0.00    -0.308 N 
HETATM    2  C   UNL     1       2.352   3.423  -0.595  1.00  0.00     0.323 C 
HETATM    3  N   UNL     1       3.440   2.942   0.154  1.00  0.00    -0.332 N 
HETATM    4  C   UNL     1       3.883   1.582  -0.154  1.00  0.00     0.160 C 
HETATM    5  C   UNL     1       3.313   0.510   0.807  1.00  0.00     0.204 C 
HETATM    6  N   UNL     1       4.272   0.304   1.961  1.00  0.00    -0.069 N 
HETATM    7  H   UNL     1       5.187  -0.002   1.602  1.00  0.00     0.277 HD
HETATM    8  H   UNL     1       3.928  -0.499   2.509  1.00  0.00     0.277 HD
HETATM    9  C   UNL     1       4.450   1.466   2.883  1.00  0.00     0.239 C 
HETATM   10  C   UNL     1       3.416   2.566   2.638  1.00  0.00     0.029 C 
HETATM   11  C   UNL     1       3.825   3.479   1.460  1.00  0.00     0.134 C 
HETATM   12  C   UNL     1       1.951   0.831   1.430  1.00  0.00     0.035 C 
HETATM   13  C   UNL     1       2.010   1.968   2.466  1.00  0.00     0.010 C 
HETATM   14  O   UNL     1       1.761   2.675  -1.367  1.00  0.00    -0.247 OA
HETATM   15  H   UNL     1       2.821   5.303  -0.082  1.00  0.00     0.170 HD
ENDROOT
BRANCH   1  16
HETATM   16  C   UNL     1       0.861   5.440  -0.739  1.00  0.00     0.049 A 
HETATM   17  C   UNL     1       0.782   6.859  -0.531  1.00  0.00     0.021 A 
HETATM   18  C   UNL     1      -0.399   7.559  -0.892  1.00  0.00     0.090 A 
HETATM   19  C   UNL     1       1.819   7.645   0.036  1.00  0.00     0.017 A 
HETATM   20  N   UNL     1      -0.523   8.894  -0.707  1.00  0.00    -0.259 NA
HETATM   21  C   UNL     1      -1.457   6.830  -1.446  1.00  0.00     0.063 A 
HETATM   22  C   UNL     1       0.491   9.593  -0.166  1.00  0.00     0.117 A 
HETATM   23  C   UNL     1       1.675   9.016   0.221  1.00  0.00     0.020 A 
HETATM   24 CL   UNL     1      -2.934   7.612  -1.915  1.00  0.00    -0.082 Cl
HETATM   25  C   UNL     1      -1.386   5.452  -1.636  1.00  0.00     0.028 A 
HETATM   26  C   UNL     1      -0.237   4.762  -1.276  1.00  0.00     0.032 A 
ENDBRANCH   1  16
TORSDOF 1
