REMARK  4 active torsions:
REMARK  status: ('A' for Active; 'I' for Inactive)
REMARK    1  A    between atoms: C_4  and  C_5 
REMARK    2  A    between atoms: C_8  and  C_9 
REMARK       I    between atoms: C_9  and  N_10 
REMARK    3  A    between atoms: N_10  and  C_11 
REMARK    4  A    between atoms: C_14  and  N_15 
ROOT
HETATM    1  C   UNL     1       9.272   4.189   0.259  1.00  0.00     0.252 C 
HETATM    2  N   UNL     1       8.894   5.350  -0.393  1.00  0.00    -0.352 N 
HETATM    3  O   UNL     1      10.368   4.037   0.786  1.00  0.00    -0.268 OA
HETATM    4  H   UNL     1       8.067   5.255  -0.970  1.00  0.00     0.163 HD
ENDROOT
BRANCH   1   5
HETATM    5  C   UNL     1       8.281   3.069   0.301  1.00  0.00     0.032 A 
HETATM    6  C   UNL     1       6.916   3.234   0.039  1.00  0.00     0.018 A 
HETATM    7  C   UNL     1       6.056   2.126   0.064  1.00  0.00     0.015 A 
HETATM    8  C   UNL     1       6.531   0.840   0.366  1.00  0.00    -0.002 A 
HETATM    9  C   UNL     1       7.893   0.692   0.657  1.00  0.00     0.015 A 
HETATM   10  C   UNL     1       8.757   1.792   0.625  1.00  0.00     0.018 A 
BRANCH   8  11
HETATM   11  C   UNL     1       5.641  -0.318   0.376  1.00  0.00     0.086 A 
HETATM   12  O   UNL     1       4.388  -0.126  -0.139  1.00  0.00    -0.315 OA
HETATM   13  C   UNL     1       3.727  -1.315  -0.065  1.00  0.00     0.050 A 
HETATM   14  C   UNL     1       2.345  -1.341  -0.584  1.00  0.00     0.076 C 
HETATM   15  C   UNL     1       4.537  -2.272   0.502  1.00  0.00     0.035 A 
HETATM   16  C   UNL     1       5.769  -1.633   0.784  1.00  0.00     0.040 A 
ENDBRANCH   8  11
ENDBRANCH   1   5
BRANCH   2  17
HETATM   17  C   UNL     1       9.803   6.410  -0.840  1.00  0.00     0.084 C 
HETATM   18  C   UNL     1       9.036   7.745  -0.856  1.00  0.00     0.027 C 
HETATM   19  C   UNL     1       8.765   8.270   0.560  1.00  0.00     0.035 C 
HETATM   20  C   UNL     1      10.018   8.358   1.434  1.00  0.00     0.183 C 
HETATM   21  C   UNL     1      10.875   7.097   1.376  1.00  0.00     0.035 C 
HETATM   22  C   UNL     1      11.111   6.607  -0.054  1.00  0.00     0.027 C 
BRANCH  20  23
HETATM   23  N   UNL     1      10.844   9.523   0.994  1.00  0.00    -0.075 N 
HETATM   24  H   UNL     1      11.166   9.446   0.022  1.00  0.00     0.274 HD
HETATM   25  H   UNL     1      10.321  10.405   1.080  1.00  0.00     0.274 HD
HETATM   26  H   UNL     1      11.682   9.617   1.584  1.00  0.00     0.274 HD
ENDBRANCH  20  23
ENDBRANCH   2  17
TORSDOF 4
