REMARK  8 active torsions:
REMARK  status: ('A' for Active; 'I' for Inactive)
REMARK    1  A    between atoms: C_6  and  N_7 
REMARK       I    between atoms: N_7  and  C_8 
REMARK    2  A    between atoms: C_8  and  C_9 
REMARK    3  A    between atoms: C_9  and  S_10 
REMARK    4  A    between atoms: S_10  and  C_11 
REMARK    5  A    between atoms: N_12  and  C_13 
REMARK    6  A    between atoms: C_13  and  C_14 
REMARK    7  A    between atoms: C_25  and  C_26 
REMARK       I    between atoms: C_26  and  N_27 
REMARK    8  A    between atoms: C_30  and  C_31 
REMARK       I    between atoms: C_31  and  N_32 
ROOT
HETATM    1  C   UNL     1       3.820   4.637  -1.120  1.00  0.00     0.172 C 
HETATM    2  N   UNL     1       4.641   5.520  -0.448  1.00  0.00    -0.286 N 
HETATM    3  C   UNL     1       4.091   6.592   0.249  1.00  0.00     0.262 C 
HETATM    4  O   UNL     1       4.749   7.493   0.764  1.00  0.00    -0.267 OA
HETATM    5  C   UNL     1       2.625   6.615   0.372  1.00  0.00     0.061 A 
HETATM    6  C   UNL     1       1.903   5.625  -0.294  1.00  0.00     0.076 A 
HETATM    7  C   UNL     1       1.988   7.574   1.170  1.00  0.00     0.020 A 
HETATM    8  C   UNL     1       0.605   7.523   1.331  1.00  0.00     0.018 A 
HETATM    9  C   UNL     1      -0.119   6.505   0.705  1.00  0.00     0.034 A 
HETATM   10  C   UNL     1       0.518   5.576  -0.128  1.00  0.00     0.050 A 
HETATM   11  N   UNL     1       2.526   4.668  -1.106  1.00  0.00    -0.224 NA
ENDROOT
BRANCH   1  12
HETATM   12  S   UNL     1       4.520   3.397  -2.134  1.00  0.00    -0.082 SA
BRANCH  12  13
HETATM   13  C   UNL     1       4.708   4.381  -3.647  1.00  0.00     0.185 C 
BRANCH  13  14
HETATM   14  C   UNL     1       3.617   4.151  -4.681  1.00  0.00     0.231 C 
HETATM   15  N   UNL     1       2.344   3.975  -4.174  1.00  0.00    -0.326 N 
HETATM   16  H   UNL     1       2.267   3.900  -3.161  1.00  0.00     0.169 HD
HETATM   17  O   UNL     1       3.910   4.208  -5.875  1.00  0.00    -0.272 OA
BRANCH  15  18
HETATM   18  C   UNL     1       1.147   3.805  -4.904  1.00  0.00     0.036 A 
HETATM   19  C   UNL     1       1.052   3.925  -6.292  1.00  0.00     0.053 A 
HETATM   20  C   UNL     1      -0.175   3.741  -6.942  1.00  0.00     0.042 A 
HETATM   21  C   UNL     1      -1.331   3.413  -6.219  1.00  0.00    -0.040 A 
HETATM   22 CL   UNL     1      -0.214   3.943  -8.660  1.00  0.00    -0.084 Cl
HETATM   23  C   UNL     1      -2.667   3.225  -6.879  1.00  0.00     0.050 C 
HETATM   24  C   UNL     1      -1.234   3.314  -4.824  1.00  0.00     0.011 A 
HETATM   25  C   UNL     1      -0.009   3.509  -4.176  1.00  0.00     0.030 A 
ENDBRANCH  15  18
ENDBRANCH  13  14
ENDBRANCH  12  13
ENDBRANCH   1  12
BRANCH   2  26
HETATM   26  C   UNL     1       6.099   5.401  -0.366  1.00  0.00     0.199 C 
BRANCH  26  27
HETATM   27  C   UNL     1       6.460   4.777   0.938  1.00  0.00     0.070 A 
HETATM   28  O   UNL     1       6.314   3.425   1.040  1.00  0.00    -0.325 OA
HETATM   29  C   UNL     1       6.670   3.083   2.305  1.00  0.00     0.142 A 
HETATM   30  C   UNL     1       7.045   4.196   3.019  1.00  0.00     0.027 A 
HETATM   31  C   UNL     1       6.911   5.294   2.136  1.00  0.00     0.036 A 
ENDBRANCH  26  27
ENDBRANCH   2  26
BRANCH   9  32
HETATM   32  C   UNL     1      -1.581   6.450   0.903  1.00  0.00     0.253 C 
HETATM   33  N   UNL     1      -2.138   5.307   1.484  1.00  0.00    -0.348 N 
HETATM   34  C   UNL     1      -3.582   5.324   1.711  1.00  0.00     0.127 C 
HETATM   35  C   UNL     1      -1.386   4.405   2.357  1.00  0.00     0.127 C 
HETATM   36  C   UNL     1      -4.179   3.919   1.660  1.00  0.00     0.034 C 
HETATM   37  C   UNL     1      -3.429   2.915   2.543  1.00  0.00     0.081 C 
HETATM   38  C   UNL     1      -1.921   2.979   2.271  1.00  0.00     0.034 C 
HETATM   39  O   UNL     1      -2.229   7.423   0.529  1.00  0.00    -0.267 OA
BRANCH  37  40
HETATM   40  C   UNL     1      -3.739   3.110   4.022  1.00  0.00     0.219 C 
HETATM   41  N   UNL     1      -3.257   2.135   4.847  1.00  0.00    -0.370 N 
HETATM   42  H   UNL     1      -2.963   1.233   4.499  1.00  0.00     0.159 HD
HETATM   43  H   UNL     1      -3.524   2.199   5.822  1.00  0.00     0.159 HD
HETATM   44  O   UNL     1      -4.366   4.055   4.483  1.00  0.00    -0.273 OA
ENDBRANCH  37  40
ENDBRANCH   9  32
TORSDOF 8
