REMARK  9 active torsions:
REMARK  status: ('A' for Active; 'I' for Inactive)
REMARK    1  A    between atoms: C_2  and  O_3 
REMARK    2  A    between atoms: O_3  and  C_4 
REMARK    3  A    between atoms: C_4  and  C_5 
REMARK    4  A    between atoms: C_8  and  N_9 
REMARK       I    between atoms: N_9  and  C_10 
REMARK    5  A    between atoms: C_10  and  C_11 
REMARK    6  A    between atoms: C_11  and  C_12 
REMARK    7  A    between atoms: N_13  and  C_14 
REMARK    8  A    between atoms: C_14  and  C_15 
REMARK    9  A    between atoms: N_23  and  C_24 
ROOT
HETATM    1  C   UNL     1       5.083  -2.951   0.760  1.00  0.00     0.191 A 
HETATM    2  N   UNL     1       6.112  -2.435   1.639  1.00  0.00    -0.315 N 
HETATM    3  C   UNL     1       6.378  -1.091   1.414  1.00  0.00     0.333 A 
HETATM    4  O   UNL     1       7.228  -0.479   2.045  1.00  0.00    -0.246 OA
HETATM    5  N   UNL     1       5.554  -0.640   0.405  1.00  0.00    -0.232 N 
HETATM    6  C   UNL     1       4.730  -1.669  -0.002  1.00  0.00     0.256 A 
HETATM    7  O   UNL     1       3.826  -1.647  -0.833  1.00  0.00    -0.270 OA
ENDROOT
BRANCH   1   8
HETATM    8  C   UNL     1       5.504  -3.994  -0.269  1.00  0.00     0.138 C 
BRANCH   8   9
HETATM    9  C   UNL     1       6.031  -5.273   0.315  1.00  0.00     0.224 C 
HETATM   10  N   UNL     1       5.298  -6.128   1.069  1.00  0.00    -0.327 N 
HETATM   11  H   UNL     1       5.910  -6.836   1.465  1.00  0.00     0.169 HD
HETATM   12  O   UNL     1       7.226  -5.554   0.165  1.00  0.00    -0.273 OA
BRANCH  10  13
HETATM   13  C   UNL     1       3.943  -6.273   1.401  1.00  0.00     0.034 A 
HETATM   14  C   UNL     1       2.873  -5.645   0.768  1.00  0.00     0.030 A 
HETATM   15  C   UNL     1       1.554  -5.920   1.169  1.00  0.00     0.020 A 
HETATM   16  C   UNL     1       1.289  -6.827   2.204  1.00  0.00     0.039 A 
HETATM   17  C   UNL     1       2.361  -7.451   2.844  1.00  0.00     0.020 A 
HETATM   18  C   UNL     1       3.670  -7.180   2.437  1.00  0.00     0.030 A 
BRANCH  16  19
HETATM   19  C   UNL     1      -0.127  -7.117   2.561  1.00  0.00     0.293 C 
HETATM   20  O   UNL     1      -1.080  -6.562   2.040  1.00  0.00    -0.259 OA
BRANCH  19  21
HETATM   21  O   UNL     1      -0.184  -8.089   3.506  1.00  0.00    -0.318 OA
BRANCH  21  22
HETATM   22  C   UNL     1      -1.497  -8.542   3.869  1.00  0.00     0.174 C 
HETATM   23  C   UNL     1      -2.084  -7.662   4.955  1.00  0.00     0.034 C 
ENDBRANCH  21  22
ENDBRANCH  19  21
ENDBRANCH  16  19
ENDBRANCH  10  13
ENDBRANCH   8   9
ENDBRANCH   1   8
BRANCH   2  24
HETATM   24  C   UNL     1       6.762  -3.188   2.704  1.00  0.00     0.168 C 
BRANCH  24  25
HETATM   25  C   UNL     1       5.816  -3.782   3.711  1.00  0.00    -0.023 A 
HETATM   26  C   UNL     1       6.091  -5.028   4.269  1.00  0.00     0.125 A 
HETATM   27  N   UNL     1       5.312  -5.643   5.187  1.00  0.00    -0.273 NA
HETATM   28  C   UNL     1       4.216  -4.970   5.597  1.00  0.00     0.116 A 
HETATM   29  C   UNL     1       3.868  -3.713   5.135  1.00  0.00     0.020 A 
HETATM   30  C   UNL     1       4.688  -3.108   4.187  1.00  0.00     0.012 A 
ENDBRANCH  24  25
ENDBRANCH   2  24
BRANCH   5  31
HETATM   31  C   UNL     1       5.572   0.683  -0.134  1.00  0.00     0.047 A 
HETATM   32  C   UNL     1       6.208   1.741   0.536  1.00  0.00     0.031 A 
HETATM   33  C   UNL     1       6.267   3.031  -0.007  1.00  0.00     0.009 A 
HETATM   34  C   UNL     1       5.683   3.308  -1.241  1.00  0.00    -0.062 A 
HETATM   35  C   UNL     1       5.799   4.674  -1.848  1.00  0.00     0.048 C 
HETATM   36  C   UNL     1       5.049   2.270  -1.925  1.00  0.00     0.009 A 
HETATM   37  C   UNL     1       4.986   0.981  -1.374  1.00  0.00     0.031 A 
ENDBRANCH   5  31
TORSDOF 9
