REMARK  3 active torsions:
REMARK  status: ('A' for Active; 'I' for Inactive)
REMARK    1  A    between atoms: C_9  and  N_10 
REMARK    2  A    between atoms: N_13  and  C_14 
REMARK    3  A    between atoms: C_14  and  C_15 
ROOT
HETATM    1  C   UNL     1       0.446   0.479  -8.400  1.00  0.00    -0.006 A 
HETATM    2  C   UNL     1      -0.920   0.278  -8.705  1.00  0.00     0.052 A 
HETATM    3  C   UNL     1      -1.671  -0.801  -8.120  1.00  0.00     0.100 C 
HETATM    4  N   UNL     1      -2.280  -1.678  -7.664  1.00  0.00    -0.191 NA
HETATM    5  C   UNL     1      -1.574   1.143  -9.598  1.00  0.00     0.026 A 
HETATM    6  C   UNL     1      -0.882   2.199 -10.192  1.00  0.00     0.044 A 
HETATM    7  C   UNL     1       0.462   2.386  -9.899  1.00  0.00     0.117 A 
HETATM    8  F   UNL     1       1.127   3.400 -10.465  1.00  0.00    -0.206 F 
HETATM    9  C   UNL     1       1.129   1.541  -9.018  1.00  0.00     0.052 A 
ENDROOT
BRANCH   1  10
HETATM   10  C   UNL     1       1.184  -0.404  -7.410  1.00  0.00     0.312 C 
BRANCH  10  11
HETATM   11  N   UNL     1       0.610  -0.301  -6.062  1.00  0.00     0.096 N 
HETATM   12  C   UNL     1       0.974  -1.455  -5.220  1.00  0.00     0.303 C 
HETATM   13  C   UNL     1       2.363  -1.345  -4.549  1.00  0.00     0.303 C 
HETATM   14  N   UNL     1       2.549  -0.120  -3.722  1.00  0.00     0.096 N 
HETATM   15  C   UNL     1       2.304   1.011  -4.672  1.00  0.00     0.303 C 
HETATM   16  C   UNL     1       0.930   0.972  -5.392  1.00  0.00     0.303 C 
BRANCH  14  17
HETATM   17  C   UNL     1       1.674  -0.046  -2.516  1.00  0.00     0.227 C 
HETATM   18  C   UNL     1       1.653  -1.325  -1.631  1.00  0.00     0.069 C 
HETATM   19  C   UNL     1       2.786  -1.419  -0.602  1.00  0.00     0.190 C 
HETATM   20  N   UNL     1       2.709  -0.228   0.328  1.00  0.00    -0.066 N 
HETATM   21  C   UNL     1       4.182  -1.225  -1.200  1.00  0.00     0.035 C 
HETATM   22  C   UNL     1       1.476  -0.038   1.151  1.00  0.00     0.270 C 
HETATM   23  H   UNL     1       3.461  -0.351   1.022  1.00  0.00     0.280 HD
HETATM   24  C   UNL     1       3.148   0.894  -0.585  1.00  0.00     0.190 C 
HETATM   25  C   UNL     1       4.419   0.292  -1.191  1.00  0.00     0.035 C 
HETATM   26  C   UNL     1       2.045   1.169  -1.616  1.00  0.00     0.069 C 
ENDBRANCH  14  17
ENDBRANCH  10  11
ENDBRANCH   1  10
TORSDOF 3
