REMARK  6 active torsions:
REMARK  status: ('A' for Active; 'I' for Inactive)
REMARK    1  A    between atoms: C_3  and  C_4 
REMARK    2  A    between atoms: C_5  and  C_6 
REMARK       I    between atoms: C_6  and  N_7 
REMARK    3  A    between atoms: N_7  and  C_8 
REMARK    4  A    between atoms: C_8  and  C_9 
REMARK    5  A    between atoms: C_11  and  O_12 
REMARK    6  A    between atoms: O_12  and  C_13 
ROOT
HETATM    1  C   UNL     1       3.560   3.942  -0.157  1.00  0.00     0.161 C 
ENDROOT
BRANCH   1   2
HETATM    2  N   UNL     1       2.562   4.972  -0.345  1.00  0.00    -0.353 N 
HETATM    3  C   UNL     1       1.319   4.868   0.218  1.00  0.00     0.241 C 
HETATM    4  O   UNL     1       0.930   3.901   0.857  1.00  0.00    -0.269 OA
HETATM    5  H   UNL     1       2.808   5.770  -0.916  1.00  0.00     0.163 HD
BRANCH   3   6
HETATM    6  C   UNL     1       0.484   6.074  -0.016  1.00  0.00     0.075 C 
HETATM    7  C   UNL     1      -0.758   6.135   0.488  1.00  0.00     0.018 C 
BRANCH   7   8
HETATM    8  C   UNL     1      -1.633   7.314   0.353  1.00  0.00    -0.014 A 
HETATM    9  C   UNL     1      -1.766   7.946  -0.896  1.00  0.00     0.013 A 
HETATM   10  C   UNL     1      -2.604   9.054  -1.056  1.00  0.00     0.001 A 
HETATM   11  C   UNL     1      -3.332   9.541   0.026  1.00  0.00     0.002 A 
HETATM   12  C   UNL     1      -3.227   8.917   1.268  1.00  0.00     0.024 A 
HETATM   13  C   UNL     1      -2.387   7.809   1.433  1.00  0.00     0.044 A 
HETATM   14 CL   UNL     1      -2.306   7.107   3.013  1.00  0.00    -0.083 Cl
ENDBRANCH   7   8
ENDBRANCH   3   6
ENDBRANCH   1   2
BRANCH   1  15
HETATM   15  C   UNL     1       4.921   4.422  -0.591  1.00  0.00    -0.038 A 
HETATM   16  C   UNL     1       5.409   5.661  -0.147  1.00  0.00     0.046 A 
HETATM   17  C   UNL     1       6.633   6.150  -0.608  1.00  0.00     0.078 A 
HETATM   18  C   UNL     1       7.430   5.361  -1.434  1.00  0.00     0.037 A 
HETATM   19  C   UNL     1       6.978   4.106  -1.844  1.00  0.00     0.003 A 
HETATM   20  C   UNL     1       5.726   3.642  -1.432  1.00  0.00     0.009 A 
BRANCH  17  21
HETATM   21  O   UNL     1       7.137   7.365  -0.211  1.00  0.00    -0.292 OA
BRANCH  21  22
HETATM   22  C   UNL     1       6.296   8.472  -0.301  1.00  0.00     0.169 A 
HETATM   23  N   UNL     1       5.253   8.473  -1.166  1.00  0.00    -0.237 NA
HETATM   24  C   UNL     1       4.508   9.599  -1.215  1.00  0.00     0.119 A 
HETATM   25  C   UNL     1       4.755  10.723  -0.443  1.00  0.00     0.019 A 
HETATM   26  C   UNL     1       5.839  10.698   0.429  1.00  0.00     0.006 A 
HETATM   27  C   UNL     1       6.631   9.556   0.499  1.00  0.00     0.058 A 
ENDBRANCH  21  22
ENDBRANCH  17  21
ENDBRANCH   1  15
TORSDOF 6
