REMARK  8 active torsions:
REMARK  status: ('A' for Active; 'I' for Inactive)
REMARK    1  A    between atoms: C_2  and  O_3 
REMARK    2  A    between atoms: O_3  and  C_4 
REMARK    3  A    between atoms: C_5  and  C_6 
REMARK    4  A    between atoms: C_6  and  N_7 
REMARK    5  A    between atoms: C_23  and  C_24 
REMARK    6  A    between atoms: N_25  and  N_26 
REMARK       I    between atoms: N_26  and  C_27 
REMARK    7  A    between atoms: C_27  and  C_28 
REMARK    8  A    between atoms: C_31  and  N_32 
REMARK       I    between atoms: N_32  and  C_33 
ROOT
HETATM    1  C   UNL     1       4.272   1.139  -1.908  1.00  0.00     0.076 A 
HETATM    2  C   UNL     1       4.863   2.399  -1.707  1.00  0.00     0.002 A 
HETATM    3  C   UNL     1       6.252   2.539  -1.837  1.00  0.00     0.024 A 
HETATM    4  C   UNL     1       7.048   1.442  -2.174  1.00  0.00    -0.016 A 
HETATM    5  C   UNL     1       6.466   0.189  -2.351  1.00  0.00     0.016 A 
HETATM    6  C   UNL     1       5.079   0.038  -2.217  1.00  0.00     0.038 A 
ENDROOT
BRANCH   4   7
HETATM    7  C   UNL     1       8.501   1.623  -2.385  1.00  0.00     0.150 C 
HETATM    8  N   UNL     1       9.013   2.809  -2.318  1.00  0.00    -0.184 NA
BRANCH   8   9
HETATM    9  N   UNL     1      10.355   2.984  -2.507  1.00  0.00    -0.243 N 
HETATM   10  C   UNL     1      11.358   2.049  -2.287  1.00  0.00     0.271 C 
HETATM   11  O   UNL     1      11.200   0.895  -1.903  1.00  0.00    -0.266 OA
HETATM   12  H   UNL     1      10.620   3.964  -2.550  1.00  0.00     0.192 HD
BRANCH  10  13
HETATM   13  C   UNL     1      12.743   2.560  -2.504  1.00  0.00     0.033 A 
HETATM   14  C   UNL     1      13.023   3.574  -3.428  1.00  0.00     0.019 A 
HETATM   15  C   UNL     1      14.333   4.041  -3.589  1.00  0.00     0.030 A 
HETATM   16  C   UNL     1      15.380   3.497  -2.842  1.00  0.00     0.034 A 
HETATM   17  C   UNL     1      15.100   2.464  -1.939  1.00  0.00     0.030 A 
HETATM   18  C   UNL     1      13.792   1.995  -1.772  1.00  0.00     0.019 A 
BRANCH  16  19
HETATM   19  N   UNL     1      16.721   3.920  -2.946  1.00  0.00    -0.328 N 
HETATM   20  C   UNL     1      17.220   4.948  -3.727  1.00  0.00     0.218 C 
HETATM   21  C   UNL     1      18.713   5.104  -3.581  1.00  0.00     0.117 C 
HETATM   22  O   UNL     1      16.577   5.703  -4.447  1.00  0.00    -0.274 OA
HETATM   23  H   UNL     1      17.389   3.428  -2.365  1.00  0.00     0.169 HD
ENDBRANCH  16  19
ENDBRANCH  10  13
ENDBRANCH   8   9
ENDBRANCH   4   7
BRANCH   2  24
HETATM   24  C   UNL     1       4.035   3.612  -1.378  1.00  0.00     0.276 C 
BRANCH  24  25
HETATM   25  N   UNL     1       3.066   4.014  -2.476  1.00  0.00    -0.066 N 
HETATM   26  H   UNL     1       2.524   3.139  -2.563  1.00  0.00     0.280 HD
HETATM   27  C   UNL     1       2.067   5.068  -2.049  1.00  0.00     0.246 C 
HETATM   28  C   UNL     1       2.515   6.506  -2.383  1.00  0.00     0.062 C 
HETATM   29  C   UNL     1       2.818   6.610  -3.874  1.00  0.00     0.020 C 
HETATM   30  C   UNL     1       3.715   6.940  -1.563  1.00  0.00     0.020 A 
HETATM   31  C   UNL     1       3.999   5.696  -4.163  1.00  0.00     0.031 C 
HETATM   32  C   UNL     1       5.231   6.208  -3.416  1.00  0.00     0.138 C 
HETATM   33  C   UNL     1       3.654   4.236  -3.848  1.00  0.00     0.241 C 
HETATM   34  N   UNL     1       5.000   6.712  -2.063  1.00  0.00    -0.317 N 
HETATM   35  C   UNL     1       6.155   7.069  -1.349  1.00  0.00     0.247 A 
HETATM   36  O   UNL     1       7.297   6.870  -1.753  1.00  0.00    -0.268 OA
HETATM   37  C   UNL     1       5.944   7.695  -0.022  1.00  0.00     0.074 A 
HETATM   38  C   UNL     1       4.703   7.908   0.426  1.00  0.00     0.007 A 
HETATM   39  C   UNL     1       3.560   7.527  -0.363  1.00  0.00     0.026 A 
ENDBRANCH  24  25
ENDBRANCH   2  24
BRANCH   1  40
HETATM   40  O   UNL     1       2.902   1.119  -1.821  1.00  0.00    -0.351 OA
BRANCH  40  41
HETATM   41  C   UNL     1       2.280  -0.172  -1.787  1.00  0.00     0.171 C 
HETATM   42  C   UNL     1       0.794   0.038  -1.560  1.00  0.00     0.034 C 
ENDBRANCH  40  41
ENDBRANCH   1  40
TORSDOF 8
