REMARK  4 active torsions:
REMARK  status: ('A' for Active; 'I' for Inactive)
REMARK    1  A    between atoms: C_9  and  N_10 
REMARK       I    between atoms: N_10  and  C_11 
REMARK    2  A    between atoms: C_11  and  C_12 
REMARK    3  A    between atoms: C_14  and  C_15 
REMARK    4  A    between atoms: C_22  and  C_23 
ROOT
HETATM    1  N   UNL     1       5.657  -2.068   5.051  1.00  0.00    -0.322 N 
HETATM    2  C   UNL     1       6.039  -1.914   6.373  1.00  0.00     0.277 C 
HETATM    3  O   UNL     1       5.995  -2.786   7.234  1.00  0.00    -0.266 OA
HETATM    4  H   UNL     1       5.796  -1.233   4.484  1.00  0.00     0.169 HD
ENDROOT
BRANCH   2   5
HETATM    5  C   UNL     1       6.499  -0.554   6.644  1.00  0.00     0.157 A 
HETATM    6  N   UNL     1       6.525   0.430   5.656  1.00  0.00    -0.216 NA
HETATM    7  C   UNL     1       6.955   1.507   6.290  1.00  0.00     0.180 A 
HETATM    8  O   UNL     1       7.221   1.303   7.615  1.00  0.00    -0.293 OA
HETATM    9  C   UNL     1       6.931  -0.014   7.840  1.00  0.00     0.094 A 
BRANCH   7  10
HETATM   10  C   UNL     1       7.165   2.863   5.787  1.00  0.00     0.017 A 
HETATM   11  C   UNL     1       6.920   3.154   4.436  1.00  0.00     0.016 A 
HETATM   12  C   UNL     1       7.105   4.446   3.937  1.00  0.00     0.001 A 
HETATM   13  C   UNL     1       7.538   5.465   4.783  1.00  0.00     0.000 A 
HETATM   14  C   UNL     1       7.786   5.194   6.126  1.00  0.00     0.001 A 
HETATM   15  C   UNL     1       7.602   3.902   6.624  1.00  0.00     0.016 A 
ENDBRANCH   7  10
BRANCH   9  16
HETATM   16  C   UNL     1       7.068  -0.691   9.191  1.00  0.00     0.046 A 
HETATM   17  C   UNL     1       8.169  -0.210  10.114  1.00  0.00     0.012 A 
HETATM   18  C   UNL     1       6.752   0.131  10.425  1.00  0.00     0.012 A 
ENDBRANCH   9  16
ENDBRANCH   2   5
BRANCH   1  19
HETATM   19  C   UNL     1       5.072  -3.195   4.447  1.00  0.00     0.035 A 
HETATM   20  C   UNL     1       4.767  -4.368   5.144  1.00  0.00     0.039 A 
HETATM   21  C   UNL     1       4.144  -5.408   4.470  1.00  0.00    -0.022 A 
HETATM   22  C   UNL     1       3.682  -6.707   5.032  1.00  0.00     0.274 C 
HETATM   23  C   UNL     1       3.823  -5.307   3.116  1.00  0.00    -0.025 A 
HETATM   24  N   UNL     1       3.218  -7.512   3.822  1.00  0.00    -0.067 N 
HETATM   25  C   UNL     1       1.993  -8.319   4.064  1.00  0.00     0.270 C 
HETATM   26  H   UNL     1       3.992  -8.146   3.593  1.00  0.00     0.280 HD
HETATM   27  C   UNL     1       3.111  -6.533   2.657  1.00  0.00     0.273 C 
HETATM   28  C   UNL     1       4.128  -4.161   2.403  1.00  0.00     0.012 A 
HETATM   29  C   UNL     1       4.756  -3.105   3.077  1.00  0.00     0.030 A 
ENDBRANCH   1  19
TORSDOF 4
