REMARK  3 active torsions:
REMARK  status: ('A' for Active; 'I' for Inactive)
REMARK    1  A    between atoms: C_6  and  N_7 
REMARK       I    between atoms: N_7  and  C_8 
REMARK    2  A    between atoms: C_8  and  C_9 
REMARK    3  A    between atoms: C_9  and  C_10 
ROOT
HETATM    1  C   UNL     1      -2.615  -0.514  -0.545  1.00  0.00     0.286 C 
HETATM    2  N   UNL     1      -2.070  -0.995   0.801  1.00  0.00    -0.056 N 
HETATM    3  H   UNL     1      -1.228  -0.436   0.992  1.00  0.00     0.278 HD
HETATM    4  H   UNL     1      -2.722  -0.683   1.552  1.00  0.00     0.278 HD
HETATM    5  C   UNL     1      -1.702  -2.441   0.933  1.00  0.00     0.209 C 
HETATM    6  C   UNL     1      -0.845  -2.858  -0.283  1.00  0.00     0.115 C 
HETATM    7  N   UNL     1      -1.491  -2.509  -1.545  1.00  0.00    -0.353 N 
HETATM    8  C   UNL     1      -2.191  -1.353  -1.761  1.00  0.00     0.249 C 
HETATM    9  O   UNL     1      -2.501  -1.032  -2.904  1.00  0.00    -0.271 OA
HETATM   10  C   UNL     1      -2.949  -3.308   1.105  1.00  0.00     0.035 C 
HETATM   11  C   UNL     1      -2.571  -4.786   1.182  1.00  0.00     0.002 C 
HETATM   12  C   UNL     1      -1.758  -5.221  -0.036  1.00  0.00     0.002 C 
HETATM   13  C   UNL     1      -0.515  -4.353  -0.230  1.00  0.00     0.027 C 
HETATM   14  H   UNL     1      -1.178  -2.960  -2.403  1.00  0.00     0.163 HD
ENDROOT
BRANCH   1  15
HETATM   15  C   UNL     1      -4.142  -0.351  -0.535  1.00  0.00     0.146 C 
BRANCH  15  16
HETATM   16  C   UNL     1      -4.544   0.638   0.532  1.00  0.00     0.224 C 
HETATM   17  N   UNL     1      -5.606   1.440   0.187  1.00  0.00    -0.327 N 
HETATM   18  H   UNL     1      -6.050   1.283  -0.713  1.00  0.00     0.169 HD
HETATM   19  O   UNL     1      -3.926   0.625   1.597  1.00  0.00    -0.273 OA
BRANCH  17  20
HETATM   20  C   UNL     1      -6.158   2.501   0.942  1.00  0.00     0.036 A 
HETATM   21  C   UNL     1      -5.696   2.889   2.201  1.00  0.00     0.053 A 
HETATM   22  C   UNL     1      -6.290   3.967   2.864  1.00  0.00     0.036 A 
HETATM   23  C   UNL     1      -7.345   4.667   2.285  1.00  0.00     0.024 A 
HETATM   24 CL   UNL     1      -5.703   4.438   4.413  1.00  0.00    -0.084 Cl
HETATM   25  C   UNL     1      -7.815   4.284   1.032  1.00  0.00     0.004 A 
HETATM   26  C   UNL     1      -7.225   3.206   0.366  1.00  0.00     0.029 A 
ENDBRANCH  17  20
ENDBRANCH  15  16
ENDBRANCH   1  15
TORSDOF 3
