REMARK  5 active torsions:
REMARK  status: ('A' for Active; 'I' for Inactive)
REMARK    1  A    between atoms: C_4  and  O_5 
REMARK    2  A    between atoms: C_6  and  C_7 
REMARK       I    between atoms: C_7  and  N_8 
REMARK    3  A    between atoms: N_8  and  C_9 
REMARK    4  A    between atoms: C_9  and  C_10 
REMARK    5  A    between atoms: C_10  and  C_11 
ROOT
HETATM    1  C   UNL     1       6.275   0.299  -0.694  1.00  0.00     0.254 C 
HETATM    2  N   UNL     1       7.177   1.316  -0.914  1.00  0.00    -0.356 N 
HETATM    3  O   UNL     1       5.091   0.511  -0.447  1.00  0.00    -0.268 OA
HETATM    4  H   UNL     1       8.153   1.044  -1.001  1.00  0.00     0.162 HD
ENDROOT
BRANCH   2   5
HETATM    5  C   UNL     1       6.811   2.705  -0.718  1.00  0.00     0.136 C 
BRANCH   5   6
HETATM    6  C   UNL     1       7.907   3.737  -1.117  1.00  0.00    -0.004 C 
HETATM    7  C   UNL     1       9.194   3.513  -0.288  1.00  0.00     0.021 C 
HETATM    8  C   UNL     1       8.279   3.521  -2.604  1.00  0.00     0.021 C 
BRANCH   6   9
HETATM    9  C   UNL     1       7.372   5.156  -0.830  1.00  0.00    -0.046 A 
HETATM   10  C   UNL     1       7.056   5.543   0.485  1.00  0.00     0.027 A 
HETATM   11  C   UNL     1       6.573   6.822   0.729  1.00  0.00     0.116 A 
HETATM   12  N   UNL     1       6.380   7.746  -0.231  1.00  0.00    -0.273 NA
HETATM   13  C   UNL     1       6.679   7.369  -1.489  1.00  0.00     0.116 A 
HETATM   14  C   UNL     1       7.166   6.113  -1.832  1.00  0.00     0.027 A 
ENDBRANCH   6   9
ENDBRANCH   5   6
ENDBRANCH   2   5
BRANCH   1  15
HETATM   15  C   UNL     1       6.800  -1.104  -0.744  1.00  0.00     0.065 A 
HETATM   16  C   UNL     1       8.137  -1.450  -0.992  1.00  0.00     0.081 A 
HETATM   17  C   UNL     1       8.537  -2.793  -1.001  1.00  0.00     0.044 A 
HETATM   18  C   UNL     1       7.606  -3.814  -0.771  1.00  0.00    -0.059 A 
HETATM   19  C   UNL     1       8.029  -5.254  -0.745  1.00  0.00     0.048 C 
HETATM   20  C   UNL     1       6.274  -3.474  -0.517  1.00  0.00     0.008 A 
HETATM   21  C   UNL     1       5.876  -2.135  -0.508  1.00  0.00     0.020 A 
BRANCH  16  22
HETATM   22  O   UNL     1       9.088  -0.486  -1.218  1.00  0.00    -0.360 OA
HETATM   23  H   UNL     1       9.932  -0.924  -1.425  1.00  0.00     0.217 HD
ENDBRANCH  16  22
ENDBRANCH   1  15
TORSDOF 5
