REMARK  9 active torsions:
REMARK  status: ('A' for Active; 'I' for Inactive)
REMARK    1  A    between atoms: O_2  and  C_3 
REMARK    2  A    between atoms: C_6  and  C_7 
REMARK    3  A    between atoms: C_8  and  C_9 
REMARK    4  A    between atoms: C_9  and  O_10 
REMARK    5  A    between atoms: O_10  and  C_11 
REMARK    6  A    between atoms: C_14  and  C_15 
REMARK    7  A    between atoms: C_17  and  O_18 
REMARK    8  A    between atoms: N_26  and  C_28 
REMARK    9  A    between atoms: C_28  and  C_29 
ROOT
HETATM    1  C   UNL     1       1.539   7.809  -1.145  1.00  0.00     0.243 C 
HETATM    2  N   UNL     1       0.996   6.455  -0.910  1.00  0.00    -0.235 NA
HETATM    3  C   UNL     1      -0.278   6.345  -0.975  1.00  0.00     0.173 C 
HETATM    4  C   UNL     1      -1.203   7.432  -1.181  1.00  0.00     0.057 A 
HETATM    5  C   UNL     1      -0.680   8.701  -1.155  1.00  0.00     0.087 A 
HETATM    6  S   UNL     1      -1.847   9.913  -1.348  1.00  0.00    -0.074 SA
HETATM    7  C   UNL     1      -3.087   8.757  -1.465  1.00  0.00     0.018 A 
HETATM    8  C   UNL     1      -2.622   7.454  -1.382  1.00  0.00    -0.024 A 
HETATM    9  C   UNL     1      -3.560   6.284  -1.445  1.00  0.00     0.068 C 
HETATM   10  C   UNL     1      -4.982   6.699  -1.884  1.00  0.00     0.240 C 
HETATM   11  N   UNL     1      -5.435   8.004  -1.237  1.00  0.00    -0.063 N 
HETATM   12  H   UNL     1      -6.353   8.243  -1.625  1.00  0.00     0.280 HD
HETATM   13  C   UNL     1      -4.511   9.146  -1.643  1.00  0.00     0.282 C 
HETATM   14  N   UNL     1       0.628   8.927  -0.961  1.00  0.00    -0.357 N 
HETATM   15  H   UNL     1       1.032   9.851  -1.084  1.00  0.00     0.162 HD
ENDROOT
BRANCH   1  16
HETATM   16  C   UNL     1       2.763   8.096  -0.288  1.00  0.00    -0.014 A 
HETATM   17  C   UNL     1       3.809   8.882  -0.808  1.00  0.00     0.014 A 
HETATM   18  C   UNL     1       4.879   9.279  -0.002  1.00  0.00     0.038 A 
HETATM   19  C   UNL     1       4.916   8.881   1.330  1.00  0.00     0.079 A 
HETATM   20  C   UNL     1       3.901   8.083   1.861  1.00  0.00     0.038 A 
HETATM   21  C   UNL     1       2.827   7.697   1.056  1.00  0.00     0.014 A 
BRANCH  19  22
HETATM   22  O   UNL     1       5.873   9.337   2.266  1.00  0.00    -0.276 OA
BRANCH  22  23
HETATM   23  C   UNL     1       7.079   9.941   1.938  1.00  0.00     0.288 C 
HETATM   24  O   UNL     1       7.611   9.990   0.840  1.00  0.00    -0.260 OA
BRANCH  23  25
HETATM   25  C   UNL     1       7.641  10.638   3.118  1.00  0.00     0.083 C 
HETATM   26  C   UNL     1       7.177  10.492   4.369  1.00  0.00     0.017 C 
BRANCH  26  27
HETATM   27  C   UNL     1       7.683  11.268   5.503  1.00  0.00    -0.036 A 
HETATM   28  C   UNL     1       7.716  12.668   5.467  1.00  0.00     0.014 A 
HETATM   29  C   UNL     1       8.116  13.402   6.590  1.00  0.00     0.037 A 
HETATM   30  C   UNL     1       8.481  12.743   7.763  1.00  0.00     0.068 A 
HETATM   31  C   UNL     1       8.464  11.347   7.795  1.00  0.00     0.037 A 
HETATM   32  C   UNL     1       8.058  10.611   6.678  1.00  0.00     0.014 A 
BRANCH  30  33
HETATM   33  O   UNL     1       8.870  13.339   8.931  1.00  0.00    -0.356 OA
HETATM   34  C   UNL     1       8.692  14.748   9.019  1.00  0.00     0.210 C 
ENDBRANCH  30  33
ENDBRANCH  26  27
ENDBRANCH  23  25
ENDBRANCH  22  23
ENDBRANCH  19  22
ENDBRANCH   1  16
BRANCH   3  35
HETATM   35  O   UNL     1      -0.820   5.124  -0.820  1.00  0.00    -0.344 OA
HETATM   36  H   UNL     1      -0.076   4.511  -0.674  1.00  0.00     0.219 HD
ENDBRANCH   3  35
BRANCH  11  37
HETATM   37  C   UNL     1      -5.639   7.875   0.257  1.00  0.00     0.273 C 
BRANCH  37  38
HETATM   38  C   UNL     1      -6.207   9.109   0.903  1.00  0.00    -0.033 A 
HETATM   39  C   UNL     1      -7.524   9.520   0.645  1.00  0.00     0.009 A 
HETATM   40  C   UNL     1      -8.024  10.686   1.229  1.00  0.00     0.001 A 
HETATM   41  C   UNL     1      -7.219  11.446   2.075  1.00  0.00     0.000 A 
HETATM   42  C   UNL     1      -5.914  11.044   2.344  1.00  0.00     0.001 A 
HETATM   43  C   UNL     1      -5.408   9.882   1.762  1.00  0.00     0.009 A 
ENDBRANCH  37  38
ENDBRANCH  11  37
TORSDOF 9
