REMARK  6 active torsions:
REMARK  status: ('A' for Active; 'I' for Inactive)
REMARK    1  A    between atoms: C_6  and  C_7 
REMARK    2  A    between atoms: N_8  and  N_9 
REMARK       I    between atoms: N_9  and  C_10 
REMARK    3  A    between atoms: C_10  and  C_11 
REMARK    4  A    between atoms: C_14  and  O_15 
REMARK    5  A    between atoms: O_15  and  C_16 
REMARK    6  A    between atoms: C_16  and  C_17 
ROOT
HETATM    1  C   UNL     1       6.738   0.169  -0.800  1.00  0.00     0.244 C 
HETATM    2  N   UNL     1       7.369  -0.826   0.060  1.00  0.00    -0.225 N 
HETATM    3  C   UNL     1       8.738  -0.894   0.242  1.00  0.00     0.276 C 
HETATM    4  O   UNL     1       9.300  -1.871   0.736  1.00  0.00    -0.266 OA
HETATM    5  C   UNL     1       9.490   0.317  -0.150  1.00  0.00     0.060 A 
HETATM    6  C   UNL     1       8.749   1.473  -0.439  1.00  0.00     0.045 A 
HETATM    7  N   UNL     1       7.348   1.449  -0.394  1.00  0.00    -0.362 N 
HETATM    8  C   UNL     1      10.888   0.328  -0.146  1.00  0.00     0.019 A 
HETATM    9  C   UNL     1      11.562   1.515  -0.424  1.00  0.00     0.001 A 
HETATM   10  C   UNL     1      10.839   2.683  -0.675  1.00  0.00     0.002 A 
HETATM   11  C   UNL     1       9.440   2.665  -0.667  1.00  0.00     0.030 A 
HETATM   12  H   UNL     1       6.877   2.265  -0.754  1.00  0.00     0.162 HD
ENDROOT
BRANCH   2  13
HETATM   13  N   UNL     1       6.598  -1.870   0.618  1.00  0.00    -0.258 N 
HETATM   14  C   UNL     1       5.481  -1.614   1.389  1.00  0.00     0.270 C 
HETATM   15  O   UNL     1       4.863  -0.558   1.437  1.00  0.00    -0.266 OA
HETATM   16  H   UNL     1       7.128  -2.728   0.756  1.00  0.00     0.190 HD
BRANCH  14  17
HETATM   17  C   UNL     1       4.985  -2.788   2.147  1.00  0.00     0.033 A 
HETATM   18  C   UNL     1       5.853  -3.584   2.901  1.00  0.00     0.020 A 
HETATM   19  C   UNL     1       5.359  -4.704   3.581  1.00  0.00     0.038 A 
HETATM   20  C   UNL     1       4.003  -5.031   3.506  1.00  0.00     0.069 A 
HETATM   21  C   UNL     1       3.141  -4.221   2.759  1.00  0.00     0.038 A 
HETATM   22  C   UNL     1       3.624  -3.096   2.088  1.00  0.00     0.020 A 
BRANCH  20  23
HETATM   23  O   UNL     1       3.399  -6.102   4.104  1.00  0.00    -0.348 OA
BRANCH  23  24
HETATM   24  C   UNL     1       4.201  -6.904   4.968  1.00  0.00     0.202 C 
BRANCH  24  25
HETATM   25  C   UNL     1       3.318  -7.976   5.533  1.00  0.00    -0.011 C 
HETATM   26  C   UNL     1       3.580  -9.288   5.479  1.00  0.00     0.009 C 
ENDBRANCH  24  25
ENDBRANCH  23  24
ENDBRANCH  20  23
ENDBRANCH  14  17
ENDBRANCH   2  13
BRANCH   1  27
HETATM   27  C   UNL     1       6.838  -0.059  -2.336  1.00  0.00    -0.009 A 
HETATM   28  C   UNL     1       6.838  -1.321  -2.983  1.00  0.00    -0.051 A 
HETATM   29  C   UNL     1       6.877  -1.390  -4.397  1.00  0.00     0.014 A 
HETATM   30  C   UNL     1       6.766  -2.643  -2.271  1.00  0.00     0.049 C 
HETATM   31  C   UNL     1       6.889  -0.248  -5.198  1.00  0.00    -0.061 A 
HETATM   32  C   UNL     1       6.876  -0.358  -6.693  1.00  0.00     0.048 C 
HETATM   33  C   UNL     1       6.832   0.991  -4.578  1.00  0.00     0.007 A 
HETATM   34  C   UNL     1       6.801   1.080  -3.183  1.00  0.00     0.012 A 
ENDBRANCH   1  27
TORSDOF 6
