REMARK  9 active torsions:
REMARK  status: ('A' for Active; 'I' for Inactive)
REMARK    1  A    between atoms: C_2  and  C_3 
REMARK    2  A    between atoms: C_3  and  O_4 
REMARK    3  A    between atoms: O_4  and  C_5 
REMARK    4  A    between atoms: C_8  and  C_9 
REMARK    5  A    between atoms: C_13  and  C_14 
REMARK       I    between atoms: C_14  and  N_15 
REMARK    6  A    between atoms: N_15  and  N_16 
REMARK    7  A    between atoms: C_17  and  C_18 
REMARK    8  A    between atoms: C_21  and  C_22 
REMARK    9  A    between atoms: C_22  and  O_23 
ROOT
HETATM    1  C   UNL     1       6.567   5.825  -3.213  1.00  0.00     0.089 A 
HETATM    2  N   UNL     1       6.284   7.088  -2.859  1.00  0.00    -0.174 NA
HETATM    3  N   UNL     1       6.829   7.841  -3.825  1.00  0.00    -0.272 N 
HETATM    4  H   UNL     1       6.739   8.852  -3.775  1.00  0.00     0.189 HD
HETATM    5  C   UNL     1       7.434   7.125  -4.821  1.00  0.00     0.121 A 
HETATM    6  C   UNL     1       7.304   5.807  -4.431  1.00  0.00     0.071 A 
ENDROOT
BRANCH   5   7
HETATM    7  C   UNL     1       8.005   7.783  -5.971  1.00  0.00     0.289 C 
HETATM    8  N   UNL     1       8.524   6.924  -6.928  1.00  0.00    -0.242 N 
HETATM    9  H   UNL     1       8.484   5.923  -6.791  1.00  0.00     0.192 HD
HETATM   10  O   UNL     1       7.996   9.007  -6.070  1.00  0.00    -0.264 OA
BRANCH   8  11
HETATM   11  N   UNL     1       8.957   7.413  -8.127  1.00  0.00    -0.184 NA
HETATM   12  C   UNL     1       9.386   6.531  -8.970  1.00  0.00     0.150 C 
BRANCH  12  13
HETATM   13  C   UNL     1       9.833   6.908 -10.326  1.00  0.00    -0.017 A 
HETATM   14  C   UNL     1       9.758   8.234 -10.761  1.00  0.00     0.014 A 
HETATM   15  C   UNL     1      10.151   8.563 -12.061  1.00  0.00     0.018 A 
HETATM   16  C   UNL     1      10.620   7.570 -12.933  1.00  0.00     0.039 A 
HETATM   17  C   UNL     1      10.701   6.243 -12.484  1.00  0.00     0.018 A 
HETATM   18  C   UNL     1      10.307   5.912 -11.183  1.00  0.00     0.014 A 
BRANCH  16  19
HETATM   19  C   UNL     1      11.008   7.972 -14.313  1.00  0.00     0.292 C 
HETATM   20  O   UNL     1      10.956   9.122 -14.721  1.00  0.00    -0.259 OA
BRANCH  19  21
HETATM   21  O   UNL     1      11.406   6.892 -15.032  1.00  0.00    -0.323 OA
HETATM   22  C   UNL     1      11.775   7.197 -16.378  1.00  0.00     0.213 C 
ENDBRANCH  19  21
ENDBRANCH  16  19
ENDBRANCH  12  13
ENDBRANCH   8  11
ENDBRANCH   5   7
BRANCH   1  23
HETATM   23  C   UNL     1       6.106   4.680  -2.424  1.00  0.00    -0.005 A 
HETATM   24  C   UNL     1       4.969   4.792  -1.612  1.00  0.00     0.016 A 
HETATM   25  C   UNL     1       4.483   3.691  -0.896  1.00  0.00     0.037 A 
HETATM   26  C   UNL     1       5.131   2.460  -0.981  1.00  0.00     0.068 A 
HETATM   27  C   UNL     1       6.284   2.350  -1.762  1.00  0.00     0.037 A 
HETATM   28  C   UNL     1       6.767   3.447  -2.482  1.00  0.00     0.016 A 
BRANCH  26  29
HETATM   29  O   UNL     1       4.752   1.308  -0.351  1.00  0.00    -0.351 OA
BRANCH  29  30
HETATM   30  C   UNL     1       3.450   1.296   0.235  1.00  0.00     0.175 C 
BRANCH  30  31
HETATM   31  C   UNL     1       3.155  -0.130   0.690  1.00  0.00     0.022 C 
HETATM   32  C   UNL     1       1.773  -0.253   1.305  1.00  0.00     0.007 C 
ENDBRANCH  30  31
ENDBRANCH  29  30
ENDBRANCH  26  29
ENDBRANCH   1  23
TORSDOF 9
