REMARK  11 active torsions:
REMARK  status: ('A' for Active; 'I' for Inactive)
REMARK    1  A    between atoms: C_2  and  N_3 
REMARK    2  A    between atoms: N_3  and  C_5 
REMARK    3  A    between atoms: N_3  and  C_32 
REMARK    4  A    between atoms: C_5  and  C_6 
REMARK    5  A    between atoms: N_9  and  C_10 
REMARK    6  A    between atoms: C_14  and  N_15 
REMARK    7  A    between atoms: C_16  and  C_17 
REMARK       I    between atoms: C_17  and  N_18 
REMARK    8  A    between atoms: N_18  and  N_19 
REMARK    9  A    between atoms: C_20  and  C_21 
REMARK   10  A    between atoms: C_25  and  O_26 
REMARK   11  A    between atoms: C_27  and  O_28 
ROOT
HETATM    1  C   UNL     1       1.077   2.101  -2.091  1.00  0.00     0.112 A 
HETATM    2  N   UNL     1       0.326   1.298  -2.891  1.00  0.00    -0.160 NA
HETATM    3  N   UNL     1      -0.825   1.904  -3.121  1.00  0.00     0.012 NA
HETATM    4  N   UNL     1      -0.845   3.108  -2.473  1.00  0.00    -0.207 N 
HETATM    5  C   UNL     1       0.379   3.269  -1.841  1.00  0.00     0.153 A 
ENDROOT
BRANCH   5   6
HETATM    6  C   UNL     1       0.812   4.336  -0.991  1.00  0.00     0.292 C 
HETATM    7  N   UNL     1       1.085   5.527  -1.651  1.00  0.00    -0.242 N 
HETATM    8  H   UNL     1       1.114   5.535  -2.666  1.00  0.00     0.192 HD
HETATM    9  O   UNL     1       1.088   4.105   0.183  1.00  0.00    -0.264 OA
BRANCH   7  10
HETATM   10  N   UNL     1       1.839   6.526  -1.083  1.00  0.00    -0.184 NA
HETATM   11  C   UNL     1       1.450   6.930   0.088  1.00  0.00     0.150 C 
BRANCH  11  12
HETATM   12  C   UNL     1       2.181   7.962   0.851  1.00  0.00    -0.013 A 
HETATM   13  C   UNL     1       1.585   8.468   2.009  1.00  0.00     0.035 A 
HETATM   14  C   UNL     1       2.247   9.449   2.743  1.00  0.00     0.047 A 
HETATM   15 BR   UNL     1       1.417  10.138   4.302  1.00  0.00    -0.048 Br
HETATM   16  C   UNL     1       3.500   9.912   2.332  1.00  0.00     0.116 A 
HETATM   17  C   UNL     1       4.108   9.398   1.176  1.00  0.00     0.103 A 
HETATM   18  C   UNL     1       3.438   8.421   0.433  1.00  0.00     0.052 A 
BRANCH  16  19
HETATM   19  O   UNL     1       4.162  10.879   3.046  1.00  0.00    -0.357 OA
HETATM   20  H   UNL     1       3.594  11.153   3.788  1.00  0.00     0.218 HD
ENDBRANCH  16  19
BRANCH  17  21
HETATM   21  O   UNL     1       5.339   9.913   0.867  1.00  0.00    -0.353 OA
HETATM   22  C   UNL     1       6.001   9.412  -0.285  1.00  0.00     0.210 C 
ENDBRANCH  17  21
ENDBRANCH  11  12
ENDBRANCH   7  10
ENDBRANCH   5   6
BRANCH   1  23
HETATM   23  C   UNL     1       2.444   1.734  -1.618  1.00  0.00     0.297 C 
BRANCH  23  24
HETATM   24  N   UNL     1       2.929   0.303  -1.807  1.00  0.00    -0.066 N 
HETATM   25  H   UNL     1       3.897   0.297  -1.463  1.00  0.00     0.280 HD
BRANCH  24  26
HETATM   26  C   UNL     1       3.007  -0.171  -3.248  1.00  0.00     0.231 C 
HETATM   27  C   UNL     1       3.819   0.773  -4.116  1.00  0.00     0.034 C 
ENDBRANCH  24  26
BRANCH  24  28
HETATM   28  C   UNL     1       2.173  -0.704  -0.956  1.00  0.00     0.231 C 
HETATM   29  C   UNL     1       2.464  -0.503   0.521  1.00  0.00     0.034 C 
ENDBRANCH  24  28
ENDBRANCH  23  24
ENDBRANCH   1  23
BRANCH   4  30
HETATM   30  C   UNL     1      -1.969   3.961  -2.480  1.00  0.00     0.225 A 
HETATM   31  N   UNL     1      -1.928   5.127  -1.834  1.00  0.00    -0.081 NA
HETATM   32  O   UNL     1      -3.188   5.682  -2.067  1.00  0.00    -0.103 OA
HETATM   33  N   UNL     1      -3.973   4.839  -2.844  1.00  0.00    -0.083 NA
HETATM   34  C   UNL     1      -3.217   3.772  -3.098  1.00  0.00     0.201 A 
BRANCH  34  35
HETATM   35  N   UNL     1      -3.619   2.714  -3.822  1.00  0.00    -0.379 N 
HETATM   36  H   UNL     1      -4.593   2.645  -4.107  1.00  0.00     0.158 HD
HETATM   37  H   UNL     1      -3.096   1.844  -3.883  1.00  0.00     0.158 HD
ENDBRANCH  34  35
ENDBRANCH   4  30
TORSDOF 11
