REMARK  8 active torsions:
REMARK  status: ('A' for Active; 'I' for Inactive)
REMARK    1  A    between atoms: C_3  and  C_4 
REMARK       I    between atoms: C_4  and  N_5 
REMARK    2  A    between atoms: N_5  and  C_6 
REMARK    3  A    between atoms: C_14  and  N_15 
REMARK       I    between atoms: N_15  and  C_16 
REMARK    4  A    between atoms: C_16  and  C_17 
REMARK       I    between atoms: C_17  and  N_18 
REMARK    5  A    between atoms: N_18  and  N_19 
REMARK    6  A    between atoms: C_20  and  C_21 
REMARK    7  A    between atoms: C_22  and  O_23 
REMARK    8  A    between atoms: C_25  and  O_26 
ROOT
HETATM    1  N   UNL     1       2.556  -0.351   0.617  1.00  0.00    -0.318 N 
HETATM    2  C   UNL     1       3.224  -1.554   0.663  1.00  0.00     0.315 C 
HETATM    3  O   UNL     1       2.818  -2.667   0.350  1.00  0.00    -0.262 OA
HETATM    4  H   UNL     1       3.116   0.476   0.860  1.00  0.00     0.169 HD
ENDROOT
BRANCH   1   5
HETATM    5  C   UNL     1       1.197  -0.121   0.299  1.00  0.00     0.051 A 
HETATM    6  C   UNL     1       0.737   1.199   0.097  1.00  0.00     0.059 A 
HETATM    7  C   UNL     1      -0.626   1.448  -0.148  1.00  0.00     0.019 A 
HETATM    8  C   UNL     1      -1.528   0.390  -0.235  1.00  0.00     0.001 A 
HETATM    9  C   UNL     1      -1.075  -0.916  -0.075  1.00  0.00     0.002 A 
HETATM   10  C   UNL     1       0.274  -1.169   0.194  1.00  0.00     0.030 A 
BRANCH   6  11
HETATM   11  C   UNL     1       1.694   2.345   0.113  1.00  0.00     0.258 C 
HETATM   12  N   UNL     1       1.474   3.299  -0.866  1.00  0.00    -0.323 N 
HETATM   13  H   UNL     1       0.745   3.105  -1.541  1.00  0.00     0.169 HD
HETATM   14  O   UNL     1       2.610   2.323   0.925  1.00  0.00    -0.267 OA
BRANCH  12  15
HETATM   15  C   UNL     1       2.221   4.472  -1.101  1.00  0.00     0.035 A 
HETATM   16  C   UNL     1       3.288   4.894  -0.304  1.00  0.00     0.031 A 
HETATM   17  C   UNL     1       3.981   6.071  -0.611  1.00  0.00     0.026 A 
HETATM   18  C   UNL     1       3.606   6.833  -1.713  1.00  0.00     0.034 A 
HETATM   19 CL   UNL     1       4.458   8.278  -2.089  1.00  0.00    -0.084 Cl
HETATM   20  C   UNL     1       2.542   6.428  -2.514  1.00  0.00     0.026 A 
HETATM   21  C   UNL     1       1.852   5.252  -2.207  1.00  0.00     0.031 A 
ENDBRANCH  12  15
ENDBRANCH   6  11
ENDBRANCH   1   5
BRANCH   2  22
HETATM   22  C   UNL     1       4.689  -1.419   1.114  1.00  0.00     0.329 C 
HETATM   23  N   UNL     1       5.407  -2.576   0.868  1.00  0.00    -0.239 N 
HETATM   24  H   UNL     1       4.911  -3.361   0.448  1.00  0.00     0.192 HD
HETATM   25  O   UNL     1       5.093  -0.374   1.602  1.00  0.00    -0.261 OA
BRANCH  23  26
HETATM   26  N   UNL     1       6.717  -2.675   1.219  1.00  0.00    -0.183 NA
HETATM   27  C   UNL     1       7.311  -3.756   0.822  1.00  0.00     0.153 C 
BRANCH  27  28
HETATM   28  C   UNL     1       8.724  -4.017   1.156  1.00  0.00     0.016 A 
HETATM   29  C   UNL     1       9.439  -3.216   2.056  1.00  0.00     0.080 A 
HETATM   30  C   UNL     1      10.765  -3.513   2.364  1.00  0.00     0.074 A 
HETATM   31  C   UNL     1      11.375  -4.608   1.759  1.00  0.00     0.068 A 
HETATM   32  C   UNL     1      10.680  -5.408   0.857  1.00  0.00     0.037 A 
HETATM   33  C   UNL     1       9.348  -5.117   0.555  1.00  0.00     0.018 A 
BRANCH  29  34
HETATM   34  O   UNL     1       8.900  -2.125   2.682  1.00  0.00    -0.360 OA
HETATM   35  H   UNL     1       7.992  -1.983   2.329  1.00  0.00     0.217 HD
ENDBRANCH  29  34
BRANCH  31  36
HETATM   36  O   UNL     1      12.670  -4.937   2.028  1.00  0.00    -0.361 OA
HETATM   37  H   UNL     1      13.024  -4.300   2.672  1.00  0.00     0.217 HD
ENDBRANCH  31  36
ENDBRANCH  27  28
ENDBRANCH  23  26
ENDBRANCH   2  22
TORSDOF 8
