REMARK  4 active torsions:
REMARK  status: ('A' for Active; 'I' for Inactive)
REMARK    1  A    between atoms: C_4  and  C_5 
REMARK    2  A    between atoms: C_14  and  C_15 
REMARK    3  A    between atoms: C_15  and  C_16 
REMARK    4  A    between atoms: C_17  and  O_18 
ROOT
HETATM    1  C   UNL     1       1.360  -0.227   0.913  1.00  0.00     0.071 C 
HETATM    2  C   UNL     1       2.799  -0.088   0.487  1.00  0.00     0.045 A 
HETATM    3  N   UNL     1       3.503  -1.267   0.601  1.00  0.00    -0.234 NA
HETATM    4  C   UNL     1       4.746  -1.289   0.240  1.00  0.00     0.141 A 
HETATM    5  N   UNL     1       5.395  -0.167  -0.199  1.00  0.00    -0.307 N 
HETATM    6  C   UNL     1       4.762   1.024  -0.345  1.00  0.00     0.255 A 
HETATM    7  O   UNL     1       5.339   2.016  -0.787  1.00  0.00    -0.268 OA
HETATM    8  C   UNL     1       3.326   1.059   0.013  1.00  0.00     0.039 A 
HETATM    9  H   UNL     1       6.375  -0.168  -0.433  1.00  0.00     0.170 HD
ENDROOT
BRANCH   8  10
HETATM   10  C   UNL     1       2.633   2.383  -0.184  1.00  0.00     0.088 C 
BRANCH  10  11
HETATM   11  C   UNL     1       1.836   2.465  -1.472  1.00  0.00    -0.020 A 
HETATM   12  C   UNL     1       2.428   2.452  -2.756  1.00  0.00     0.074 A 
HETATM   13  C   UNL     1       1.652   2.461  -3.917  1.00  0.00     0.074 A 
HETATM   14  C   UNL     1       0.283   2.509  -3.782  1.00  0.00     0.077 A 
HETATM   15  C   UNL     1      -0.323   2.567  -2.541  1.00  0.00    -0.022 A 
HETATM   16  O   UNL     1      -0.602   2.537  -4.829  1.00  0.00    -0.350 OA
HETATM   17  C   UNL     1      -1.784   2.716  -2.722  1.00  0.00     0.068 C 
HETATM   18  C   UNL     1       0.431   2.550  -1.380  1.00  0.00     0.020 A 
HETATM   19  C   UNL     1      -1.882   2.312  -4.193  1.00  0.00     0.180 C 
BRANCH  12  20
HETATM   20  O   UNL     1       3.778   2.438  -2.972  1.00  0.00    -0.360 OA
HETATM   21  H   UNL     1       4.278   2.602  -2.149  1.00  0.00     0.217 HD
ENDBRANCH  12  20
ENDBRANCH  10  11
ENDBRANCH   8  10
BRANCH   4  22
HETATM   22  C   UNL     1       5.537  -2.550   0.296  1.00  0.00     0.010 A 
HETATM   23  C   UNL     1       6.642  -2.768  -0.538  1.00  0.00     0.015 A 
HETATM   24  C   UNL     1       7.347  -3.972  -0.468  1.00  0.00     0.001 A 
HETATM   25  C   UNL     1       6.948  -4.966   0.424  1.00  0.00     0.000 A 
HETATM   26  C   UNL     1       5.840  -4.763   1.244  1.00  0.00     0.001 A 
HETATM   27  C   UNL     1       5.134  -3.560   1.179  1.00  0.00     0.015 A 
ENDBRANCH   4  22
TORSDOF 4
