REMARK  3 active torsions:
REMARK  status: ('A' for Active; 'I' for Inactive)
REMARK    1  A    between atoms: C_12  and  C_13 
REMARK       I    between atoms: C_13  and  N_14 
REMARK    2  A    between atoms: N_14  and  C_15 
REMARK    3  A    between atoms: C_15  and  C_16 
ROOT
HETATM    1  C   UNL     1       2.555  -1.611   0.040  1.00  0.00     0.001 A 
HETATM    2  C   UNL     1       1.158  -1.639   0.051  1.00  0.00     0.016 A 
HETATM    3  C   UNL     1       0.441  -0.441   0.037  1.00  0.00     0.026 A 
HETATM    4  C   UNL     1       1.126   0.791   0.011  1.00  0.00     0.081 A 
HETATM    5  O   UNL     1       0.519   2.028  -0.007  1.00  0.00    -0.346 OA
HETATM    6  C   UNL     1      -0.935   2.124   0.007  1.00  0.00     0.219 A 
HETATM    7  C   UNL     1      -1.658   0.835   0.027  1.00  0.00     0.031 A 
HETATM    8  C   UNL     1      -0.997  -0.363   0.044  1.00  0.00     0.074 A 
HETATM    9  N   UNL     1      -1.952  -1.328   0.064  1.00  0.00    -0.276 N 
HETATM   10  H   UNL     1      -1.830  -2.334   0.082  1.00  0.00     0.189 HD
HETATM   11  N   UNL     1      -3.209  -0.832   0.054  1.00  0.00    -0.168 NA
HETATM   12  C   UNL     1      -3.034   0.511   0.033  1.00  0.00     0.155 A 
HETATM   13  C   UNL     1       2.521   0.807   0.000  1.00  0.00     0.038 A 
HETATM   14  C   UNL     1       3.234  -0.392   0.014  1.00  0.00     0.003 A 
ENDROOT
BRANCH  12  15
HETATM   15  C   UNL     1      -4.166   1.450   0.014  1.00  0.00     0.272 C 
HETATM   16  N   UNL     1      -5.390   0.827   0.033  1.00  0.00    -0.351 N 
HETATM   17  H   UNL     1      -5.371  -0.188   0.074  1.00  0.00     0.163 HD
HETATM   18  O   UNL     1      -4.015   2.667  -0.015  1.00  0.00    -0.266 OA
BRANCH  16  19
HETATM   19  C   UNL     1      -6.641   1.537   0.013  1.00  0.00     0.161 C 
BRANCH  19  20
HETATM   20  C   UNL     1      -7.458   1.244   1.245  1.00  0.00    -0.039 A 
HETATM   21  C   UNL     1      -6.967   1.576   2.518  1.00  0.00     0.032 A 
HETATM   22  C   UNL     1      -7.732   1.320   3.655  1.00  0.00     0.034 A 
HETATM   23 CL   UNL     1      -7.115   1.725   5.210  1.00  0.00    -0.084 Cl
HETATM   24  C   UNL     1      -8.994   0.740   3.543  1.00  0.00     0.024 A 
HETATM   25  C   UNL     1      -9.494   0.412   2.283  1.00  0.00     0.002 A 
HETATM   26  C   UNL     1      -8.731   0.663   1.140  1.00  0.00     0.009 A 
ENDBRANCH  19  20
ENDBRANCH  16  19
ENDBRANCH  12  15
TORSDOF 3
