REMARK  5 active torsions:
REMARK  status: ('A' for Active; 'I' for Inactive)
REMARK    1  A    between atoms: N_4  and  C_5 
REMARK    2  A    between atoms: C_14  and  C_15 
REMARK       I    between atoms: C_15  and  N_16 
REMARK    3  A    between atoms: N_16  and  N_17 
REMARK    4  A    between atoms: N_17  and  C_18 
REMARK    5  A    between atoms: N_19  and  C_20 
ROOT
HETATM    1  C   UNL     1       5.322   4.524  -0.387  1.00  0.00     0.277 C 
HETATM    2  N   UNL     1       6.637   4.859  -0.122  1.00  0.00    -0.263 N 
HETATM    3  O   UNL     1       4.492   5.380  -0.695  1.00  0.00    -0.265 OA
HETATM    4  H   UNL     1       7.320   4.165   0.175  1.00  0.00     0.190 HD
ENDROOT
BRANCH   1   5
HETATM    5  C   UNL     1       5.004   3.106  -0.278  1.00  0.00     0.077 A 
HETATM    6  S   UNL     1       6.262   1.903  -0.112  1.00  0.00    -0.064 SA
HETATM    7  C   UNL     1       5.133   0.679  -0.111  1.00  0.00     0.113 A 
HETATM    8  N   UNL     1       5.060  -0.691  -0.051  1.00  0.00    -0.226 N 
HETATM    9  C   UNL     1       3.883   1.139  -0.214  1.00  0.00     0.027 A 
HETATM   10  N   UNL     1       3.729  -1.079  -0.093  1.00  0.00    -0.171 NA
HETATM   11  C   UNL     1       3.018   0.061  -0.196  1.00  0.00     0.064 A 
HETATM   12  C   UNL     1       1.540   0.031  -0.269  1.00  0.00     0.073 C 
HETATM   13  C   UNL     1       3.738   2.519  -0.317  1.00  0.00     0.041 A 
BRANCH   8  14
HETATM   14  C   UNL     1       6.087  -1.678   0.025  1.00  0.00     0.059 A 
HETATM   15  C   UNL     1       5.725  -3.036   0.033  1.00  0.00     0.031 A 
HETATM   16  C   UNL     1       6.702  -4.034   0.092  1.00  0.00     0.002 A 
HETATM   17  C   UNL     1       8.049  -3.688   0.146  1.00  0.00     0.000 A 
HETATM   18  C   UNL     1       8.419  -2.346   0.144  1.00  0.00     0.002 A 
HETATM   19  C   UNL     1       7.445  -1.343   0.084  1.00  0.00     0.031 A 
ENDBRANCH   8  14
ENDBRANCH   1   5
BRANCH   2  20
HETATM   20  N   UNL     1       7.058   6.194  -0.197  1.00  0.00    -0.273 N 
HETATM   21  H   UNL     1       6.544   6.755  -0.875  1.00  0.00     0.189 HD
BRANCH  20  22
HETATM   22  C   UNL     1       8.351   6.529   0.102  1.00  0.00     0.191 C 
HETATM   23  N   UNL     1       8.764   7.804  -0.134  1.00  0.00    -0.331 N 
HETATM   24  H   UNL     1       9.777   7.900  -0.103  1.00  0.00     0.168 HD
HETATM   25  S   UNL     1       9.488   5.445   0.699  1.00  0.00    -0.039 SA
BRANCH  23  26
HETATM   26  C   UNL     1       8.077   9.009  -0.409  1.00  0.00     0.056 A 
HETATM   27  C   UNL     1       8.826  10.101  -0.893  1.00  0.00     0.060 A 
HETATM   28 CL   UNL     1      10.532   9.965  -1.161  1.00  0.00    -0.082 Cl
HETATM   29  C   UNL     1       8.215  11.323  -1.184  1.00  0.00     0.026 A 
HETATM   30  C   UNL     1       6.847  11.479  -0.979  1.00  0.00     0.002 A 
HETATM   31  C   UNL     1       6.101  10.421  -0.466  1.00  0.00     0.002 A 
HETATM   32  C   UNL     1       6.712   9.196  -0.172  1.00  0.00     0.031 A 
ENDBRANCH  23  26
ENDBRANCH  20  22
ENDBRANCH   2  20
TORSDOF 5
