REMARK  7 active torsions:
REMARK  status: ('A' for Active; 'I' for Inactive)
REMARK    1  A    between atoms: C_4  and  O_5 
REMARK    2  A    between atoms: O_5  and  C_6 
REMARK    3  A    between atoms: C_9  and  N_10 
REMARK       I    between atoms: N_10  and  C_11 
REMARK    4  A    between atoms: C_11  and  C_12 
REMARK    5  A    between atoms: C_12  and  C_13 
REMARK    6  A    between atoms: C_13  and  N_14 
REMARK       I    between atoms: N_14  and  C_15 
REMARK    7  A    between atoms: C_15  and  C_16 
ROOT
HETATM    1  N   UNL     1       5.895  -4.541  -1.125  1.00  0.00    -0.327 N 
HETATM    2  C   UNL     1       5.184  -5.674  -0.780  1.00  0.00     0.223 C 
HETATM    3  O   UNL     1       3.973  -5.845  -0.881  1.00  0.00    -0.273 OA
HETATM    4  H   UNL     1       6.911  -4.622  -1.077  1.00  0.00     0.169 HD
ENDROOT
BRANCH   1   5
HETATM    5  C   UNL     1       5.387  -3.318  -1.604  1.00  0.00     0.034 A 
HETATM    6  C   UNL     1       4.027  -3.018  -1.682  1.00  0.00     0.032 A 
HETATM    7  C   UNL     1       3.603  -1.774  -2.163  1.00  0.00     0.039 A 
HETATM    8  C   UNL     1       4.533  -0.815  -2.567  1.00  0.00     0.076 A 
HETATM    9  C   UNL     1       5.894  -1.114  -2.506  1.00  0.00     0.039 A 
HETATM   10  C   UNL     1       6.317  -2.355  -2.014  1.00  0.00     0.032 A 
BRANCH   8  11
HETATM   11  O   UNL     1       4.000   0.354  -3.065  1.00  0.00    -0.311 OA
BRANCH  11  12
HETATM   12  C   UNL     1       4.787   1.478  -3.074  1.00  0.00     0.076 A 
HETATM   13  C   UNL     1       5.038   2.083  -4.306  1.00  0.00     0.037 A 
HETATM   14  C   UNL     1       5.794   3.254  -4.361  1.00  0.00     0.003 A 
HETATM   15  C   UNL     1       6.281   3.824  -3.184  1.00  0.00     0.000 A 
HETATM   16  C   UNL     1       6.006   3.231  -1.950  1.00  0.00     0.003 A 
HETATM   17  C   UNL     1       5.248   2.060  -1.892  1.00  0.00     0.037 A 
ENDBRANCH  11  12
ENDBRANCH   8  11
ENDBRANCH   1   5
BRANCH   2  18
HETATM   18  C   UNL     1       6.070  -6.780  -0.252  1.00  0.00     0.123 C 
BRANCH  18  19
HETATM   19  C   UNL     1       6.480  -7.760  -1.343  1.00  0.00     0.132 C 
BRANCH  19  20
HETATM   20  N   UNL     1       7.280  -7.271  -2.454  1.00  0.00    -0.355 N 
HETATM   21  C   UNL     1       8.337  -6.391  -2.364  1.00  0.00     0.275 C 
HETATM   22  O   UNL     1       8.525  -5.679  -1.381  1.00  0.00    -0.265 OA
HETATM   23  H   UNL     1       7.266  -7.825  -3.305  1.00  0.00     0.162 HD
BRANCH  21  24
HETATM   24  C   UNL     1       9.185  -6.366  -3.538  1.00  0.00     0.142 A 
HETATM   25  O   UNL     1       8.904  -7.200  -4.591  1.00  0.00    -0.317 OA
HETATM   26  C   UNL     1       9.854  -6.983  -5.538  1.00  0.00     0.143 A 
HETATM   27  C   UNL     1      10.746  -6.026  -5.116  1.00  0.00     0.027 A 
HETATM   28  C   UNL     1      10.317  -5.628  -3.827  1.00  0.00     0.045 A 
ENDBRANCH  21  24
ENDBRANCH  19  20
ENDBRANCH  18  19
ENDBRANCH   2  18
TORSDOF 7
