REMARK  5 active torsions:
REMARK  status: ('A' for Active; 'I' for Inactive)
REMARK    1  A    between atoms: O_2  and  C_3 
REMARK    2  A    between atoms: C_6  and  N_7 
REMARK    3  A    between atoms: C_11  and  C_12 
REMARK    4  A    between atoms: C_12  and  N_13 
REMARK       I    between atoms: N_13  and  C_14 
REMARK    5  A    between atoms: C_14  and  C_15 
ROOT
HETATM    1  N   UNL     1       3.708   6.431  -7.974  1.00  0.00    -0.360 N 
HETATM    2  C   UNL     1       4.190   7.697  -7.694  1.00  0.00     0.230 C 
HETATM    3  O   UNL     1       4.978   7.914  -6.774  1.00  0.00    -0.272 OA
HETATM    4  H   UNL     1       3.123   6.314  -8.795  1.00  0.00     0.162 HD
ENDROOT
BRANCH   1   5
HETATM    5  C   UNL     1       4.198   5.254  -7.292  1.00  0.00     0.129 C 
BRANCH   5   6
HETATM    6  C   UNL     1       3.603   5.084  -5.900  1.00  0.00     0.031 C 
HETATM    7  C   UNL     1       4.105   3.823  -5.212  1.00  0.00     0.111 C 
HETATM    8  C   UNL     1       2.968   3.432  -4.300  1.00  0.00     0.224 C 
HETATM    9  N   UNL     1       1.812   4.092  -4.742  1.00  0.00    -0.318 N 
HETATM   10  O   UNL     1       3.105   2.627  -3.392  1.00  0.00    -0.273 OA
HETATM   11  C   UNL     1       2.094   4.903  -5.906  1.00  0.00     0.139 C 
BRANCH   9  12
HETATM   12  C   UNL     1       0.497   3.934  -4.222  1.00  0.00     0.037 A 
HETATM   13  C   UNL     1       0.239   3.172  -3.076  1.00  0.00     0.032 A 
HETATM   14  C   UNL     1      -1.059   3.036  -2.559  1.00  0.00     0.039 A 
HETATM   15  C   UNL     1      -2.132   3.668  -3.178  1.00  0.00     0.068 A 
HETATM   16  C   UNL     1      -1.896   4.415  -4.330  1.00  0.00     0.039 A 
HETATM   17  C   UNL     1      -0.599   4.549  -4.844  1.00  0.00     0.032 A 
BRANCH  15  18
HETATM   18  O   UNL     1      -3.435   3.627  -2.772  1.00  0.00    -0.356 OA
HETATM   19  C   UNL     1      -3.683   3.060  -1.491  1.00  0.00     0.210 C 
ENDBRANCH  15  18
ENDBRANCH   9  12
ENDBRANCH   5   6
ENDBRANCH   1   5
BRANCH   2  20
HETATM   20  C   UNL     1       3.657   8.825  -8.593  1.00  0.00     0.149 C 
HETATM   21  C   UNL     1       2.208   9.121  -8.287  1.00  0.00    -0.007 A 
HETATM   22  C   UNL     1       1.224   8.883  -9.249  1.00  0.00     0.083 A 
HETATM   23  C   UNL     1       1.828   9.629  -7.033  1.00  0.00     0.011 A 
HETATM   24  C   UNL     1      -0.119   9.139  -8.965  1.00  0.00     0.038 A 
HETATM   25  O   UNL     1       1.493   8.394 -10.504  1.00  0.00    -0.310 OA
HETATM   26  C   UNL     1      -0.488   9.643  -7.718  1.00  0.00     0.003 A 
HETATM   27  C   UNL     1       0.486   9.888  -6.753  1.00  0.00     0.001 A 
HETATM   28  C   UNL     1       2.802   8.306 -10.908  1.00  0.00     0.083 A 
HETATM   29  C   UNL     1       3.888   8.517 -10.057  1.00  0.00    -0.007 A 
HETATM   30  C   UNL     1       3.010   7.968 -12.247  1.00  0.00     0.038 A 
HETATM   31  C   UNL     1       5.191   8.402 -10.568  1.00  0.00     0.011 A 
HETATM   32  C   UNL     1       5.397   8.067 -11.907  1.00  0.00     0.001 A 
HETATM   33  C   UNL     1       4.306   7.848 -12.746  1.00  0.00     0.003 A 
ENDBRANCH   2  20
TORSDOF 5
