REMARK  4 active torsions:
REMARK  status: ('A' for Active; 'I' for Inactive)
REMARK    1  A    between atoms: O_2  and  C_3 
REMARK    2  A    between atoms: C_5  and  C_6 
REMARK    3  A    between atoms: C_10  and  C_11 
REMARK       I    between atoms: C_11  and  N_12 
REMARK    4  A    between atoms: N_12  and  N_13 
ROOT
HETATM    1  C   UNL     1       2.606   8.674  -0.195  1.00  0.00     0.289 C 
HETATM    2  N   UNL     1       3.728   9.237  -0.779  1.00  0.00    -0.241 N 
HETATM    3  O   UNL     1       1.701   9.322   0.326  1.00  0.00    -0.264 OA
HETATM    4  H   UNL     1       4.457   8.647  -1.179  1.00  0.00     0.192 HD
ENDROOT
BRANCH   1   5
HETATM    5  C   UNL     1       2.563   7.234  -0.232  1.00  0.00     0.121 A 
HETATM    6  N   UNL     1       1.532   6.545   0.341  1.00  0.00    -0.272 N 
HETATM    7  N   UNL     1       1.632   5.213   0.235  1.00  0.00    -0.174 NA
HETATM    8  H   UNL     1       0.732   6.944   0.823  1.00  0.00     0.189 HD
HETATM    9  C   UNL     1       2.767   5.009  -0.453  1.00  0.00     0.089 A 
HETATM   10  C   UNL     1       3.386   6.257  -0.758  1.00  0.00     0.071 A 
BRANCH   9  11
HETATM   11  C   UNL     1       3.226   3.655  -0.790  1.00  0.00    -0.003 A 
HETATM   12  C   UNL     1       2.650   2.537  -0.159  1.00  0.00     0.050 A 
HETATM   13  C   UNL     1       3.071   1.241  -0.467  1.00  0.00     0.069 A 
HETATM   14  C   UNL     1       4.079   1.058  -1.415  1.00  0.00     0.037 A 
HETATM   15  C   UNL     1       4.658   2.153  -2.053  1.00  0.00     0.004 A 
HETATM   16  C   UNL     1       4.233   3.447  -1.743  1.00  0.00     0.014 A 
BRANCH  13  17
HETATM   17  O   UNL     1       2.585   0.085   0.082  1.00  0.00    -0.356 OA
HETATM   18  C   UNL     1       1.512   0.218   1.006  1.00  0.00     0.210 C 
ENDBRANCH  13  17
ENDBRANCH   9  11
ENDBRANCH   1   5
BRANCH   2  19
HETATM   19  N   UNL     1       3.885  10.596  -0.815  1.00  0.00    -0.165 NA
HETATM   20  C   UNL     1       4.973  11.039  -1.358  1.00  0.00     0.157 A 
HETATM   21  C   UNL     1       6.126  10.238  -1.970  1.00  0.00     0.277 A 
HETATM   22  C   UNL     1       5.341  12.442  -1.502  1.00  0.00     0.027 A 
HETATM   23  O   UNL     1       6.166   9.027  -2.035  1.00  0.00    -0.266 OA
HETATM   24  N   UNL     1       7.041  11.175  -2.398  1.00  0.00    -0.321 N 
HETATM   25  C   UNL     1       6.586  12.464  -2.129  1.00  0.00     0.048 A 
HETATM   26  H   UNL     1       7.914  10.938  -2.847  1.00  0.00     0.169 HD
HETATM   27  C   UNL     1       7.221  13.654  -2.413  1.00  0.00     0.030 A 
HETATM   28  C   UNL     1       6.564  14.836  -2.048  1.00  0.00     0.002 A 
HETATM   29  C   UNL     1       5.303  14.805  -1.415  1.00  0.00     0.001 A 
HETATM   30  C   UNL     1       4.673  13.591  -1.133  1.00  0.00     0.016 A 
ENDBRANCH   2  19
TORSDOF 4
