REMARK  8 active torsions:
REMARK  status: ('A' for Active; 'I' for Inactive)
REMARK    1  A    between atoms: O_2  and  C_3 
REMARK    2  A    between atoms: C_4  and  O_5 
REMARK    3  A    between atoms: C_8  and  C_9 
REMARK    4  A    between atoms: C_9  and  C_10 
REMARK    5  A    between atoms: C_10  and  C_11 
REMARK    6  A    between atoms: C_13  and  N_14 
REMARK       I    between atoms: N_14  and  C_15 
REMARK    7  A    between atoms: C_15  and  C_16 
REMARK    8  A    between atoms: C_20  and  C_21 
ROOT
HETATM    1  C   UNL     1       4.626   4.406  -6.278  1.00  0.00     0.140 A 
HETATM    2  N   UNL     1       4.393   5.623  -6.724  1.00  0.00    -0.046 NA
HETATM    3  C   UNL     1       5.050   5.662  -7.927  1.00  0.00     0.747 A 
HETATM    4  N   UNL     1       5.655   4.521  -8.253  1.00  0.00     0.020 NA
HETATM    5  N   UNL     1       5.378   3.742  -7.204  1.00  0.00    -0.248 N 
HETATM    6  H   UNL     1       5.741   2.796  -7.179  1.00  0.00     0.191 HD
ENDROOT
BRANCH   3   7
HETATM    7  N   UNL     1       5.043   6.826  -8.626  1.00  0.00    -0.149 N 
HETATM    8  C   UNL     1       5.743   7.071  -9.779  1.00  0.00     0.290 C 
HETATM    9  O   UNL     1       6.438   6.286 -10.414  1.00  0.00    -0.265 OA
HETATM   10  H   UNL     1       4.535   7.597  -8.214  1.00  0.00     0.188 HD
BRANCH   8  11
HETATM   11  C   UNL     1       5.607   8.477 -10.205  1.00  0.00     0.147 A 
HETATM   12  N   UNL     1       4.787   9.346  -9.580  1.00  0.00    -0.169 NA
HETATM   13  N   UNL     1       4.967  10.497 -10.255  1.00  0.00    -0.277 N 
HETATM   14  H   UNL     1       4.417  11.302  -9.976  1.00  0.00     0.189 HD
HETATM   15  C   UNL     1       5.901  10.434 -11.257  1.00  0.00     0.063 A 
HETATM   16  C   UNL     1       6.304   9.113 -11.263  1.00  0.00     0.071 A 
BRANCH  15  17
HETATM   17  C   UNL     1       6.305  11.574 -12.084  1.00  0.00    -0.008 A 
HETATM   18  C   UNL     1       6.146  12.895 -11.640  1.00  0.00     0.014 A 
HETATM   19  C   UNL     1       6.558  13.971 -12.433  1.00  0.00     0.001 A 
HETATM   20  C   UNL     1       7.136  13.742 -13.679  1.00  0.00     0.000 A 
HETATM   21  C   UNL     1       7.304  12.437 -14.133  1.00  0.00     0.001 A 
HETATM   22  C   UNL     1       6.891  11.362 -13.341  1.00  0.00     0.014 A 
ENDBRANCH  15  17
ENDBRANCH   8  11
ENDBRANCH   3   7
BRANCH   1  23
HETATM   23  C   UNL     1       4.238   3.792  -4.982  1.00  0.00     0.085 C 
BRANCH  23  24
HETATM   24  C   UNL     1       2.973   4.412  -4.386  1.00  0.00     0.046 C 
BRANCH  24  25
HETATM   25  C   UNL     1       2.632   3.751  -3.070  1.00  0.00    -0.055 A 
HETATM   26  C   UNL     1       1.814   2.612  -3.036  1.00  0.00     0.046 A 
HETATM   27  C   UNL     1       1.553   1.953  -1.828  1.00  0.00     0.102 A 
HETATM   28  C   UNL     1       2.132   2.432  -0.637  1.00  0.00     0.101 A 
HETATM   29  C   UNL     1       2.928   3.582  -0.668  1.00  0.00     0.040 A 
HETATM   30  C   UNL     1       3.179   4.234  -1.877  1.00  0.00     0.010 A 
BRANCH  27  31
HETATM   31  O   UNL     1       0.778   0.825  -1.710  1.00  0.00    -0.353 OA
HETATM   32  C   UNL     1       0.085   0.378  -2.865  1.00  0.00     0.210 C 
ENDBRANCH  27  31
BRANCH  28  33
HETATM   33  O   UNL     1       1.844   1.733   0.509  1.00  0.00    -0.353 OA
HETATM   34  C   UNL     1       2.745   1.894   1.596  1.00  0.00     0.210 C 
ENDBRANCH  28  33
ENDBRANCH  24  25
ENDBRANCH  23  24
ENDBRANCH   1  23
TORSDOF 8
