REMARK  5 active torsions:
REMARK  status: ('A' for Active; 'I' for Inactive)
REMARK    1  A    between atoms: C_4  and  C_5 
REMARK    2  A    between atoms: C_11  and  C_12 
REMARK    3  A    between atoms: C_12  and  N_13 
REMARK    4  A    between atoms: C_16  and  C_17 
REMARK    5  A    between atoms: C_17  and  O_18 
ROOT
HETATM    1  N   UNL     1       5.424  -3.001  -0.307  1.00  0.00    -0.066 N 
HETATM    2  H   UNL     1       4.452  -3.322  -0.439  1.00  0.00     0.280 HD
HETATM    3  C   UNL     1       6.151  -4.002   0.539  1.00  0.00     0.250 C 
HETATM    4  C   UNL     1       6.422  -5.194  -0.391  1.00  0.00     0.036 C 
HETATM    5  C   UNL     1       6.368  -4.595  -1.830  1.00  0.00     0.061 C 
HETATM    6  C   UNL     1       6.116  -3.091  -1.642  1.00  0.00     0.245 C 
HETATM    7  C   UNL     1       5.342  -6.267  -0.181  1.00  0.00     0.189 C 
HETATM    8  O   UNL     1       4.078  -5.814  -0.680  1.00  0.00    -0.350 OA
HETATM    9  C   UNL     1       4.148  -5.764  -2.049  1.00  0.00     0.075 A 
HETATM   10  C   UNL     1       5.274  -5.213  -2.670  1.00  0.00    -0.018 A 
HETATM   11  C   UNL     1       3.090  -6.278  -2.788  1.00  0.00     0.037 A 
HETATM   12  C   UNL     1       3.175  -6.292  -4.179  1.00  0.00     0.003 A 
HETATM   13  C   UNL     1       4.304  -5.775  -4.817  1.00  0.00     0.001 A 
HETATM   14  C   UNL     1       5.347  -5.226  -4.068  1.00  0.00     0.010 A 
ENDROOT
BRANCH   1  15
HETATM   15  C   UNL     1       5.387  -1.629   0.299  1.00  0.00     0.277 C 
BRANCH  15  16
HETATM   16  C   UNL     1       4.502  -0.685  -0.423  1.00  0.00     0.016 A 
HETATM   17  C   UNL     1       4.865   0.537  -1.072  1.00  0.00     0.096 A 
HETATM   18  N   UNL     1       3.800   1.092  -1.664  1.00  0.00    -0.172 NA
HETATM   19  N   UNL     1       2.764   0.319  -1.317  1.00  0.00    -0.284 N 
HETATM   20  C   UNL     1       1.426   0.695  -1.711  1.00  0.00     0.179 C 
HETATM   21  C   UNL     1       3.134  -0.783  -0.603  1.00  0.00     0.123 A 
BRANCH  17  22
HETATM   22  C   UNL     1       6.179   1.168  -1.172  1.00  0.00    -0.005 A 
HETATM   23  C   UNL     1       6.955   1.404  -0.029  1.00  0.00     0.014 A 
HETATM   24  C   UNL     1       8.215   1.996  -0.141  1.00  0.00     0.001 A 
HETATM   25  C   UNL     1       8.699   2.374  -1.392  1.00  0.00     0.000 A 
HETATM   26  C   UNL     1       7.923   2.169  -2.532  1.00  0.00     0.001 A 
HETATM   27  C   UNL     1       6.667   1.570  -2.422  1.00  0.00     0.014 A 
ENDBRANCH  17  22
ENDBRANCH  15  16
ENDBRANCH   1  15
BRANCH   4  28
HETATM   28  C   UNL     1       7.793  -5.808  -0.086  1.00  0.00     0.178 C 
BRANCH  28  29
HETATM   29  O   UNL     1       8.795  -4.814  -0.249  1.00  0.00    -0.400 OA
HETATM   30  H   UNL     1       9.663  -5.256  -0.149  1.00  0.00     0.209 HD
ENDBRANCH  28  29
ENDBRANCH   4  28
TORSDOF 5
