REMARK  3 active torsions:
REMARK  status: ('A' for Active; 'I' for Inactive)
REMARK    1  A    between atoms: N_4  and  C_5 
REMARK    2  A    between atoms: C_5  and  C_6 
REMARK       I    between atoms: C_6  and  N_7 
REMARK    3  A    between atoms: N_7  and  C_8 
ROOT
HETATM    1  C   UNL     1       1.454  -5.060   0.767  1.00  0.00     0.257 C 
ENDROOT
BRANCH   1   2
HETATM    2  N   UNL     1       2.800  -4.529   0.989  1.00  0.00    -0.225 N 
HETATM    3  N   UNL     1       3.826  -5.292   0.479  1.00  0.00    -0.173 NA
HETATM    4  C   UNL     1       5.053  -5.005   0.787  1.00  0.00     0.062 A 
HETATM    5  C   UNL     1       6.140  -5.888   0.218  1.00  0.00     0.073 C 
HETATM    6  C   UNL     1       5.426  -3.885   1.671  1.00  0.00     0.006 A 
HETATM    7  C   UNL     1       4.389  -3.124   2.199  1.00  0.00     0.046 A 
HETATM    8  C   UNL     1       6.753  -3.577   1.995  1.00  0.00     0.014 A 
HETATM    9  C   UNL     1       2.994  -3.478   1.879  1.00  0.00     0.275 A 
HETATM   10  C   UNL     1       4.670  -2.043   3.045  1.00  0.00     0.018 A 
HETATM   11  O   UNL     1       2.071  -2.845   2.391  1.00  0.00    -0.266 OA
HETATM   12  C   UNL     1       5.992  -1.734   3.366  1.00  0.00     0.001 A 
HETATM   13  C   UNL     1       7.031  -2.503   2.844  1.00  0.00     0.001 A 
ENDBRANCH   1   2
BRANCH   1  14
HETATM   14  C   UNL     1       0.534  -4.227  -0.131  1.00  0.00     0.238 C 
HETATM   15  N   UNL     1       0.331  -2.925   0.266  1.00  0.00    -0.351 N 
HETATM   16  H   UNL     1       0.816  -2.586   1.097  1.00  0.00     0.163 HD
HETATM   17  O   UNL     1      -0.106  -4.736  -1.051  1.00  0.00    -0.272 OA
BRANCH  15  18
HETATM   18  C   UNL     1      -0.709  -2.112  -0.312  1.00  0.00     0.118 C 
HETATM   19  C   UNL     1      -1.006  -0.866   0.477  1.00  0.00    -0.029 A 
HETATM   20  C   UNL     1      -1.241   0.215  -0.383  1.00  0.00    -0.050 A 
HETATM   21  C   UNL     1      -1.132  -0.718   1.851  1.00  0.00     0.010 A 
HETATM   22  C   UNL     1      -1.600   1.459   0.109  1.00  0.00     0.007 A 
HETATM   23  C   UNL     1      -1.111  -0.206  -1.814  1.00  0.00     0.041 C 
HETATM   24  C   UNL     1      -1.711   1.617   1.492  1.00  0.00     0.001 A 
HETATM   25  C   UNL     1      -1.478   0.537   2.357  1.00  0.00     0.001 A 
HETATM   26  C   UNL     1      -0.315  -1.511  -1.674  1.00  0.00     0.034 C 
ENDBRANCH  15  18
ENDBRANCH   1  14
TORSDOF 3
