REMARK  4 active torsions:
REMARK  status: ('A' for Active; 'I' for Inactive)
REMARK    1  A    between atoms: C_6  and  N_7 
REMARK       I    between atoms: N_7  and  C_8 
REMARK    2  A    between atoms: C_8  and  C_9 
REMARK    3  A    between atoms: C_9  and  O_10 
REMARK    4  A    between atoms: O_10  and  C_11 
ROOT
HETATM    1  N   UNL     1       4.776  -2.228  -0.003  1.00  0.00    -0.323 N 
HETATM    2  C   UNL     1       4.452  -3.518   0.386  1.00  0.00     0.256 C 
HETATM    3  O   UNL     1       5.111  -4.210   1.158  1.00  0.00    -0.270 OA
HETATM    4  H   UNL     1       4.106  -1.746  -0.597  1.00  0.00     0.169 HD
ENDROOT
BRANCH   2   5
HETATM    5  C   UNL     1       3.115  -4.026  -0.227  1.00  0.00     0.141 C 
HETATM    6  C   UNL     1       2.808  -5.479   0.173  1.00  0.00     0.057 C 
HETATM    7  C   UNL     1       1.983  -3.157   0.365  1.00  0.00     0.057 C 
BRANCH   5   8
HETATM    8  O   UNL     1       3.017  -3.828  -1.643  1.00  0.00    -0.331 OA
BRANCH   8   9
HETATM    9  C   UNL     1       3.795  -4.518  -2.527  1.00  0.00     0.072 A 
HETATM   10  C   UNL     1       4.973  -5.207  -2.247  1.00  0.00     0.060 A 
HETATM   11  C   UNL     1       5.652  -5.872  -3.273  1.00  0.00     0.036 A 
HETATM   12 CL   UNL     1       7.098  -6.736  -2.916  1.00  0.00    -0.084 Cl
HETATM   13  C   UNL     1       5.173  -5.849  -4.581  1.00  0.00     0.024 A 
HETATM   14  C   UNL     1       4.007  -5.146  -4.870  1.00  0.00     0.004 A 
HETATM   15  C   UNL     1       3.327  -4.482  -3.846  1.00  0.00     0.037 A 
ENDBRANCH   8   9
ENDBRANCH   5   8
ENDBRANCH   2   5
BRANCH   1  16
HETATM   16  C   UNL     1       5.896  -1.456   0.394  1.00  0.00     0.060 A 
HETATM   17  C   UNL     1       6.994  -2.006   1.051  1.00  0.00     0.050 A 
HETATM   18  C   UNL     1       8.040  -1.172   1.404  1.00  0.00     0.119 A 
HETATM   19  N   UNL     1       8.059   0.156   1.163  1.00  0.00    -0.264 NA
HETATM   20  C   UNL     1       6.990   0.695   0.524  1.00  0.00     0.054 A 
HETATM   21  C   UNL     1       7.039   2.181   0.317  1.00  0.00     0.072 C 
HETATM   22  C   UNL     1       5.900  -0.078   0.111  1.00  0.00     0.085 A 
HETATM   23 CL   UNL     1       4.547   0.645  -0.700  1.00  0.00    -0.080 Cl
ENDBRANCH   1  16
TORSDOF 4
