REMARK  6 active torsions:
REMARK  status: ('A' for Active; 'I' for Inactive)
REMARK    1  A    between atoms: O_2  and  C_3 
REMARK    2  A    between atoms: C_3  and  C_4 
REMARK    3  A    between atoms: C_4  and  N_5 
REMARK       I    between atoms: N_5  and  C_6 
REMARK    4  A    between atoms: C_6  and  C_7 
REMARK    5  A    between atoms: C_12  and  C_13 
REMARK    6  A    between atoms: C_21  and  C_22 
ROOT
HETATM    1  C   UNL     1       7.392   1.373  -1.234  1.00  0.00     0.170 A 
HETATM    2  N   UNL     1       8.408   1.984  -0.575  1.00  0.00    -0.163 NA
HETATM    3  N   UNL     1       9.103   0.969  -0.038  1.00  0.00    -0.238 N 
HETATM    4  C   UNL     1       8.525  -0.257  -0.229  1.00  0.00     0.145 A 
HETATM    5  N   UNL     1       9.055  -1.373   0.339  1.00  0.00    -0.365 N 
HETATM    6  C   UNL     1       9.980  -1.249   1.469  1.00  0.00     0.118 C 
HETATM    7  C   UNL     1      10.984  -0.141   1.101  1.00  0.00     0.066 C 
HETATM    8  C   UNL     1      10.271   1.194   0.797  1.00  0.00     0.221 C 
HETATM    9  C   UNL     1       7.432  -0.035  -1.034  1.00  0.00     0.115 A 
HETATM   10 CL   UNL     1       6.351  -1.206  -1.616  1.00  0.00    -0.077 Cl
HETATM   11  H   UNL     1       8.548  -2.256   0.279  1.00  0.00     0.162 HD
ENDROOT
BRANCH   1  12
HETATM   12  C   UNL     1       6.418   2.157  -2.009  1.00  0.00     0.273 C 
HETATM   13  N   UNL     1       6.690   3.509  -2.017  1.00  0.00    -0.353 N 
HETATM   14  H   UNL     1       7.426   3.817  -1.386  1.00  0.00     0.162 HD
HETATM   15  O   UNL     1       5.451   1.671  -2.587  1.00  0.00    -0.266 OA
BRANCH  13  16
HETATM   16  C   UNL     1       5.798   4.484  -2.608  1.00  0.00     0.149 C 
BRANCH  16  17
HETATM   17  C   UNL     1       4.609   4.815  -1.705  1.00  0.00     0.186 C 
BRANCH  17  18
HETATM   18  O   UNL     1       5.076   5.526  -0.553  1.00  0.00    -0.394 OA
HETATM   19  C   UNL     1       4.006   5.856   0.323  1.00  0.00     0.201 C 
ENDBRANCH  17  18
ENDBRANCH  16  17
ENDBRANCH  13  16
ENDBRANCH   1  12
BRANCH   8  20
HETATM   20  C   UNL     1      11.249   2.150   0.148  1.00  0.00     0.409 C 
HETATM   21  F   UNL     1      11.675   1.712  -1.058  1.00  0.00    -0.169 F 
HETATM   22  F   UNL     1      10.762   3.399  -0.002  1.00  0.00    -0.169 F 
HETATM   23  F   UNL     1      12.357   2.267   0.930  1.00  0.00    -0.169 F 
ENDBRANCH   8  20
BRANCH   6  24
HETATM   24  C   UNL     1       9.256  -1.058   2.803  1.00  0.00    -0.035 A 
HETATM   25  C   UNL     1       7.902  -1.410   2.969  1.00  0.00     0.011 A 
HETATM   26  C   UNL     1       7.256  -1.262   4.201  1.00  0.00     0.024 A 
HETATM   27  C   UNL     1       7.957  -0.770   5.295  1.00  0.00     0.034 A 
HETATM   28 CL   UNL     1       7.167  -0.585   6.811  1.00  0.00    -0.084 Cl
HETATM   29  C   UNL     1       9.301  -0.437   5.169  1.00  0.00     0.024 A 
HETATM   30  C   UNL     1       9.948  -0.592   3.937  1.00  0.00     0.011 A 
ENDBRANCH   6  24
TORSDOF 6
