REMARK  9 active torsions:
REMARK  status: ('A' for Active; 'I' for Inactive)
REMARK    1  A    between atoms: C_2  and  N_3 
REMARK    2  A    between atoms: C_2  and  C_23 
REMARK       I    between atoms: N_3  and  C_4 
REMARK       I    between atoms: C_4  and  N_5 
REMARK    3  A    between atoms: N_5  and  C_6 
REMARK    4  A    between atoms: C_6  and  C_7 
REMARK    5  A    between atoms: C_7  and  N_8 
REMARK    6  A    between atoms: C_7  and  C_14 
REMARK    7  A    between atoms: C_16  and  O_17 
REMARK    8  A    between atoms: C_23  and  C_24 
REMARK    9  A    between atoms: C_27  and  O_28 
ROOT
HETATM    1  N   UNL     1       0.316  -4.606  -0.410  1.00  0.00    -0.339 N 
HETATM    2  C   UNL     1      -0.053  -3.701   0.539  1.00  0.00     0.316 C 
HETATM    3  N   UNL     1       0.834  -2.658   0.637  1.00  0.00    -0.341 N 
HETATM    4  O   UNL     1      -0.999  -3.832   1.305  1.00  0.00    -0.248 OA
HETATM    5  H   UNL     1       0.934  -4.305  -1.148  1.00  0.00     0.164 HD
HETATM    6  H   UNL     1       1.361  -2.482  -0.208  1.00  0.00     0.164 HD
ENDROOT
BRANCH   3   7
HETATM    7  C   UNL     1       0.494  -1.491   1.438  1.00  0.00     0.162 C 
BRANCH   7   8
HETATM    8  C   UNL     1       0.261  -1.705   2.971  1.00  0.00     0.238 C 
BRANCH   8   9
HETATM    9  N   UNL     1       1.435  -2.332   3.727  1.00  0.00    -0.061 N 
HETATM   10  H   UNL     1       1.245  -2.093   4.708  1.00  0.00     0.280 HD
HETATM   11  C   UNL     1       2.832  -1.836   3.450  1.00  0.00     0.236 C 
HETATM   12  C   UNL     1       3.586  -3.057   2.962  1.00  0.00     0.029 C 
HETATM   13  C   UNL     1       2.952  -4.189   3.742  1.00  0.00     0.029 C 
HETATM   14  C   UNL     1       1.475  -3.851   3.699  1.00  0.00     0.236 C 
ENDBRANCH   8   9
BRANCH   8  15
HETATM   15  C   UNL     1      -0.178  -0.411   3.655  1.00  0.00    -0.023 A 
HETATM   16  C   UNL     1      -1.345  -0.414   4.449  1.00  0.00     0.046 A 
HETATM   17  C   UNL     1      -1.779   0.750   5.088  1.00  0.00     0.068 A 
HETATM   18  C   UNL     1      -1.034   1.921   4.958  1.00  0.00     0.037 A 
HETATM   19  C   UNL     1       0.121   1.944   4.180  1.00  0.00     0.003 A 
HETATM   20  C   UNL     1       0.548   0.785   3.532  1.00  0.00     0.009 A 
BRANCH  17  21
HETATM   21  O   UNL     1      -2.890   0.866   5.873  1.00  0.00    -0.356 OA
HETATM   22  C   UNL     1      -3.853  -0.178   5.796  1.00  0.00     0.210 C 
ENDBRANCH  17  21
ENDBRANCH   8  15
ENDBRANCH   7   8
ENDBRANCH   3   7
BRANCH   1  23
HETATM   23  C   UNL     1      -0.426  -5.847  -0.636  1.00  0.00     0.086 C 
HETATM   24  C   UNL     1      -1.731  -5.560  -1.382  1.00  0.00     0.032 C 
BRANCH  23  25
HETATM   25  C   UNL     1       0.417  -6.869  -1.427  1.00  0.00     0.063 C 
BRANCH  25  26
HETATM   26  C   UNL     1       1.677  -7.294  -0.707  1.00  0.00    -0.056 A 
HETATM   27  C   UNL     1       1.635  -8.309   0.260  1.00  0.00     0.010 A 
HETATM   28  C   UNL     1       2.800  -8.709   0.920  1.00  0.00     0.037 A 
HETATM   29  C   UNL     1       4.004  -8.083   0.621  1.00  0.00     0.065 A 
HETATM   30  C   UNL     1       4.064  -7.069  -0.327  1.00  0.00     0.037 A 
HETATM   31  C   UNL     1       2.904  -6.679  -0.996  1.00  0.00     0.010 A 
BRANCH  29  32
HETATM   32  O   UNL     1       5.164  -8.442   1.239  1.00  0.00    -0.361 OA
HETATM   33  H   UNL     1       5.025  -9.292   1.690  1.00  0.00     0.217 HD
ENDBRANCH  29  32
ENDBRANCH  25  26
ENDBRANCH  23  25
ENDBRANCH   1  23
TORSDOF 9
