REMARK  8 active torsions:
REMARK  status: ('A' for Active; 'I' for Inactive)
REMARK    1  A    between atoms: C_2  and  S_3 
REMARK    2  A    between atoms: S_3  and  C_4 
REMARK    3  A    between atoms: C_4  and  C_5 
REMARK    4  A    between atoms: C_8  and  C_9 
REMARK    5  A    between atoms: C_10  and  C_11 
REMARK    6  A    between atoms: C_23  and  N_24 
REMARK       I    between atoms: N_24  and  C_25 
REMARK    7  A    between atoms: C_25  and  C_26 
REMARK    8  A    between atoms: C_26  and  C_27 
ROOT
HETATM    1  C   UNL     1       7.195   8.811  -3.647  1.00  0.00    -0.035 A 
HETATM    2  C   UNL     1       8.375   9.520  -3.903  1.00  0.00     0.030 A 
HETATM    3  C   UNL     1       8.357  10.886  -4.243  1.00  0.00     0.059 A 
HETATM    4  C   UNL     1       7.133  11.563  -4.312  1.00  0.00     0.050 A 
HETATM    5  N   UNL     1       6.956  12.941  -4.527  1.00  0.00    -0.324 N 
HETATM    6  C   UNL     1       7.778  13.972  -4.150  1.00  0.00     0.245 C 
HETATM    7  O   UNL     1       7.314  15.114  -4.186  1.00  0.00    -0.271 OA
HETATM    8  C   UNL     1       9.118  13.639  -3.498  1.00  0.00     0.182 C 
HETATM    9  N   UNL     1       9.916  12.788  -4.368  1.00  0.00    -0.332 N 
HETATM   10  C   UNL     1       9.669  11.465  -4.630  1.00  0.00     0.256 C 
HETATM   11  O   UNL     1      10.503  10.735  -5.161  1.00  0.00    -0.267 OA
HETATM   12  C   UNL     1       9.985  14.881  -3.245  1.00  0.00     0.061 C 
HETATM   13  C   UNL     1      11.407  14.384  -3.520  1.00  0.00     0.105 C 
HETATM   14  C   UNL     1      11.202  13.397  -4.669  1.00  0.00     0.152 C 
HETATM   15  C   UNL     1       5.948  10.832  -4.128  1.00  0.00     0.031 A 
HETATM   16  C   UNL     1       5.978   9.477  -3.779  1.00  0.00     0.013 A 
HETATM   17  H   UNL     1       6.028  13.275  -4.757  1.00  0.00     0.169 HD
ENDROOT
BRANCH   1  18
HETATM   18  C   UNL     1       7.221   7.431  -3.145  1.00  0.00     0.012 C 
HETATM   19  C   UNL     1       8.103   6.509  -3.563  1.00  0.00     0.012 C 
BRANCH  19  20
HETATM   20  C   UNL     1       8.252   5.177  -2.961  1.00  0.00    -0.036 A 
HETATM   21  C   UNL     1       8.607   4.097  -3.776  1.00  0.00     0.012 A 
HETATM   22  C   UNL     1       8.903   2.851  -3.217  1.00  0.00     0.009 A 
HETATM   23  C   UNL     1       8.864   2.664  -1.828  1.00  0.00    -0.049 A 
HETATM   24  C   UNL     1       8.493   3.741  -1.013  1.00  0.00     0.009 A 
HETATM   25  C   UNL     1       8.191   4.985  -1.575  1.00  0.00     0.012 A 
BRANCH  23  26
HETATM   26  C   UNL     1       9.293   1.352  -1.222  1.00  0.00     0.112 C 
BRANCH  26  27
HETATM   27  S   UNL     1      11.112   1.234  -1.166  1.00  0.00    -0.165 SA
BRANCH  27  28
HETATM   28  C   UNL     1      11.267  -0.435  -0.471  1.00  0.00     0.069 C 
HETATM   29  C   UNL     1      12.723  -0.867  -0.503  1.00  0.00     0.016 C 
ENDBRANCH  27  28
ENDBRANCH  26  27
ENDBRANCH  23  26
ENDBRANCH  19  20
ENDBRANCH   1  18
BRANCH  13  30
HETATM   30  N   UNL     1      12.403  15.418  -3.729  1.00  0.00    -0.355 N 
HETATM   31  C   UNL     1      12.357  16.350  -4.740  1.00  0.00     0.222 C 
HETATM   32  O   UNL     1      11.433  16.388  -5.552  1.00  0.00    -0.273 OA
HETATM   33  H   UNL     1      13.245  15.366  -3.165  1.00  0.00     0.162 HD
BRANCH  31  34
HETATM   34  C   UNL     1      13.517  17.332  -4.864  1.00  0.00     0.148 C 
BRANCH  34  35
HETATM   35  C   UNL     1      14.454  17.349  -3.692  1.00  0.00    -0.009 A 
HETATM   36  S   UNL     1      15.803  16.289  -3.653  1.00  0.00    -0.106 SA
HETATM   37  C   UNL     1      16.317  16.896  -2.141  1.00  0.00     0.050 A 
HETATM   38  C   UNL     1      15.486  17.888  -1.673  1.00  0.00     0.008 A 
HETATM   39  C   UNL     1      14.409  18.151  -2.569  1.00  0.00     0.015 A 
ENDBRANCH  34  35
ENDBRANCH  31  34
ENDBRANCH  13  30
TORSDOF 8
