REMARK  7 active torsions:
REMARK  status: ('A' for Active; 'I' for Inactive)
REMARK    1  A    between atoms: C_2  and  C_3 
REMARK    2  A    between atoms: C_3  and  C_4 
REMARK    3  A    between atoms: C_5  and  O_6 
REMARK    4  A    between atoms: O_6  and  C_7 
REMARK    5  A    between atoms: C_7  and  C_8 
REMARK       I    between atoms: C_8  and  N_9 
REMARK    6  A    between atoms: N_9  and  C_10 
REMARK    7  A    between atoms: C_17  and  C_18 
REMARK       I    between atoms: C_18  and  N_19 
ROOT
HETATM    1  C   UNL     1       2.414  -5.669  -2.075  1.00  0.00     0.246 C 
HETATM    2  N   UNL     1       2.977  -6.830  -2.600  1.00  0.00    -0.325 N 
HETATM    3  O   UNL     1       2.017  -5.521  -0.924  1.00  0.00    -0.271 OA
HETATM    4  H   UNL     1       3.300  -6.790  -3.559  1.00  0.00     0.169 HD
ENDROOT
BRANCH   2   5
HETATM    5  C   UNL     1       3.139  -8.077  -1.956  1.00  0.00     0.035 A 
HETATM    6  C   UNL     1       3.732  -9.105  -2.711  1.00  0.00     0.046 A 
HETATM    7  C   UNL     1       3.906 -10.384  -2.142  1.00  0.00     0.030 A 
HETATM    8  C   UNL     1       3.486 -10.596  -0.836  1.00  0.00     0.063 A 
HETATM    9  C   UNL     1       4.437 -11.638  -2.569  1.00  0.00     0.156 A 
HETATM   10  N   UNL     1       3.777 -11.905  -0.569  1.00  0.00    -0.277 N 
HETATM   11  C   UNL     1       2.899  -9.599  -0.057  1.00  0.00     0.034 A 
HETATM   12  H   UNL     1       3.605 -12.407   0.295  1.00  0.00     0.189 HD
HETATM   13  N   UNL     1       4.351 -12.566  -1.589  1.00  0.00    -0.168 NA
HETATM   14  C   UNL     1       2.734  -8.336  -0.645  1.00  0.00     0.032 A 
BRANCH   9  15
HETATM   15  C   UNL     1       5.015 -11.959  -3.880  1.00  0.00     0.270 C 
HETATM   16  N   UNL     1       5.444 -13.251  -4.002  1.00  0.00    -0.365 N 
HETATM   17  H   UNL     1       5.338 -13.874  -3.209  1.00  0.00     0.159 HD
HETATM   18  H   UNL     1       5.856 -13.567  -4.866  1.00  0.00     0.159 HD
HETATM   19  O   UNL     1       5.117 -11.160  -4.806  1.00  0.00    -0.266 OA
ENDBRANCH   9  15
ENDBRANCH   2   5
BRANCH   1  20
HETATM   20  C   UNL     1       2.330  -4.553  -3.127  1.00  0.00     0.278 C 
BRANCH  20  21
HETATM   21  O   UNL     1       1.539  -3.454  -2.672  1.00  0.00    -0.342 OA
BRANCH  21  22
HETATM   22  C   UNL     1       1.058  -2.697  -3.707  1.00  0.00     0.076 A 
HETATM   23  C   UNL     1       1.432  -1.353  -3.859  1.00  0.00    -0.021 A 
HETATM   24  C   UNL     1       0.881  -0.650  -4.954  1.00  0.00     0.010 A 
HETATM   25  C   UNL     1      -0.038  -1.241  -5.824  1.00  0.00     0.001 A 
HETATM   26  C   UNL     1      -0.442  -2.552  -5.616  1.00  0.00     0.003 A 
HETATM   27  C   UNL     1       0.098  -3.273  -4.555  1.00  0.00     0.037 A 
BRANCH  23  28
HETATM   28  C   UNL     1       2.354  -0.561  -2.932  1.00  0.00     0.017 C 
HETATM   29  C   UNL     1       3.267  -1.342  -1.981  1.00  0.00     0.015 C 
BRANCH  28  30
HETATM   30  C   UNL     1       1.587   0.544  -2.161  1.00  0.00     0.004 C 
HETATM   31  C   UNL     1       0.527   0.035  -1.193  1.00  0.00     0.006 C 
ENDBRANCH  28  30
ENDBRANCH  23  28
ENDBRANCH  21  22
ENDBRANCH  20  21
ENDBRANCH   1  20
TORSDOF 7
