REMARK  3 active torsions:
REMARK  status: ('A' for Active; 'I' for Inactive)
REMARK    1  A    between atoms: C_3  and  C_4 
REMARK    2  A    between atoms: C_10  and  C_11 
REMARK    3  A    between atoms: C_14  and  O_15 
ROOT
HETATM    1  C   UNL     1       2.567   2.573  -0.026  1.00  0.00    -0.007 A 
HETATM    2  C   UNL     1       1.903   2.699  -1.254  1.00  0.00     0.047 A 
HETATM    3  C   UNL     1       1.671   3.988  -1.762  1.00  0.00     0.086 A 
HETATM    4  C   UNL     1       2.101   5.095  -1.047  1.00  0.00     0.063 A 
HETATM    5  N   UNL     1       1.711   6.162  -1.814  1.00  0.00    -0.338 N 
HETATM    6  H   UNL     1       1.888   7.132  -1.606  1.00  0.00     0.167 HD
HETATM    7  C   UNL     1       1.076   5.691  -2.942  1.00  0.00     0.139 A 
HETATM    8  N   UNL     1       1.056   4.369  -2.928  1.00  0.00    -0.228 NA
HETATM    9  C   UNL     1       2.780   5.010   0.166  1.00  0.00     0.033 A 
HETATM   10  C   UNL     1       3.006   3.719   0.661  1.00  0.00     0.016 A 
ENDROOT
BRANCH   1  11
HETATM   11  C   UNL     1       2.826   1.235   0.599  1.00  0.00     0.069 C 
HETATM   12  C   UNL     1       1.843   0.097   0.356  1.00  0.00     0.045 C 
HETATM   13  C   UNL     1       0.679   0.229   1.340  1.00  0.00     0.017 C 
HETATM   14  C   UNL     1       2.554  -1.240   0.494  1.00  0.00     0.115 C 
HETATM   15  C   UNL     1       3.463  -1.273   1.689  1.00  0.00     0.238 C 
HETATM   16  N   UNL     1       4.051  -0.081   2.016  1.00  0.00    -0.247 N 
HETATM   17  O   UNL     1       3.726  -2.313   2.288  1.00  0.00    -0.272 OA
HETATM   18  N   UNL     1       3.833   1.118   1.415  1.00  0.00    -0.176 NA
HETATM   19  H   UNL     1       4.749  -0.098   2.753  1.00  0.00     0.192 HD
ENDBRANCH   1  11
BRANCH   7  20
HETATM   20  C   UNL     1       0.550   6.553  -4.003  1.00  0.00     0.010 A 
HETATM   21  C   UNL     1       0.430   6.048  -5.303  1.00  0.00     0.018 A 
HETATM   22  C   UNL     1      -0.050   6.852  -6.341  1.00  0.00     0.037 A 
HETATM   23  C   UNL     1      -0.434   8.171  -6.099  1.00  0.00     0.068 A 
HETATM   24  C   UNL     1      -0.333   8.681  -4.805  1.00  0.00     0.037 A 
HETATM   25  C   UNL     1       0.156   7.877  -3.765  1.00  0.00     0.018 A 
BRANCH  23  26
HETATM   26  O   UNL     1      -0.885   8.848  -7.198  1.00  0.00    -0.356 OA
HETATM   27  C   UNL     1      -1.367  10.169  -6.989  1.00  0.00     0.210 C 
ENDBRANCH  23  26
ENDBRANCH   7  20
TORSDOF 3
