REMARK  12 active torsions:
REMARK  status: ('A' for Active; 'I' for Inactive)
REMARK    1  A    between atoms: C_2  and  N_3 
REMARK    2  A    between atoms: N_3  and  C_5 
REMARK    3  A    between atoms: N_3  and  C_33 
REMARK    4  A    between atoms: C_5  and  C_6 
REMARK    5  A    between atoms: N_7  and  C_8 
REMARK    6  A    between atoms: C_12  and  N_13 
REMARK    7  A    between atoms: C_16  and  C_17 
REMARK       I    between atoms: C_17  and  N_18 
REMARK    8  A    between atoms: N_18  and  N_19 
REMARK    9  A    between atoms: C_20  and  C_21 
REMARK   10  A    between atoms: C_25  and  O_26 
REMARK   11  A    between atoms: C_27  and  O_28 
REMARK   12  A    between atoms: O_28  and  C_29 
ROOT
HETATM    1  C   UNL     1       0.861   2.402   0.739  1.00  0.00     0.096 A 
HETATM    2  N   UNL     1      -0.103   1.404   0.853  1.00  0.00    -0.215 N 
HETATM    3  N   UNL     1      -1.331   1.987   0.886  1.00  0.00     0.012 NA
HETATM    4  N   UNL     1      -1.202   3.290   0.700  1.00  0.00    -0.152 NA
HETATM    5  C   UNL     1       0.128   3.573   0.598  1.00  0.00     0.170 A 
ENDROOT
BRANCH   5   6
HETATM    6  C   UNL     1       0.661   4.910   0.370  1.00  0.00     0.293 C 
HETATM    7  N   UNL     1      -0.290   5.913   0.396  1.00  0.00    -0.242 N 
HETATM    8  H   UNL     1      -1.268   5.693   0.566  1.00  0.00     0.192 HD
HETATM    9  O   UNL     1       1.861   5.063   0.154  1.00  0.00    -0.264 OA
BRANCH   7  10
HETATM   10  N   UNL     1       0.108   7.203   0.231  1.00  0.00    -0.184 NA
HETATM   11  C   UNL     1      -0.823   8.103   0.242  1.00  0.00     0.150 C 
BRANCH  11  12
HETATM   12  C   UNL     1      -0.493   9.536   0.094  1.00  0.00    -0.013 A 
HETATM   13  C   UNL     1       0.842   9.946   0.026  1.00  0.00     0.035 A 
HETATM   14  C   UNL     1       1.136  11.300  -0.099  1.00  0.00     0.047 A 
HETATM   15 BR   UNL     1       2.952  11.838  -0.180  1.00  0.00    -0.048 Br
HETATM   16  C   UNL     1       0.103  12.239  -0.162  1.00  0.00     0.116 A 
HETATM   17  C   UNL     1      -1.239  11.832  -0.101  1.00  0.00     0.104 A 
HETATM   18  C   UNL     1      -1.534  10.471   0.032  1.00  0.00     0.052 A 
BRANCH  16  19
HETATM   19  O   UNL     1       0.377  13.578  -0.285  1.00  0.00    -0.357 OA
HETATM   20  H   UNL     1       1.344  13.692  -0.302  1.00  0.00     0.218 HD
ENDBRANCH  16  19
BRANCH  17  21
HETATM   21  O   UNL     1      -2.171  12.833  -0.172  1.00  0.00    -0.349 OA
BRANCH  21  22
HETATM   22  C   UNL     1      -3.548  12.475  -0.215  1.00  0.00     0.171 C 
HETATM   23  C   UNL     1      -4.357  13.751  -0.364  1.00  0.00     0.034 C 
ENDBRANCH  21  22
ENDBRANCH  17  21
ENDBRANCH  11  12
ENDBRANCH   7  10
ENDBRANCH   5   6
BRANCH   1  24
HETATM   24  C   UNL     1       2.328   2.208   0.858  1.00  0.00     0.296 C 
BRANCH  24  25
HETATM   25  N   UNL     1       3.038   1.683  -0.379  1.00  0.00    -0.066 N 
HETATM   26  H   UNL     1       2.617   0.766  -0.588  1.00  0.00     0.280 HD
BRANCH  25  27
HETATM   27  C   UNL     1       4.518   1.451  -0.100  1.00  0.00     0.231 C 
HETATM   28  C   UNL     1       4.733   0.226   0.771  1.00  0.00     0.034 C 
ENDBRANCH  25  27
BRANCH  25  29
HETATM   29  C   UNL     1       2.844   2.587  -1.588  1.00  0.00     0.231 C 
HETATM   30  C   UNL     1       3.148   1.844  -2.879  1.00  0.00     0.034 C 
ENDBRANCH  25  29
ENDBRANCH  24  25
ENDBRANCH   1  24
BRANCH   2  31
HETATM   31  C   UNL     1       0.078   0.001   0.875  1.00  0.00     0.225 A 
HETATM   32  N   UNL     1       1.289  -0.517   0.648  1.00  0.00    -0.081 NA
HETATM   33  O   UNL     1       1.075  -1.898   0.728  1.00  0.00    -0.103 OA
HETATM   34  N   UNL     1      -0.259  -2.185   0.973  1.00  0.00    -0.083 NA
HETATM   35  C   UNL     1      -0.879  -1.010   1.062  1.00  0.00     0.201 A 
BRANCH  35  36
HETATM   36  N   UNL     1      -2.191  -0.856   1.298  1.00  0.00    -0.379 N 
HETATM   37  H   UNL     1      -2.801  -1.668   1.353  1.00  0.00     0.158 HD
HETATM   38  H   UNL     1      -2.675   0.038   1.267  1.00  0.00     0.158 HD
ENDBRANCH  35  36
ENDBRANCH   2  31
TORSDOF 12
