REMARK  3 active torsions:
REMARK  status: ('A' for Active; 'I' for Inactive)
REMARK    1  A    between atoms: C_7  and  C_8 
REMARK       I    between atoms: C_8  and  N_9 
REMARK    2  A    between atoms: N_9  and  C_10 
REMARK    3  A    between atoms: C_13  and  C_14 
REMARK       I    between atoms: C_14  and  N_15 
ROOT
HETATM    1  C   UNL     1       1.986  -2.288   0.075  1.00  0.00     0.257 C 
HETATM    2  N   UNL     1       1.154  -3.392   0.119  1.00  0.00    -0.323 N 
HETATM    3  O   UNL     1       1.790  -1.272  -0.580  1.00  0.00    -0.267 OA
HETATM    4  H   UNL     1       1.404  -4.114   0.783  1.00  0.00     0.169 HD
ENDROOT
BRANCH   2   5
HETATM    5  C   UNL     1      -0.045  -3.600  -0.592  1.00  0.00     0.035 A 
HETATM    6  C   UNL     1      -0.617  -2.664  -1.456  1.00  0.00     0.030 A 
HETATM    7  C   UNL     1      -1.825  -2.939  -2.114  1.00  0.00     0.019 A 
HETATM    8  C   UNL     1      -2.470  -4.166  -1.929  1.00  0.00     0.032 A 
HETATM    9  C   UNL     1      -1.894  -5.106  -1.066  1.00  0.00     0.019 A 
HETATM   10  C   UNL     1      -0.695  -4.824  -0.401  1.00  0.00     0.030 A 
BRANCH   8  11
HETATM   11  C   UNL     1      -3.757  -4.524  -2.591  1.00  0.00     0.249 C 
HETATM   12  N   UNL     1      -4.266  -3.678  -3.536  1.00  0.00    -0.366 N 
HETATM   13  H   UNL     1      -3.798  -2.862  -3.896  1.00  0.00     0.159 HD
HETATM   14  H   UNL     1      -5.121  -3.971  -3.991  1.00  0.00     0.159 HD
HETATM   15  O   UNL     1      -4.352  -5.559  -2.311  1.00  0.00    -0.268 OA
ENDBRANCH   8  11
ENDBRANCH   2   5
BRANCH   1  16
HETATM   16  C   UNL     1       3.149  -2.387   0.967  1.00  0.00     0.050 A 
HETATM   17  C   UNL     1       3.947  -3.558   1.299  1.00  0.00    -0.003 A 
HETATM   18  C   UNL     1       3.901  -4.899   0.828  1.00  0.00     0.014 A 
HETATM   19  C   UNL     1       4.931  -3.251   2.247  1.00  0.00     0.016 A 
HETATM   20  C   UNL     1       4.768  -5.874   1.336  1.00  0.00     0.001 A 
HETATM   21  C   UNL     1       5.704  -5.542   2.301  1.00  0.00     0.001 A 
HETATM   22  C   UNL     1       5.805  -4.230   2.762  1.00  0.00     0.019 A 
HETATM   23  S   UNL     1       4.925  -1.581   2.655  1.00  0.00    -0.100 SA
HETATM   24  C   UNL     1       3.635  -1.257   1.599  1.00  0.00     0.068 A 
ENDBRANCH   1  16
TORSDOF 3
