REMARK  5 active torsions:
REMARK  status: ('A' for Active; 'I' for Inactive)
REMARK    1  A    between atoms: C_8  and  C_9 
REMARK    2  A    between atoms: C_13  and  C_14 
REMARK    3  A    between atoms: C_14  and  O_15 
REMARK    4  A    between atoms: O_15  and  C_16 
REMARK    5  A    between atoms: C_27  and  N_28 
ROOT
HETATM    1  C   UNL     1       5.257   3.576  -2.229  1.00  0.00     0.073 C 
HETATM    2  C   UNL     1       5.090   3.904  -0.792  1.00  0.00     0.062 A 
HETATM    3  N   UNL     1       5.916   4.780  -0.196  1.00  0.00    -0.177 NA
HETATM    4  N   UNL     1       5.482   4.833   1.081  1.00  0.00    -0.256 N 
HETATM    5  H   UNL     1       5.966   5.433   1.739  1.00  0.00     0.191 HD
HETATM    6  C   UNL     1       4.406   4.036   1.301  1.00  0.00     0.175 A 
HETATM    7  C   UNL     1       4.118   3.418   0.113  1.00  0.00     0.035 A 
HETATM    8  C   UNL     1       2.980   2.456   0.011  1.00  0.00     0.111 A 
HETATM    9  C   UNL     1       2.284   2.355   1.380  1.00  0.00     0.067 A 
HETATM   10  C   UNL     1       1.064   1.451   1.432  1.00  0.00     0.020 C 
HETATM   11  N   UNL     1       0.051   0.701   1.475  1.00  0.00    -0.096 N 
HETATM   12  C   UNL     1       2.679   3.036   2.488  1.00  0.00     0.139 A 
HETATM   13  O   UNL     1       3.782   3.909   2.466  1.00  0.00    -0.279 OA
ENDROOT
BRANCH   8  14
HETATM   14  C   UNL     1       2.039   2.822  -1.124  1.00  0.00    -0.003 A 
HETATM   15  S   UNL     1       1.514   1.609  -2.213  1.00  0.00    -0.098 SA
HETATM   16  C   UNL     1       0.503   2.694  -3.060  1.00  0.00    -0.013 A 
HETATM   17  C   UNL     1      -0.342   2.188  -4.183  1.00  0.00     0.057 C 
HETATM   18  C   UNL     1       0.606   3.990  -2.578  1.00  0.00    -0.020 A 
HETATM   19  C   UNL     1       1.479   4.046  -1.440  1.00  0.00     0.026 A 
BRANCH  18  20
HETATM   20  C   UNL     1      -0.113   5.185  -3.148  1.00  0.00     0.215 C 
BRANCH  20  21
HETATM   21  O   UNL     1      -1.424   5.288  -2.594  1.00  0.00    -0.347 OA
BRANCH  21  22
HETATM   22  C   UNL     1      -2.220   6.299  -3.056  1.00  0.00     0.069 A 
HETATM   23  C   UNL     1      -1.877   7.236  -4.036  1.00  0.00     0.040 A 
HETATM   24  C   UNL     1      -2.798   8.217  -4.418  1.00  0.00     0.045 A 
HETATM   25  C   UNL     1      -4.051   8.259  -3.819  1.00  0.00     0.116 A 
HETATM   26  F   UNL     1      -4.928   9.201  -4.189  1.00  0.00    -0.206 F 
HETATM   27  C   UNL     1      -4.405   7.337  -2.844  1.00  0.00     0.045 A 
HETATM   28  C   UNL     1      -3.487   6.357  -2.464  1.00  0.00     0.040 A 
ENDBRANCH  21  22
ENDBRANCH  20  21
ENDBRANCH  18  20
ENDBRANCH   8  14
BRANCH  12  29
HETATM   29  N   UNL     1       2.073   2.974   3.722  1.00  0.00    -0.282 NA
HETATM   30  H   UNL     1       1.093   2.701   3.719  1.00  0.00     0.126 HD
HETATM   31  H   UNL     1       2.252   3.805   4.279  1.00  0.00     0.126 HD
ENDBRANCH  12  29
TORSDOF 5
