REMARK  5 active torsions:
REMARK  status: ('A' for Active; 'I' for Inactive)
REMARK    1  A    between atoms: C_3  and  N_4 
REMARK       I    between atoms: N_4  and  C_5 
REMARK       I    between atoms: C_5  and  N_6 
REMARK    2  A    between atoms: N_6  and  C_7 
REMARK    3  A    between atoms: C_7  and  C_8 
REMARK    4  A    between atoms: C_10  and  N_11 
REMARK       I    between atoms: N_11  and  C_12 
REMARK    5  A    between atoms: C_12  and  C_13 
ROOT
HETATM    1  C   UNL     1       6.829   2.698  -0.071  1.00  0.00    -0.038 A 
HETATM    2  C   UNL     1       7.461   1.802  -0.952  1.00  0.00     0.038 A 
HETATM    3  C   UNL     1       8.838   1.866  -1.178  1.00  0.00     0.035 A 
HETATM    4  C   UNL     1       9.585   2.855  -0.527  1.00  0.00     0.029 A 
HETATM    5  C   UNL     1       8.964   3.768   0.328  1.00  0.00     0.003 A 
HETATM    6  C   UNL     1       7.591   3.691   0.556  1.00  0.00     0.009 A 
ENDROOT
BRANCH   1   7
HETATM    7  C   UNL     1       5.355   2.570   0.213  1.00  0.00     0.163 C 
BRANCH   7   8
HETATM    8  N   UNL     1       4.581   3.584  -0.466  1.00  0.00    -0.339 N 
HETATM    9  C   UNL     1       4.055   4.659   0.214  1.00  0.00     0.321 C 
HETATM   10  N   UNL     1       3.247   5.406  -0.619  1.00  0.00    -0.307 N 
HETATM   11  O   UNL     1       4.236   4.848   1.409  1.00  0.00    -0.247 OA
HETATM   12  H   UNL     1       2.803   4.828  -1.320  1.00  0.00     0.170 HD
HETATM   13  H   UNL     1       4.758   3.708  -1.452  1.00  0.00     0.164 HD
BRANCH  10  14
HETATM   14  C   UNL     1       2.522   6.554  -0.218  1.00  0.00     0.059 A 
HETATM   15  C   UNL     1       3.022   7.595   0.576  1.00  0.00    -0.032 A 
HETATM   16  C   UNL     1       4.444   7.691   1.051  1.00  0.00     0.050 C 
HETATM   17  C   UNL     1       2.147   8.634   0.934  1.00  0.00     0.028 A 
HETATM   18  C   UNL     1       0.849   8.636   0.447  1.00  0.00     0.117 A 
HETATM   19  N   UNL     1       0.362   7.688  -0.374  1.00  0.00    -0.271 NA
HETATM   20  C   UNL     1       1.209   6.679  -0.685  1.00  0.00     0.146 A 
ENDBRANCH  10  14
ENDBRANCH   7   8
ENDBRANCH   1   7
BRANCH   3  21
HETATM   21  N   UNL     1       9.538   0.963  -1.999  1.00  0.00    -0.321 N 
HETATM   22  C   UNL     1       9.024  -0.040  -2.803  1.00  0.00     0.279 C 
HETATM   23  O   UNL     1       7.832  -0.241  -3.014  1.00  0.00    -0.265 OA
HETATM   24  H   UNL     1      10.550   1.032  -2.004  1.00  0.00     0.169 HD
BRANCH  22  25
HETATM   25  C   UNL     1      10.060  -0.860  -3.407  1.00  0.00     0.142 A 
HETATM   26  O   UNL     1      11.376  -0.632  -3.091  1.00  0.00    -0.317 OA
HETATM   27  C   UNL     1      12.114  -1.552  -3.765  1.00  0.00     0.143 A 
HETATM   28  C   UNL     1      11.302  -2.363  -4.521  1.00  0.00     0.027 A 
HETATM   29  C   UNL     1       9.978  -1.918  -4.294  1.00  0.00     0.045 A 
ENDBRANCH  22  25
ENDBRANCH   3  21
TORSDOF 5
