REMARK  4 active torsions:
REMARK  status: ('A' for Active; 'I' for Inactive)
REMARK    1  A    between atoms: C_6  and  O_7 
REMARK    2  A    between atoms: C_6  and  C_8 
REMARK    3  A    between atoms: N_15  and  C_17 
REMARK    4  A    between atoms: C_17  and  C_18 
ROOT
HETATM    1  C   UNL     1       4.341  -0.048   3.317  1.00  0.00    -0.023 A 
HETATM    2  C   UNL     1       3.940  -1.310   3.819  1.00  0.00     0.022 A 
HETATM    3  C   UNL     1       3.135  -1.440   4.966  1.00  0.00     0.002 A 
HETATM    4  C   UNL     1       2.696  -0.280   5.599  1.00  0.00     0.076 A 
HETATM    5  O   UNL     1       1.904  -0.340   6.710  1.00  0.00    -0.349 OA
HETATM    6  C   UNL     1       0.587  -0.810   6.388  1.00  0.00     0.203 C 
HETATM    7  C   UNL     1       0.493  -2.331   6.538  1.00  0.00     0.262 C 
HETATM    8  N   UNL     1       1.279  -3.097   5.484  1.00  0.00    -0.061 N 
HETATM    9  H   UNL     1       1.217  -4.084   5.770  1.00  0.00     0.280 HD
HETATM   10  C   UNL     1       2.757  -2.790   5.509  1.00  0.00     0.276 C 
HETATM   11  C   UNL     1       3.077   0.974   5.138  1.00  0.00     0.038 A 
HETATM   12  C   UNL     1       3.878   1.089   3.998  1.00  0.00     0.013 A 
ENDROOT
BRANCH   1  13
HETATM   13  C   UNL     1       5.168   0.033   2.027  1.00  0.00     0.088 C 
HETATM   14  C   UNL     1       6.401  -0.896   2.023  1.00  0.00     0.070 C 
HETATM   15  C   UNL     1       7.525  -0.368   2.895  1.00  0.00     0.237 C 
HETATM   16  N   UNL     1       7.932   0.998   2.410  1.00  0.00    -0.075 N 
HETATM   17  C   UNL     1       9.123   1.524   3.172  1.00  0.00     0.269 C 
HETATM   18  H   UNL     1       8.253   0.901   1.434  1.00  0.00     0.279 HD
HETATM   19  C   UNL     1       6.787   1.976   2.419  1.00  0.00     0.237 C 
HETATM   20  C   UNL     1       5.635   1.434   1.581  1.00  0.00     0.070 C 
BRANCH  13  21
HETATM   21  O   UNL     1       4.296  -0.464   1.003  1.00  0.00    -0.385 OA
HETATM   22  H   UNL     1       3.496   0.093   0.976  1.00  0.00     0.211 HD
ENDBRANCH  13  21
ENDBRANCH   1  13
BRANCH   8  23
HETATM   23  C   UNL     1       0.696  -3.060   4.086  1.00  0.00     0.278 C 
BRANCH  23  24
HETATM   24  C   UNL     1      -0.638  -3.730   3.947  1.00  0.00     0.028 A 
HETATM   25  C   UNL     1      -0.822  -5.108   4.119  1.00  0.00     0.045 A 
HETATM   26 CL   UNL     1       0.497  -6.126   4.577  1.00  0.00    -0.084 Cl
HETATM   27  C   UNL     1      -2.080  -5.690   3.947  1.00  0.00     0.024 A 
HETATM   28  C   UNL     1      -3.175  -4.897   3.599  1.00  0.00     0.005 A 
HETATM   29  C   UNL     1      -3.011  -3.525   3.430  1.00  0.00     0.043 A 
HETATM   30  C   UNL     1      -1.753  -2.959   3.605  1.00  0.00     0.126 A 
HETATM   31  F   UNL     1      -1.610  -1.634   3.460  1.00  0.00    -0.205 F 
ENDBRANCH  23  24
ENDBRANCH   8  23
TORSDOF 4
