REMARK  7 active torsions:
REMARK  status: ('A' for Active; 'I' for Inactive)
REMARK    1  A    between atoms: C_2  and  C_3 
REMARK    2  A    between atoms: C_3  and  N_4 
REMARK    3  A    between atoms: C_3  and  C_20 
REMARK       I    between atoms: N_4  and  C_5 
REMARK       I    between atoms: C_5  and  N_6 
REMARK    4  A    between atoms: N_6  and  C_7 
REMARK    5  A    between atoms: C_7  and  C_8 
REMARK    6  A    between atoms: C_10  and  O_11 
REMARK    7  A    between atoms: O_11  and  C_12 
ROOT
HETATM    1  N   UNL     1       0.816   1.944   3.153  1.00  0.00    -0.334 N 
HETATM    2  C   UNL     1       1.219   1.566   1.901  1.00  0.00     0.316 C 
HETATM    3  N   UNL     1       0.143   1.273   1.102  1.00  0.00    -0.339 N 
HETATM    4  O   UNL     1       2.384   1.510   1.534  1.00  0.00    -0.247 OA
HETATM    5  H   UNL     1      -0.128   1.718   3.416  1.00  0.00     0.165 HD
HETATM    6  H   UNL     1      -0.730   1.695   1.373  1.00  0.00     0.164 HD
ENDROOT
BRANCH   3   7
HETATM    7  C   UNL     1       0.317   1.031  -0.314  1.00  0.00     0.163 C 
BRANCH   7   8
HETATM    8  C   UNL     1       0.019   2.284  -1.093  1.00  0.00    -0.035 A 
HETATM    9  C   UNL     1       1.009   3.254  -1.279  1.00  0.00     0.066 A 
HETATM   10  C   UNL     1       0.666   4.433  -1.918  1.00  0.00     0.164 A 
HETATM   11  N   UNL     1      -0.568   4.708  -2.390  1.00  0.00    -0.237 NA
HETATM   12  C   UNL     1      -1.504   3.753  -2.213  1.00  0.00     0.120 A 
HETATM   13  C   UNL     1      -1.267   2.545  -1.574  1.00  0.00     0.028 A 
BRANCH  10  14
HETATM   14  O   UNL     1       1.665   5.376  -2.060  1.00  0.00    -0.329 OA
BRANCH  14  15
HETATM   15  C   UNL     1       1.219   6.729  -2.295  1.00  0.00     0.130 C 
HETATM   16  C   UNL     1       0.598   7.472  -1.081  1.00  0.00     0.032 C 
HETATM   17  C   UNL     1       1.350   8.732  -1.542  1.00  0.00     0.005 C 
HETATM   18  C   UNL     1       2.341   7.799  -2.259  1.00  0.00     0.032 C 
ENDBRANCH  14  15
ENDBRANCH  10  14
ENDBRANCH   7   8
ENDBRANCH   3   7
BRANCH   1  19
HETATM   19  C   UNL     1       1.762   2.253   4.215  1.00  0.00     0.119 C 
BRANCH  19  20
HETATM   20  C   UNL     1       1.335   3.535   4.960  1.00  0.00     0.025 C 
HETATM   21  C   UNL     1       0.002   3.440   5.695  1.00  0.00     0.007 C 
ENDBRANCH  19  20
BRANCH  19  22
HETATM   22  C   UNL     1       2.007   1.086   5.160  1.00  0.00    -0.033 A 
HETATM   23  C   UNL     1       3.175   1.070   5.936  1.00  0.00     0.028 A 
HETATM   24  C   UNL     1       3.385   0.023   6.821  1.00  0.00     0.116 A 
HETATM   25  N   UNL     1       2.523  -1.000   6.991  1.00  0.00    -0.273 NA
HETATM   26  C   UNL     1       1.408  -0.978   6.233  1.00  0.00     0.116 A 
HETATM   27  C   UNL     1       1.109   0.025   5.322  1.00  0.00     0.028 A 
ENDBRANCH  19  22
ENDBRANCH   1  19
TORSDOF 7
