REMARK  7 active torsions:
REMARK  status: ('A' for Active; 'I' for Inactive)
REMARK    1  A    between atoms: C_3  and  O_4 
REMARK    2  A    between atoms: C_8  and  C_9 
REMARK    3  A    between atoms: C_9  and  N_10 
REMARK    4  A    between atoms: C_15  and  O_16 
REMARK    5  A    between atoms: C_18  and  N_19 
REMARK       I    between atoms: N_19  and  C_20 
REMARK    6  A    between atoms: C_20  and  C_21 
REMARK    7  A    between atoms: C_21  and  C_22 
ROOT
HETATM    1  N   UNL     1       4.838  -3.359   0.267  1.00  0.00    -0.067 N 
HETATM    2  H   UNL     1       3.829  -3.266   0.100  1.00  0.00     0.280 HD
HETATM    3  C   UNL     1       5.347  -4.219  -0.869  1.00  0.00     0.236 C 
HETATM    4  C   UNL     1       6.788  -4.654  -0.625  1.00  0.00     0.045 C 
HETATM    5  C   UNL     1       6.991  -5.343   0.747  1.00  0.00     0.019 A 
HETATM    6  C   UNL     1       6.364  -6.800   0.832  1.00  0.00     0.161 A 
HETATM    7  C   UNL     1       7.509  -7.792   1.231  1.00  0.00     0.148 A 
HETATM    8  C   UNL     1       8.733  -6.931   1.292  1.00  0.00    -0.026 A 
HETATM    9  C   UNL     1       8.463  -5.593   1.006  1.00  0.00    -0.038 A 
HETATM   10  C   UNL     1      10.031  -7.358   1.557  1.00  0.00     0.010 A 
HETATM   11  C   UNL     1      11.065  -6.423   1.551  1.00  0.00     0.001 A 
HETATM   12  C   UNL     1      10.798  -5.079   1.276  1.00  0.00     0.001 A 
HETATM   13  C   UNL     1       9.496  -4.658   1.003  1.00  0.00     0.009 A 
HETATM   14  C   UNL     1       6.429  -4.418   1.850  1.00  0.00     0.045 C 
HETATM   15  C   UNL     1       4.975  -4.050   1.600  1.00  0.00     0.236 C 
ENDROOT
BRANCH   6  16
HETATM   16  O   UNL     1       5.788  -7.155  -0.444  1.00  0.00    -0.387 OA
HETATM   17  C   UNL     1       4.977  -8.327  -0.384  1.00  0.00     0.202 C 
ENDBRANCH   6  16
BRANCH   7  18
HETATM   18  N   UNL     1       7.323  -8.579   2.444  1.00  0.00    -0.350 N 
HETATM   19  C   UNL     1       6.863  -8.085   3.641  1.00  0.00     0.223 C 
HETATM   20  O   UNL     1       6.287  -6.998   3.721  1.00  0.00    -0.273 OA
HETATM   21  H   UNL     1       7.896  -9.415   2.493  1.00  0.00     0.163 HD
BRANCH  19  22
HETATM   22  C   UNL     1       7.057  -8.924   4.902  1.00  0.00     0.148 C 
BRANCH  22  23
HETATM   23  C   UNL     1       7.708 -10.259   4.694  1.00  0.00    -0.009 A 
HETATM   24  S   UNL     1       9.405 -10.371   4.471  1.00  0.00    -0.106 SA
HETATM   25  C   UNL     1       9.343 -12.075   4.359  1.00  0.00     0.050 A 
HETATM   26  C   UNL     1       8.061 -12.555   4.504  1.00  0.00     0.008 A 
HETATM   27  C   UNL     1       7.116 -11.507   4.698  1.00  0.00     0.015 A 
ENDBRANCH  22  23
ENDBRANCH  19  22
ENDBRANCH   7  18
BRANCH   1  28
HETATM   28  C   UNL     1       5.357  -1.935   0.282  1.00  0.00     0.273 C 
BRANCH  28  29
HETATM   29  C   UNL     1       4.889  -1.100  -0.878  1.00  0.00    -0.031 A 
HETATM   30  C   UNL     1       3.532  -0.776  -1.025  1.00  0.00     0.018 A 
HETATM   31  C   UNL     1       3.092   0.008  -2.101  1.00  0.00    -0.028 A 
HETATM   32  C   UNL     1       4.034   0.504  -3.013  1.00  0.00     0.077 A 
HETATM   33  C   UNL     1       1.635   0.368  -2.204  1.00  0.00     0.051 C 
HETATM   34  C   UNL     1       5.398   0.207  -2.883  1.00  0.00    -0.028 A 
HETATM   35  C   UNL     1       6.428   0.736  -3.842  1.00  0.00     0.051 C 
HETATM   36  C   UNL     1       5.810  -0.607  -1.815  1.00  0.00     0.018 A 
BRANCH  32  37
HETATM   37  O   UNL     1       3.562   1.293  -4.023  1.00  0.00    -0.360 OA
HETATM   38  H   UNL     1       4.290   1.609  -4.581  1.00  0.00     0.217 HD
ENDBRANCH  32  37
ENDBRANCH  28  29
ENDBRANCH   1  28
TORSDOF 7
