REMARK  4 active torsions:
REMARK  status: ('A' for Active; 'I' for Inactive)
REMARK    1  A    between atoms: C_5  and  C_6 
REMARK       I    between atoms: C_6  and  N_7 
REMARK    2  A    between atoms: N_7  and  C_8 
REMARK    3  A    between atoms: C_8  and  N_9 
REMARK    4  A    between atoms: N_9  and  C_10 
ROOT
HETATM    1  C   UNL     1       6.372  -0.090  -0.608  1.00  0.00     0.257 C 
HETATM    2  N   UNL     1       7.350   0.833  -0.962  1.00  0.00    -0.299 N 
HETATM    3  O   UNL     1       5.260   0.165  -0.162  1.00  0.00    -0.267 OA
HETATM    4  H   UNL     1       8.300   0.492  -0.925  1.00  0.00     0.171 HD
ENDROOT
BRANCH   2   5
HETATM    5  C   UNL     1       7.263   2.189  -0.889  1.00  0.00     0.180 C 
HETATM    6  S   UNL     1       8.629   3.058  -0.462  1.00  0.00    -0.040 SA
BRANCH   5   7
HETATM    7  N   UNL     1       6.102   2.847  -1.102  1.00  0.00    -0.318 N 
HETATM    8  H   UNL     1       6.063   3.784  -0.726  1.00  0.00     0.170 HD
BRANCH   7   9
HETATM    9  C   UNL     1       5.170   2.577  -2.119  1.00  0.00     0.129 A 
HETATM   10  N   UNL     1       5.427   1.630  -3.047  1.00  0.00    -0.236 NA
HETATM   11  C   UNL     1       4.545   1.486  -4.067  1.00  0.00     0.033 A 
HETATM   12  C   UNL     1       4.860   0.451  -5.104  1.00  0.00     0.070 C 
HETATM   13  C   UNL     1       3.415   2.286  -4.206  1.00  0.00     0.027 A 
HETATM   14  C   UNL     1       3.167   3.259  -3.248  1.00  0.00     0.006 A 
HETATM   15  C   UNL     1       4.058   3.410  -2.190  1.00  0.00     0.050 A 
ENDBRANCH   7   9
ENDBRANCH   5   7
ENDBRANCH   2   5
BRANCH   1  16
HETATM   16  C   UNL     1       6.841  -1.501  -0.640  1.00  0.00     0.032 A 
HETATM   17  C   UNL     1       6.499  -2.345   0.422  1.00  0.00     0.017 A 
HETATM   18  C   UNL     1       6.991  -3.651   0.464  1.00  0.00     0.007 A 
HETATM   19  C   UNL     1       7.822  -4.128  -0.557  1.00  0.00    -0.062 A 
HETATM   20  C   UNL     1       8.351  -5.532  -0.521  1.00  0.00     0.048 C 
HETATM   21  C   UNL     1       8.130  -3.289  -1.638  1.00  0.00     0.007 A 
HETATM   22  C   UNL     1       7.645  -1.979  -1.681  1.00  0.00     0.017 A 
ENDBRANCH   1  16
TORSDOF 4
