REMARK  9 active torsions:
REMARK  status: ('A' for Active; 'I' for Inactive)
REMARK    1  A    between atoms: N_2  and  C_4 
REMARK    2  A    between atoms: N_2  and  C_35 
REMARK    3  A    between atoms: C_4  and  C_5 
REMARK    4  A    between atoms: N_8  and  C_9 
REMARK    5  A    between atoms: C_12  and  N_13 
REMARK       I    between atoms: N_13  and  C_14 
REMARK       I    between atoms: C_14  and  N_15 
REMARK    6  A    between atoms: N_15  and  C_16 
REMARK    7  A    between atoms: C_19  and  O_20 
REMARK    8  A    between atoms: O_20  and  C_21 
REMARK    9  A    between atoms: C_35  and  C_36 
ROOT
HETATM    1  C   UNL     1       2.112   4.347   3.279  1.00  0.00     0.161 C 
HETATM    2  C   UNL     1       1.580   5.291   2.207  1.00  0.00     0.179 C 
HETATM    3  C   UNL     1       2.459   6.520   2.366  1.00  0.00     0.177 C 
HETATM    4  C   UNL     1       1.610   7.515   3.153  1.00  0.00     0.141 C 
HETATM    5  C   UNL     1       0.238   6.861   3.282  1.00  0.00     0.196 C 
HETATM    6  O   UNL     1       0.224   5.701   2.432  1.00  0.00    -0.379 OA
HETATM    7  O   UNL     1       3.624   6.148   3.124  1.00  0.00    -0.379 OA
HETATM    8  C   UNL     1       3.580   4.731   3.334  1.00  0.00     0.198 C 
ENDROOT
BRANCH   4   9
HETATM    9  N   UNL     1       1.625   8.860   2.593  1.00  0.00    -0.334 N 
HETATM   10  C   UNL     1       1.240   9.380   1.400  1.00  0.00     0.321 C 
HETATM   11  N   UNL     1       0.463   8.599   0.591  1.00  0.00    -0.309 N 
HETATM   12  O   UNL     1       1.618  10.524   1.165  1.00  0.00    -0.247 OA
HETATM   13  H   UNL     1       0.028   7.792   1.005  1.00  0.00     0.170 HD
HETATM   14  H   UNL     1       2.231   9.527   3.061  1.00  0.00     0.164 HD
BRANCH  11  15
HETATM   15  C   UNL     1      -0.057   8.992  -0.668  1.00  0.00     0.036 A 
HETATM   16  C   UNL     1       0.456  10.055  -1.414  1.00  0.00     0.032 A 
HETATM   17  C   UNL     1      -0.144  10.436  -2.617  1.00  0.00     0.039 A 
HETATM   18  C   UNL     1      -1.262   9.757  -3.102  1.00  0.00     0.076 A 
HETATM   19  C   UNL     1      -1.768   8.678  -2.377  1.00  0.00     0.039 A 
HETATM   20  C   UNL     1      -1.157   8.287  -1.176  1.00  0.00     0.032 A 
BRANCH  18  21
HETATM   21  O   UNL     1      -1.803  10.287  -4.251  1.00  0.00    -0.311 OA
BRANCH  21  22
HETATM   22  C   UNL     1      -2.701   9.546  -4.973  1.00  0.00     0.076 A 
HETATM   23  C   UNL     1      -3.987  10.062  -5.134  1.00  0.00     0.037 A 
HETATM   24  C   UNL     1      -4.908   9.390  -5.939  1.00  0.00     0.003 A 
HETATM   25  C   UNL     1      -4.534   8.214  -6.590  1.00  0.00     0.000 A 
HETATM   26  C   UNL     1      -3.239   7.712  -6.443  1.00  0.00     0.003 A 
HETATM   27  C   UNL     1      -2.316   8.384  -5.642  1.00  0.00     0.037 A 
ENDBRANCH  21  22
ENDBRANCH  18  21
ENDBRANCH  11  15
ENDBRANCH   4   9
BRANCH   1  28
HETATM   28  N   UNL     1       1.883   2.945   3.033  1.00  0.00    -0.274 N 
HETATM   29  N   UNL     1       2.529   2.288   2.053  1.00  0.00     0.005 NA
HETATM   30  N   UNL     1       2.191   1.010   2.123  1.00  0.00    -0.161 NA
HETATM   31  C   UNL     1       1.323   0.857   3.171  1.00  0.00     0.095 A 
HETATM   32  C   UNL     1       1.117   2.081   3.768  1.00  0.00     0.139 A 
BRANCH  31  33
HETATM   33  C   UNL     1       0.792  -0.490   3.501  1.00  0.00     0.296 C 
BRANCH  33  34
HETATM   34  N   UNL     1       1.765  -1.614   3.202  1.00  0.00    -0.066 N 
HETATM   35  C   UNL     1       1.075  -2.943   3.129  1.00  0.00     0.270 C 
HETATM   36  H   UNL     1       2.138  -1.405   2.265  1.00  0.00     0.280 HD
BRANCH  34  37
HETATM   37  C   UNL     1       2.957  -1.602   4.134  1.00  0.00     0.273 C 
BRANCH  37  38
HETATM   38  C   UNL     1       3.985  -2.657   3.825  1.00  0.00    -0.033 A 
HETATM   39  C   UNL     1       4.756  -2.586   2.654  1.00  0.00     0.009 A 
HETATM   40  C   UNL     1       5.684  -3.587   2.360  1.00  0.00     0.001 A 
HETATM   41  C   UNL     1       5.856  -4.661   3.230  1.00  0.00     0.000 A 
HETATM   42  C   UNL     1       5.104  -4.737   4.400  1.00  0.00     0.001 A 
HETATM   43  C   UNL     1       4.173  -3.741   4.698  1.00  0.00     0.009 A 
ENDBRANCH  37  38
ENDBRANCH  34  37
ENDBRANCH  33  34
ENDBRANCH  31  33
ENDBRANCH   1  28
TORSDOF 9
