REMARK  5 active torsions:
REMARK  status: ('A' for Active; 'I' for Inactive)
REMARK    1  A    between atoms: C_2  and  O_3 
REMARK    2  A    between atoms: O_3  and  C_4 
REMARK    3  A    between atoms: C_4  and  C_5 
REMARK    4  A    between atoms: C_6  and  C_7 
REMARK    5  A    between atoms: C_22  and  N_23 
ROOT
HETATM    1  C   UNL     1       5.049   0.139  -0.228  1.00  0.00     0.075 A 
HETATM    2  C   UNL     1       6.184   0.723   0.373  1.00  0.00     0.011 A 
HETATM    3  C   UNL     1       7.112  -0.149   0.984  1.00  0.00     0.074 A 
HETATM    4  C   UNL     1       6.866  -1.523   0.972  1.00  0.00     0.096 A 
HETATM    5  N   UNL     1       5.768  -2.067   0.390  1.00  0.00    -0.250 NA
HETATM    6  C   UNL     1       4.868  -1.244  -0.199  1.00  0.00     0.048 A 
HETATM    7  C   UNL     1       3.672  -1.913  -0.813  1.00  0.00     0.071 C 
HETATM    8  C   UNL     1       8.364   0.298   1.652  1.00  0.00     0.260 A 
HETATM    9  O   UNL     1       8.731   1.464   1.692  1.00  0.00    -0.267 OA
HETATM   10  N   UNL     1       9.133  -0.676   2.245  1.00  0.00    -0.312 N 
HETATM   11  C   UNL     1       8.895  -2.023   2.241  1.00  0.00     0.102 A 
HETATM   12  C   UNL     1       7.790  -2.473   1.609  1.00  0.00     0.098 A 
HETATM   13  C   UNL     1       7.490  -3.961   1.529  1.00  0.00     0.025 C 
HETATM   14  N   UNL     1       7.241  -5.195   1.462  1.00  0.00    -0.096 N 
HETATM   15  H   UNL     1       9.993  -0.339   2.660  1.00  0.00     0.170 HD
ENDROOT
BRANCH  11  16
HETATM   16  N   UNL     1       9.823  -2.812   2.875  1.00  0.00    -0.287 NA
HETATM   17  H   UNL     1      10.263  -2.366   3.676  1.00  0.00     0.125 HD
HETATM   18  H   UNL     1       9.527  -3.763   3.091  1.00  0.00     0.125 HD
ENDBRANCH  11  16
BRANCH   2  19
HETATM   19  C   UNL     1       6.358   2.185   0.344  1.00  0.00    -0.024 A 
HETATM   20  C   UNL     1       6.014   2.971   1.456  1.00  0.00     0.014 A 
HETATM   21  C   UNL     1       6.171   4.360   1.426  1.00  0.00     0.024 A 
HETATM   22  C   UNL     1       6.664   4.975   0.279  1.00  0.00     0.034 A 
HETATM   23 CL   UNL     1       6.855   6.685   0.240  1.00  0.00    -0.084 Cl
HETATM   24  C   UNL     1       7.001   4.216  -0.839  1.00  0.00     0.024 A 
HETATM   25  C   UNL     1       6.849   2.827  -0.806  1.00  0.00     0.014 A 
ENDBRANCH   2  19
BRANCH   1  26
HETATM   26  C   UNL     1       4.006   0.974  -0.841  1.00  0.00     0.296 C 
HETATM   27  O   UNL     1       3.160   1.572  -0.203  1.00  0.00    -0.259 OA
BRANCH  26  28
HETATM   28  O   UNL     1       4.153   0.900  -2.183  1.00  0.00    -0.318 OA
BRANCH  28  29
HETATM   29  C   UNL     1       3.181   1.608  -2.969  1.00  0.00     0.174 C 
HETATM   30  C   UNL     1       3.880   2.724  -3.720  1.00  0.00     0.034 C 
ENDBRANCH  28  29
ENDBRANCH  26  28
ENDBRANCH   1  26
TORSDOF 5
