REMARK  6 active torsions:
REMARK  status: ('A' for Active; 'I' for Inactive)
REMARK       I    between atoms: N_1  and  C_2 
REMARK    1  A    between atoms: C_2  and  C_4 
REMARK    2  A    between atoms: C_7  and  N_8 
REMARK       I    between atoms: N_8  and  C_9 
REMARK       I    between atoms: C_9  and  N_11 
REMARK    3  A    between atoms: N_11  and  C_12 
REMARK    4  A    between atoms: C_12  and  C_13 
REMARK    5  A    between atoms: C_17  and  C_19 
REMARK       I    between atoms: C_19  and  N_21 
REMARK    6  A    between atoms: N_21  and  C_22 
ROOT
HETATM    1  C   UNL     1       8.956   0.193   8.204  1.00  0.00    -0.040 A 
HETATM    2  C   UNL     1       8.919   1.589   8.322  1.00  0.00     0.009 A 
HETATM    3  C   UNL     1       9.828   2.250   9.146  1.00  0.00     0.002 A 
HETATM    4  C   UNL     1      10.791   1.522   9.844  1.00  0.00     0.017 A 
HETATM    5  C   UNL     1      10.862   0.126   9.724  1.00  0.00     0.032 A 
HETATM    6  C   UNL     1       9.932  -0.534   8.909  1.00  0.00     0.026 A 
ENDROOT
BRANCH   1   7
HETATM    7  C   UNL     1       7.982  -0.521   7.301  1.00  0.00     0.162 C 
BRANCH   7   8
HETATM    8  N   UNL     1       8.530  -0.691   5.974  1.00  0.00    -0.339 N 
HETATM    9  C   UNL     1       9.192  -1.847   5.618  1.00  0.00     0.320 C 
HETATM   10  N   UNL     1       9.588  -1.795   4.299  1.00  0.00    -0.309 N 
HETATM   11  O   UNL     1       9.349  -2.780   6.395  1.00  0.00    -0.247 OA
HETATM   12  H   UNL     1       9.276  -0.987   3.782  1.00  0.00     0.170 HD
HETATM   13  H   UNL     1       8.792   0.153   5.489  1.00  0.00     0.164 HD
BRANCH  10  14
HETATM   14  C   UNL     1      10.245  -2.795   3.553  1.00  0.00     0.036 A 
HETATM   15  C   UNL     1      10.691  -4.004   4.091  1.00  0.00     0.030 A 
HETATM   16  C   UNL     1      11.311  -4.962   3.278  1.00  0.00     0.019 A 
HETATM   17  C   UNL     1      11.489  -4.719   1.912  1.00  0.00     0.032 A 
HETATM   18  C   UNL     1      11.071  -3.497   1.376  1.00  0.00     0.019 A 
HETATM   19  C   UNL     1      10.451  -2.544   2.191  1.00  0.00     0.030 A 
BRANCH  17  20
HETATM   20  C   UNL     1      12.125  -5.709   1.003  1.00  0.00     0.249 C 
HETATM   21  N   UNL     1      12.106  -7.022   1.383  1.00  0.00    -0.366 N 
HETATM   22  H   UNL     1      12.447  -7.689   0.703  1.00  0.00     0.159 HD
HETATM   23  H   UNL     1      11.516  -7.369   2.125  1.00  0.00     0.159 HD
HETATM   24  O   UNL     1      12.613  -5.374  -0.069  1.00  0.00    -0.268 OA
ENDBRANCH  17  20
ENDBRANCH  10  14
ENDBRANCH   7   8
ENDBRANCH   1   7
BRANCH   5  25
HETATM   25  C   UNL     1      11.927  -0.583  10.501  1.00  0.00     0.256 C 
HETATM   26  O   UNL     1      12.386  -0.011  11.484  1.00  0.00    -0.267 OA
HETATM   27  N   UNL     1      12.316  -1.823  10.022  1.00  0.00    -0.323 N 
HETATM   28  H   UNL     1      11.865  -2.171   9.188  1.00  0.00     0.169 HD
BRANCH  27  29
HETATM   29  C   UNL     1      13.334  -2.655  10.543  1.00  0.00     0.035 A 
HETATM   30  C   UNL     1      14.168  -2.297  11.602  1.00  0.00     0.030 A 
HETATM   31  C   UNL     1      15.169  -3.166  12.047  1.00  0.00     0.010 A 
HETATM   32  C   UNL     1      15.340  -4.418  11.450  1.00  0.00    -0.048 A 
HETATM   33  C   UNL     1      16.452  -5.330  11.903  1.00  0.00     0.069 C 
HETATM   34  C   UNL     1      14.514  -4.793  10.379  1.00  0.00    -0.022 A 
HETATM   35  C   UNL     1      16.244  -6.774  11.435  1.00  0.00     0.274 C 
HETATM   36  N   UNL     1      15.923  -6.824  10.006  1.00  0.00     0.087 N 
HETATM   37  C   UNL     1      14.637  -6.163   9.751  1.00  0.00     0.308 C 
HETATM   38  H   UNL     1      15.857  -7.795   9.707  1.00  0.00     0.316 HD
HETATM   39  C   UNL     1      13.513  -3.908   9.939  1.00  0.00     0.039 A 
ENDBRANCH  27  29
ENDBRANCH   5  25
TORSDOF 6
