REMARK  7 active torsions:
REMARK  status: ('A' for Active; 'I' for Inactive)
REMARK    1  A    between atoms: C_6  and  O_7 
REMARK    2  A    between atoms: O_7  and  C_8 
REMARK    3  A    between atoms: C_8  and  C_9 
REMARK       I    between atoms: C_9  and  N_10 
REMARK    4  A    between atoms: N_10  and  C_11 
REMARK    5  A    between atoms: C_14  and  N_15 
REMARK    6  A    between atoms: N_18  and  C_20 
REMARK    7  A    between atoms: C_20  and  C_21 
ROOT
HETATM    1  C   UNL     1       8.419   1.845  -1.354  1.00  0.00     0.034 A 
HETATM    2  C   UNL     1       7.693   1.744  -2.537  1.00  0.00     0.032 A 
HETATM    3  C   UNL     1       6.733   2.710  -2.855  1.00  0.00     0.031 A 
HETATM    4  C   UNL     1       6.490   3.806  -2.016  1.00  0.00     0.030 A 
HETATM    5  C   UNL     1       7.203   3.878  -0.815  1.00  0.00     0.031 A 
HETATM    6  C   UNL     1       8.138   2.891  -0.473  1.00  0.00     0.032 A 
ENDROOT
BRANCH   1   7
HETATM    7  N   UNL     1       9.382   0.900  -0.975  1.00  0.00    -0.325 N 
HETATM    8  C   UNL     1      10.209   0.120  -1.746  1.00  0.00     0.246 C 
HETATM    9  O   UNL     1      10.787  -0.829  -1.210  1.00  0.00    -0.271 OA
HETATM   10  H   UNL     1       9.510   0.733   0.017  1.00  0.00     0.169 HD
BRANCH   8  11
HETATM   11  C   UNL     1      10.518   0.532  -3.188  1.00  0.00     0.278 C 
BRANCH  11  12
HETATM   12  O   UNL     1       9.870  -0.297  -4.141  1.00  0.00    -0.342 OA
BRANCH  12  13
HETATM   13  C   UNL     1      10.309  -0.145  -5.435  1.00  0.00     0.075 A 
HETATM   14  C   UNL     1      10.237  -1.275  -6.266  1.00  0.00    -0.028 A 
HETATM   15  C   UNL     1      10.655  -1.175  -7.605  1.00  0.00     0.016 A 
HETATM   16  C   UNL     1       9.735  -2.591  -5.740  1.00  0.00     0.051 C 
HETATM   17  C   UNL     1      11.128   0.035  -8.126  1.00  0.00    -0.061 A 
HETATM   18  C   UNL     1      11.612   0.123  -9.543  1.00  0.00     0.048 C 
HETATM   19  C   UNL     1      11.195   1.150  -7.289  1.00  0.00     0.009 A 
HETATM   20  C   UNL     1      10.779   1.065  -5.958  1.00  0.00     0.038 A 
ENDBRANCH  12  13
ENDBRANCH  11  12
ENDBRANCH   8  11
ENDBRANCH   1   7
BRANCH   4  21
HETATM   21  N   UNL     1       5.560   4.763  -2.429  1.00  0.00    -0.378 N 
HETATM   22  C   UNL     1       4.157   4.344  -2.255  1.00  0.00     0.150 C 
HETATM   23  C   UNL     1       3.250   5.203  -3.161  1.00  0.00     0.255 C 
HETATM   24  N   UNL     1       3.480   6.703  -2.929  1.00  0.00    -0.064 N 
HETATM   25  H   UNL     1       3.156   6.908  -1.977  1.00  0.00     0.280 HD
HETATM   26  C   UNL     1       4.965   7.065  -3.008  1.00  0.00     0.255 C 
HETATM   27  C   UNL     1       5.812   6.168  -2.081  1.00  0.00     0.150 C 
BRANCH  24  28
HETATM   28  C   UNL     1       2.672   7.560  -3.876  1.00  0.00     0.273 C 
BRANCH  28  29
HETATM   29  C   UNL     1       1.188   7.422  -3.687  1.00  0.00    -0.033 A 
HETATM   30  C   UNL     1       0.550   8.028  -2.594  1.00  0.00     0.009 A 
HETATM   31  C   UNL     1      -0.826   7.878  -2.408  1.00  0.00     0.001 A 
HETATM   32  C   UNL     1      -1.574   7.121  -3.307  1.00  0.00     0.000 A 
HETATM   33  C   UNL     1      -0.952   6.518  -4.397  1.00  0.00     0.001 A 
HETATM   34  C   UNL     1       0.422   6.667  -4.589  1.00  0.00     0.009 A 
ENDBRANCH  28  29
ENDBRANCH  24  28
ENDBRANCH   4  21
TORSDOF 7
