REMARK  9 active torsions:
REMARK  status: ('A' for Active; 'I' for Inactive)
REMARK    1  A    between atoms: C_5  and  N_6 
REMARK       I    between atoms: N_6  and  C_7 
REMARK    2  A    between atoms: C_7  and  C_8 
REMARK    3  A    between atoms: C_8  and  C_9 
REMARK    4  A    between atoms: C_9  and  C_10 
REMARK       I    between atoms: C_10  and  N_11 
REMARK    5  A    between atoms: N_11  and  C_12 
REMARK    6  A    between atoms: N_11  and  C_29 
REMARK    7  A    between atoms: C_12  and  C_13 
REMARK       I    between atoms: C_13  and  N_14 
REMARK    8  A    between atoms: N_14  and  C_15 
REMARK    9  A    between atoms: C_29  and  C_30 
ROOT
HETATM    1  C   UNL     1       3.148  -6.093  -1.187  1.00  0.00     0.221 C 
HETATM    2  N   UNL     1       2.111  -5.222  -0.830  1.00  0.00    -0.328 N 
HETATM    3  O   UNL     1       4.284  -5.660  -1.425  1.00  0.00    -0.273 OA
ENDROOT
BRANCH   2   4
HETATM    4  C   UNL     1       0.621  -5.548  -0.659  1.00  0.00     0.119 C 
HETATM    5  C   UNL     1       0.005  -6.403  -1.810  1.00  0.00     0.069 C 
HETATM    6  C   UNL     1       0.084  -5.719  -3.152  1.00  0.00     0.237 C 
HETATM    7  N   UNL     1      -0.787  -4.493  -3.098  1.00  0.00    -0.075 N 
HETATM    8  H   UNL     1      -1.752  -4.809  -2.913  1.00  0.00     0.279 HD
HETATM    9  C   UNL     1      -0.835  -3.804  -4.439  1.00  0.00     0.269 C 
HETATM   10  C   UNL     1      -0.399  -3.552  -1.990  1.00  0.00     0.237 C 
HETATM   11  C   UNL     1      -0.303  -4.279  -0.642  1.00  0.00     0.069 C 
BRANCH   4  12
HETATM   12  C   UNL     1       0.284  -6.294   0.678  1.00  0.00     0.246 C 
HETATM   13  N   UNL     1       1.006  -5.973   1.804  1.00  0.00    -0.354 N 
HETATM   14  H   UNL     1       1.741  -5.273   1.748  1.00  0.00     0.162 HD
HETATM   15  O   UNL     1      -0.726  -6.997   0.741  1.00  0.00    -0.271 OA
BRANCH  13  16
HETATM   16  C   UNL     1       0.546  -6.372   3.145  1.00  0.00     0.084 C 
HETATM   17  C   UNL     1       0.584  -7.892   3.399  1.00  0.00     0.025 C 
HETATM   18  C   UNL     1       1.970  -8.445   3.725  1.00  0.00     0.002 C 
HETATM   19  C   UNL     1       2.671  -7.653   4.820  1.00  0.00     0.000 C 
HETATM   20  C   UNL     1       2.708  -6.168   4.484  1.00  0.00     0.002 C 
HETATM   21  C   UNL     1       1.301  -5.621   4.251  1.00  0.00     0.025 C 
ENDBRANCH  13  16
ENDBRANCH   4  12
ENDBRANCH   2   4
BRANCH   2  22
HETATM   22  C   UNL     1       2.601  -3.831  -0.646  1.00  0.00     0.192 C 
BRANCH  22  23
HETATM   23  C   UNL     1       3.419  -3.653   0.584  1.00  0.00     0.070 A 
HETATM   24  O   UNL     1       2.744  -3.520   1.761  1.00  0.00    -0.325 OA
HETATM   25  C   UNL     1       3.673  -3.242   2.716  1.00  0.00     0.142 A 
HETATM   26  C   UNL     1       4.936  -3.232   2.174  1.00  0.00     0.027 A 
HETATM   27  C   UNL     1       4.774  -3.491   0.795  1.00  0.00     0.036 A 
ENDBRANCH  22  23
ENDBRANCH   2  22
BRANCH   1  28
HETATM   28  C   UNL     1       3.012  -7.596  -1.205  1.00  0.00     0.112 C 
BRANCH  28  29
HETATM   29  C   UNL     1       3.196  -8.149   0.191  1.00  0.00     0.112 C 
BRANCH  29  30
HETATM   30  C   UNL     1       4.578  -8.740   0.381  1.00  0.00     0.223 C 
HETATM   31  N   UNL     1       5.576  -7.792   0.287  1.00  0.00    -0.310 N 
HETATM   32  H   UNL     1       5.351  -6.841   0.025  1.00  0.00     0.170 HD
HETATM   33  O   UNL     1       4.700  -9.938   0.604  1.00  0.00    -0.273 OA
BRANCH  31  34
HETATM   34  C   UNL     1       6.920  -8.058   0.464  1.00  0.00     0.160 A 
HETATM   35  N   UNL     1       7.454  -9.240   0.774  1.00  0.00    -0.110 NA
HETATM   36  O   UNL     1       8.818  -9.043   0.848  1.00  0.00    -0.216 OA
HETATM   37  C   UNL     1       9.098  -7.741   0.591  1.00  0.00     0.078 A 
HETATM   38  C   UNL     1      10.518  -7.352   0.627  1.00  0.00     0.079 C 
HETATM   39  C   UNL     1       7.927  -7.072   0.339  1.00  0.00     0.087 A 
ENDBRANCH  31  34
ENDBRANCH  29  30
ENDBRANCH  28  29
ENDBRANCH   1  28
TORSDOF 9
