REMARK  4 active torsions:
REMARK  status: ('A' for Active; 'I' for Inactive)
REMARK    1  A    between atoms: C_6  and  C_7 
REMARK    2  A    between atoms: C_7  and  C_8 
REMARK    3  A    between atoms: N_10  and  C_11 
REMARK    4  A    between atoms: C_19  and  C_20 
ROOT
HETATM    1  C   UNL     1       4.283   1.410   4.246  1.00  0.00     0.149 C 
HETATM    2  N   UNL     1       3.891   2.643   3.936  1.00  0.00    -0.150 NA
HETATM    3  N   UNL     1       4.434   3.402   4.927  1.00  0.00    -0.218 N 
HETATM    4  C   UNL     1       4.987   2.546   5.885  1.00  0.00     0.136 C 
HETATM    5  N   UNL     1       4.949   1.307   5.428  1.00  0.00    -0.216 NA
ENDROOT
BRANCH   1   6
HETATM    6  C   UNL     1       3.941   0.233   3.401  1.00  0.00     0.087 C 
BRANCH   6   7
HETATM    7  C   UNL     1       4.911   0.000   2.218  1.00  0.00    -0.004 C 
HETATM    8  C   UNL     1       4.955   1.151   1.196  1.00  0.00     0.032 C 
HETATM    9  C   UNL     1       3.672   1.276   0.386  1.00  0.00     0.234 C 
HETATM   10  N   UNL     1       3.401  -0.034  -0.315  1.00  0.00    -0.075 N 
HETATM   11  C   UNL     1       2.195   0.061  -1.216  1.00  0.00     0.269 C 
HETATM   12  H   UNL     1       4.201  -0.218  -0.937  1.00  0.00     0.279 HD
HETATM   13  C   UNL     1       3.294  -1.201   0.633  1.00  0.00     0.234 C 
HETATM   14  C   UNL     1       4.564  -1.304   1.474  1.00  0.00     0.032 C 
ENDBRANCH   6   7
ENDBRANCH   1   6
BRANCH   3  15
HETATM   15  C   UNL     1       4.350   4.821   4.844  1.00  0.00     0.062 A 
HETATM   16  C   UNL     1       5.201   5.665   5.567  1.00  0.00     0.058 A 
HETATM   17  C   UNL     1       5.075   7.055   5.451  1.00  0.00     0.074 A 
HETATM   18 CL   UNL     1       6.128   8.061   6.369  1.00  0.00    -0.081 Cl
HETATM   19  C   UNL     1       4.117   7.608   4.607  1.00  0.00     0.138 A 
HETATM   20  F   UNL     1       3.987   8.935   4.491  1.00  0.00    -0.204 F 
HETATM   21  C   UNL     1       3.284   6.783   3.862  1.00  0.00     0.046 A 
HETATM   22  C   UNL     1       3.403   5.394   3.973  1.00  0.00     0.035 A 
ENDBRANCH   3  15
BRANCH   4  23
HETATM   23  C   UNL     1       5.434   2.895   7.268  1.00  0.00     0.084 C 
HETATM   24  C   UNL     1       5.898   1.662   8.056  1.00  0.00     0.244 C 
HETATM   25  N   UNL     1       5.729   2.047   9.503  1.00  0.00    -0.074 N 
HETATM   26  H   UNL     1       5.302   1.270  10.029  1.00  0.00     0.277 HD
HETATM   27  H   UNL     1       6.640   2.222   9.952  1.00  0.00     0.277 HD
HETATM   28  C   UNL     1       4.867   3.270   9.566  1.00  0.00     0.233 C 
HETATM   29  C   UNL     1       4.308   3.412   8.160  1.00  0.00     0.041 C 
ENDBRANCH   4  23
TORSDOF 4
