REMARK  5 active torsions:
REMARK  status: ('A' for Active; 'I' for Inactive)
REMARK    1  A    between atoms: C_4  and  C_5 
REMARK    2  A    between atoms: C_5  and  N_6 
REMARK    3  A    between atoms: N_6  and  C_9 
REMARK    4  A    between atoms: C_12  and  O_13 
REMARK    5  A    between atoms: O_13  and  C_14 
ROOT
HETATM    1  C   UNL     1      10.797   4.868  -2.095  1.00  0.00     0.164 A 
HETATM    2  N   UNL     1       9.983   5.922  -2.314  1.00  0.00    -0.236 NA
HETATM    3  C   UNL     1      10.587   7.109  -2.577  1.00  0.00     0.142 A 
HETATM    4  C   UNL     1      11.963   7.288  -2.620  1.00  0.00     0.062 A 
HETATM    5  C   UNL     1      12.522   8.570  -2.907  1.00  0.00     0.101 C 
HETATM    6  N   UNL     1      12.973   9.613  -3.138  1.00  0.00    -0.191 NA
HETATM    7  C   UNL     1      12.774   6.180  -2.375  1.00  0.00     0.028 A 
HETATM    8  C   UNL     1      12.181   4.948  -2.105  1.00  0.00     0.059 A 
ENDROOT
BRANCH   1   9
HETATM    9  O   UNL     1      10.258   3.631  -1.812  1.00  0.00    -0.329 OA
BRANCH   9  10
HETATM   10  C   UNL     1       8.845   3.516  -2.023  1.00  0.00     0.130 C 
HETATM   11  C   UNL     1       8.581   2.050  -2.400  1.00  0.00     0.034 C 
HETATM   12  C   UNL     1       8.972   1.090  -1.272  1.00  0.00     0.035 C 
HETATM   13  C   UNL     1       8.310   1.431   0.067  1.00  0.00     0.186 C 
HETATM   14  C   UNL     1       8.460   2.916   0.419  1.00  0.00     0.035 C 
HETATM   15  C   UNL     1       8.088   3.857  -0.731  1.00  0.00     0.034 C 
BRANCH  13  16
HETATM   16  N   UNL     1       6.855   1.086   0.034  1.00  0.00    -0.065 N 
HETATM   17  H   UNL     1       6.353   1.513  -0.755  1.00  0.00     0.278 HD
HETATM   18  H   UNL     1       6.368   1.481   0.856  1.00  0.00     0.278 HD
BRANCH  16  19
HETATM   19  C   UNL     1       6.510  -0.383   0.057  1.00  0.00     0.299 C 
BRANCH  19  20
HETATM   20  C   UNL     1       5.049  -0.568   0.317  1.00  0.00     0.101 A 
HETATM   21  N   UNL     1       4.238   0.440   0.570  1.00  0.00    -0.249 NA
HETATM   22  C   UNL     1       2.951  -0.044   0.775  1.00  0.00     0.038 A 
HETATM   23  C   UNL     1       1.851   0.911   1.077  1.00  0.00     0.071 C 
HETATM   24  C   UNL     1       2.827  -1.418   0.673  1.00  0.00     0.078 A 
HETATM   25  S   UNL     1       4.344  -2.126   0.311  1.00  0.00    -0.083 SA
ENDBRANCH  19  20
ENDBRANCH  16  19
ENDBRANCH  13  16
ENDBRANCH   9  10
ENDBRANCH   1   9
TORSDOF 5
