REMARK  6 active torsions:
REMARK  status: ('A' for Active; 'I' for Inactive)
REMARK    1  A    between atoms: C_2  and  O_3 
REMARK    2  A    between atoms: O_3  and  C_4 
REMARK    3  A    between atoms: C_4  and  C_5 
REMARK    4  A    between atoms: C_8  and  C_9 
REMARK    5  A    between atoms: C_9  and  N_10 
REMARK    6  A    between atoms: N_10  and  C_11 
ROOT
HETATM    1  N   UNL     1       3.751   7.499   4.073  1.00  0.00    -0.220 N 
HETATM    2  H   UNL     1       3.213   6.754   4.493  1.00  0.00     0.178 HD
ENDROOT
BRANCH   1   3
HETATM    3  C   UNL     1       4.622   7.076   2.995  1.00  0.00     0.176 C 
BRANCH   3   4
HETATM    4  C   UNL     1       4.037   5.863   2.315  1.00  0.00    -0.040 A 
HETATM    5  C   UNL     1       2.981   6.002   1.404  1.00  0.00     0.009 A 
HETATM    6  C   UNL     1       2.451   4.884   0.758  1.00  0.00     0.010 A 
HETATM    7  C   UNL     1       2.956   3.603   1.019  1.00  0.00    -0.035 A 
HETATM    8  C   UNL     1       4.001   3.462   1.940  1.00  0.00     0.010 A 
HETATM    9  C   UNL     1       4.533   4.581   2.587  1.00  0.00     0.009 A 
BRANCH   7  10
HETATM   10  C   UNL     1       2.408   2.408   0.283  1.00  0.00     0.206 C 
BRANCH  10  11
HETATM   11  O   UNL     1       2.904   2.448  -1.051  1.00  0.00    -0.382 OA
BRANCH  11  12
HETATM   12  C   UNL     1       2.372   1.426  -1.895  1.00  0.00     0.113 C 
HETATM   13  C   UNL     1       3.068   0.093  -1.637  1.00  0.00     0.039 C 
HETATM   14  C   UNL     1       2.607   1.873  -3.334  1.00  0.00     0.039 C 
ENDBRANCH  11  12
ENDBRANCH  10  11
ENDBRANCH   7  10
ENDBRANCH   3   4
ENDBRANCH   1   3
BRANCH   1  15
HETATM   15  C   UNL     1       4.054   8.582   4.841  1.00  0.00     0.704 A 
HETATM   16  N   UNL     1       5.013   9.401   4.546  1.00  0.00    -0.064 NA
HETATM   17  C   UNL     1       5.260  10.490   5.397  1.00  0.00     0.091 A 
HETATM   18  C   UNL     1       4.508  10.729   6.548  1.00  0.00     0.062 A 
HETATM   19  C   UNL     1       6.298  11.370   5.084  1.00  0.00     0.033 A 
HETATM   20  C   UNL     1       3.422   9.784   6.845  1.00  0.00     0.272 A 
HETATM   21  C   UNL     1       4.775  11.820   7.382  1.00  0.00     0.019 A 
HETATM   22  O   UNL     1       2.694   9.911   7.823  1.00  0.00    -0.267 OA
HETATM   23  N   UNL     1       3.276   8.751   5.954  1.00  0.00    -0.154 N 
HETATM   24  H   UNL     1       2.515   8.120   6.139  1.00  0.00     0.187 HD
HETATM   25  C   UNL     1       5.815  12.689   7.057  1.00  0.00     0.001 A 
HETATM   26  C   UNL     1       6.576  12.465   5.909  1.00  0.00     0.002 A 
ENDBRANCH   1  15
TORSDOF 6
