REMARK  6 active torsions:
REMARK  status: ('A' for Active; 'I' for Inactive)
REMARK    1  A    between atoms: O_2  and  C_3 
REMARK    2  A    between atoms: C_3  and  C_4 
REMARK       I    between atoms: C_4  and  N_6 
REMARK    3  A    between atoms: N_6  and  C_7 
REMARK    4  A    between atoms: C_12  and  C_13 
REMARK    5  A    between atoms: C_15  and  N_16 
REMARK    6  A    between atoms: N_16  and  C_17 
ROOT
HETATM    1  C   UNL     1       6.620  -0.775   1.854  1.00  0.00     0.164 A 
HETATM    2  N   UNL     1       5.292  -0.653   1.695  1.00  0.00    -0.210 NA
HETATM    3  C   UNL     1       4.544  -1.771   1.760  1.00  0.00     0.143 A 
HETATM    4  C   UNL     1       5.117  -3.042   1.947  1.00  0.00     0.039 A 
HETATM    5  C   UNL     1       4.400  -4.264   2.033  1.00  0.00     0.018 A 
HETATM    6  C   UNL     1       5.068  -5.475   2.198  1.00  0.00     0.001 A 
HETATM    7  C   UNL     1       6.452  -5.482   2.287  1.00  0.00     0.002 A 
HETATM    8  C   UNL     1       7.156  -4.276   2.223  1.00  0.00     0.032 A 
HETATM    9  C   UNL     1       6.512  -3.056   2.061  1.00  0.00     0.073 A 
HETATM   10  N   UNL     1       7.253  -1.946   2.026  1.00  0.00    -0.228 NA
ENDROOT
BRANCH   1  11
HETATM   11  C   UNL     1       7.434   0.462   1.852  1.00  0.00     0.039 A 
HETATM   12  C   UNL     1       7.036   1.669   1.210  1.00  0.00     0.049 A 
HETATM   13  C   UNL     1       7.885   2.787   1.257  1.00  0.00     0.030 A 
HETATM   14  C   UNL     1       9.110   2.740   1.925  1.00  0.00     0.002 A 
HETATM   15  C   UNL     1       9.512   1.573   2.554  1.00  0.00     0.001 A 
HETATM   16  C   UNL     1       8.685   0.451   2.514  1.00  0.00     0.018 A 
BRANCH  12  17
HETATM   17  N   UNL     1       5.786   1.720   0.536  1.00  0.00    -0.324 N 
HETATM   18  C   UNL     1       5.282   2.723  -0.276  1.00  0.00     0.245 C 
HETATM   19  O   UNL     1       5.862   3.763  -0.579  1.00  0.00    -0.271 OA
HETATM   20  H   UNL     1       5.197   0.900   0.685  1.00  0.00     0.169 HD
BRANCH  18  21
HETATM   21  C   UNL     1       3.887   2.398  -0.850  1.00  0.00     0.270 C 
BRANCH  21  22
HETATM   22  O   UNL     1       2.883   3.392  -0.700  1.00  0.00    -0.387 OA
HETATM   23  C   UNL     1       3.079   4.516  -1.546  1.00  0.00     0.202 C 
ENDBRANCH  21  22
ENDBRANCH  18  21
ENDBRANCH  12  17
ENDBRANCH   1  11
BRANCH   3  24
HETATM   24  N   UNL     1       3.134  -1.655   1.632  1.00  0.00    -0.340 N 
HETATM   25  H   UNL     1       2.801  -2.304   0.927  1.00  0.00     0.167 HD
BRANCH  24  26
HETATM   26  C   UNL     1       2.354  -0.475   1.679  1.00  0.00     0.034 A 
HETATM   27  C   UNL     1       2.711   0.625   2.473  1.00  0.00     0.032 A 
HETATM   28  C   UNL     1       1.947   1.799   2.513  1.00  0.00     0.034 A 
HETATM   29  C   UNL     1       0.780   1.818   1.750  1.00  0.00     0.062 A 
HETATM   30  N   UNL     1      -0.160   2.793   1.544  1.00  0.00    -0.278 N 
HETATM   31  C   UNL     1       0.354   0.733   0.996  1.00  0.00     0.013 A 
HETATM   32  H   UNL     1      -0.161   3.737   1.914  1.00  0.00     0.189 HD
HETATM   33  N   UNL     1      -1.187   2.409   0.763  1.00  0.00    -0.186 NA
HETATM   34  C   UNL     1      -0.863   1.160   0.420  1.00  0.00     0.152 A 
HETATM   35  C   UNL     1       1.140  -0.435   0.968  1.00  0.00     0.044 A 
ENDBRANCH  24  26
ENDBRANCH   3  24
TORSDOF 6
