REMARK  6 active torsions:
REMARK  status: ('A' for Active; 'I' for Inactive)
REMARK    1  A    between atoms: N_1  and  C_2 
REMARK    2  A    between atoms: C_6  and  C_8 
REMARK    3  A    between atoms: C_13  and  C_18 
REMARK    4  A    between atoms: C_24  and  C_28 
REMARK       I    between atoms: C_28  and  N_30 
REMARK    5  A    between atoms: N_30  and  C_31 
REMARK    6  A    between atoms: C_31  and  C_32 
ROOT
HETATM    1  C   UNL     1       5.705  -8.932   0.073  1.00  0.00     0.084 C 
HETATM    2  C   UNL     1       6.623  -9.586   1.105  1.00  0.00     0.188 C 
HETATM    3  O   UNL     1       6.554 -11.020   1.117  1.00  0.00    -0.350 OA
HETATM    4  C   UNL     1       6.562 -11.619  -0.114  1.00  0.00     0.075 A 
HETATM    5  C   UNL     1       6.743 -13.002  -0.118  1.00  0.00     0.038 A 
HETATM    6  C   UNL     1       6.710 -13.716  -1.320  1.00  0.00     0.020 A 
HETATM    7  C   UNL     1       6.508 -13.042  -2.530  1.00  0.00     0.032 A 
HETATM    8  C   UNL     1       6.307 -11.653  -2.513  1.00  0.00     0.027 A 
HETATM    9  C   UNL     1       6.316 -10.936  -1.307  1.00  0.00    -0.023 A 
HETATM   10  C   UNL     1       6.071  -9.452  -1.318  1.00  0.00     0.056 C 
ENDROOT
BRANCH   1  11
HETATM   11  C   UNL     1       4.241  -9.125   0.366  1.00  0.00     0.111 A 
HETATM   12  N   UNL     1       3.283  -8.251   0.120  1.00  0.00    -0.233 NA
HETATM   13  C   UNL     1       2.112  -8.871   0.481  1.00  0.00     0.085 A 
HETATM   14  C   UNL     1       0.791  -8.413   0.415  1.00  0.00     0.035 A 
HETATM   15  C   UNL     1       2.357 -10.143   0.975  1.00  0.00     0.063 A 
HETATM   16  C   UNL     1      -0.241  -9.265   0.847  1.00  0.00     0.016 A 
HETATM   17  C   UNL     1       0.012 -10.561   1.343  1.00  0.00    -0.005 A 
HETATM   18  C   UNL     1       1.350 -11.005   1.415  1.00  0.00     0.045 A 
HETATM   19  N   UNL     1       3.717 -10.279   0.899  1.00  0.00    -0.342 N 
HETATM   20  H   UNL     1       4.247 -11.098   1.167  1.00  0.00     0.167 HD
BRANCH  17  21
HETATM   21  C   UNL     1      -1.081 -11.453   1.787  1.00  0.00     0.071 A 
HETATM   22  C   UNL     1      -2.317 -11.488   1.173  1.00  0.00     0.052 A 
HETATM   23  C   UNL     1      -3.227 -12.375   1.695  1.00  0.00     0.122 A 
HETATM   24  N   UNL     1      -2.965 -13.177   2.741  1.00  0.00    -0.231 NA
HETATM   25  C   UNL     1      -1.739 -13.092   3.258  1.00  0.00     0.199 A 
HETATM   26  N   UNL     1      -0.788 -12.257   2.836  1.00  0.00    -0.218 NA
BRANCH  25  27
HETATM   27  N   UNL     1      -1.447 -13.892   4.344  1.00  0.00    -0.271 NA
HETATM   28  H   UNL     1      -2.306 -14.135   4.816  1.00  0.00     0.127 HD
HETATM   29  H   UNL     1      -0.724 -13.452   4.895  1.00  0.00     0.127 HD
ENDBRANCH  25  27
ENDBRANCH  17  21
ENDBRANCH   1  11
BRANCH   7  30
HETATM   30  C   UNL     1       6.454 -13.741  -3.848  1.00  0.00     0.251 C 
HETATM   31  O   UNL     1       5.911 -13.196  -4.804  1.00  0.00    -0.268 OA
HETATM   32  N   UNL     1       7.053 -14.977  -3.927  1.00  0.00    -0.353 N 
HETATM   33  H   UNL     1       7.537 -15.373  -3.137  1.00  0.00     0.163 HD
BRANCH  32  34
HETATM   34  C   UNL     1       7.029 -15.764  -5.140  1.00  0.00     0.161 C 
BRANCH  34  35
HETATM   35  C   UNL     1       6.276 -17.049  -4.919  1.00  0.00    -0.041 A 
HETATM   36  C   UNL     1       4.877 -17.071  -5.023  1.00  0.00     0.009 A 
HETATM   37  C   UNL     1       4.169 -18.254  -4.809  1.00  0.00     0.001 A 
HETATM   38  C   UNL     1       4.851 -19.424  -4.478  1.00  0.00     0.000 A 
HETATM   39  C   UNL     1       6.239 -19.411  -4.357  1.00  0.00     0.001 A 
HETATM   40  C   UNL     1       6.950 -18.229  -4.574  1.00  0.00     0.009 A 
ENDBRANCH  34  35
ENDBRANCH  32  34
ENDBRANCH   7  30
TORSDOF 6
