REMARK  8 active torsions:
REMARK  status: ('A' for Active; 'I' for Inactive)
REMARK    1  A    between atoms: C_2  and  C_3 
REMARK    2  A    between atoms: C_3  and  C_4 
REMARK    3  A    between atoms: C_4  and  N_5 
REMARK       I    between atoms: N_5  and  C_6 
REMARK    4  A    between atoms: C_6  and  C_7 
REMARK    5  A    between atoms: C_14  and  S_15 
REMARK    6  A    between atoms: S_15  and  N_16 
REMARK    7  A    between atoms: N_16  and  C_17 
REMARK    8  A    between atoms: C_19  and  O_20 
ROOT
HETATM    1  C   UNL     1       7.524   1.916  -0.836  1.00  0.00     0.098 A 
HETATM    2  C   UNL     1       8.886   2.300  -0.367  1.00  0.00     0.201 A 
HETATM    3  O   UNL     1       9.240   3.474  -0.291  1.00  0.00    -0.286 OA
HETATM    4  C   UNL     1       9.834   1.213   0.001  1.00  0.00     0.043 A 
HETATM    5  C   UNL     1       9.415  -0.124  -0.115  1.00  0.00     0.046 A 
HETATM    6  N   UNL     1       8.130  -0.407  -0.589  1.00  0.00    -0.364 N 
HETATM    7  C   UNL     1      11.122   1.528   0.445  1.00  0.00     0.043 A 
HETATM    8  C   UNL     1      12.006   0.490   0.750  1.00  0.00     0.081 A 
HETATM    9  C   UNL     1      11.607  -0.846   0.641  1.00  0.00     0.027 A 
HETATM   10  C   UNL     1      10.313  -1.148   0.201  1.00  0.00     0.032 A 
HETATM   11  C   UNL     1       7.254   0.601  -0.902  1.00  0.00     0.109 A 
HETATM   12  H   UNL     1       7.791  -1.363  -0.585  1.00  0.00     0.165 HD
ENDROOT
BRANCH   8  13
HETATM   13  S   UNL     1      13.641   0.896   1.325  1.00  0.00     0.263 S 
HETATM   14  O   UNL     1      13.536   2.144   2.049  1.00  0.00    -0.200 OA
HETATM   15  O   UNL     1      14.208  -0.285   1.939  1.00  0.00    -0.200 OA
BRANCH  13  16
HETATM   16  N   UNL     1      14.463   1.241  -0.110  1.00  0.00    -0.281 N 
HETATM   17  H   UNL     1      14.268   2.180  -0.452  1.00  0.00     0.179 HD
BRANCH  16  18
HETATM   18  C   UNL     1      14.623   0.207  -1.075  1.00  0.00     0.045 A 
HETATM   19  C   UNL     1      15.555  -0.809  -0.849  1.00  0.00     0.066 A 
HETATM   20  C   UNL     1      15.710  -1.833  -1.783  1.00  0.00     0.070 A 
HETATM   21  C   UNL     1      14.899  -1.849  -2.921  1.00  0.00     0.037 A 
HETATM   22  C   UNL     1      13.959  -0.841  -3.139  1.00  0.00     0.005 A 
HETATM   23  C   UNL     1      13.822   0.194  -2.216  1.00  0.00     0.030 A 
BRANCH  20  24
HETATM   24  O   UNL     1      16.600  -2.868  -1.698  1.00  0.00    -0.356 OA
HETATM   25  C   UNL     1      17.577  -2.787  -0.665  1.00  0.00     0.210 C 
ENDBRANCH  20  24
ENDBRANCH  16  18
ENDBRANCH  13  16
ENDBRANCH   8  13
BRANCH   1  26
HETATM   26  C   UNL     1       6.466   2.883  -1.251  1.00  0.00     0.257 C 
HETATM   27  N   UNL     1       6.818   4.206  -1.174  1.00  0.00    -0.357 N 
HETATM   28  H   UNL     1       7.744   4.443  -0.815  1.00  0.00     0.162 HD
HETATM   29  O   UNL     1       5.367   2.503  -1.645  1.00  0.00    -0.267 OA
BRANCH  27  30
HETATM   30  C   UNL     1       5.940   5.279  -1.585  1.00  0.00     0.123 C 
BRANCH  30  31
HETATM   31  C   UNL     1       4.951   5.665  -0.488  1.00  0.00     0.019 C 
BRANCH  31  32
HETATM   32  C   UNL     1       4.065   6.828  -0.932  1.00  0.00    -0.003 C 
HETATM   33  C   UNL     1       3.065   7.215   0.145  1.00  0.00     0.005 C 
ENDBRANCH  31  32
ENDBRANCH  30  31
ENDBRANCH  27  30
ENDBRANCH   1  26
TORSDOF 8
