REMARK  7 active torsions:
REMARK  status: ('A' for Active; 'I' for Inactive)
REMARK    1  A    between atoms: O_2  and  C_3 
REMARK    2  A    between atoms: C_5  and  C_6 
REMARK    3  A    between atoms: C_6  and  N_7 
REMARK    4  A    between atoms: C_6  and  C_13 
REMARK    5  A    between atoms: C_13  and  N_14 
REMARK       I    between atoms: N_14  and  C_15 
REMARK       I    between atoms: C_15  and  N_16 
REMARK    6  A    between atoms: N_16  and  C_17 
REMARK    7  A    between atoms: C_18  and  O_19 
ROOT
HETATM    1  N   UNL     1       6.091   2.003  -5.224  1.00  0.00    -0.341 N 
HETATM    2  C   UNL     1       5.758   2.417  -6.479  1.00  0.00     0.316 C 
HETATM    3  N   UNL     1       6.651   3.293  -7.005  1.00  0.00    -0.332 N 
HETATM    4  O   UNL     1       4.752   2.016  -7.057  1.00  0.00    -0.247 OA
HETATM    5  H   UNL     1       6.885   2.473  -4.807  1.00  0.00     0.164 HD
HETATM    6  H   UNL     1       7.263   3.787  -6.372  1.00  0.00     0.165 HD
ENDROOT
BRANCH   1   7
HETATM    7  C   UNL     1       5.136   1.400  -4.298  1.00  0.00     0.162 C 
BRANCH   7   8
HETATM    8  C   UNL     1       4.627  -0.037  -4.656  1.00  0.00     0.238 C 
BRANCH   8   9
HETATM    9  C   UNL     1       4.068  -0.783  -3.454  1.00  0.00    -0.023 A 
HETATM   10  C   UNL     1       4.263  -2.171  -3.346  1.00  0.00     0.046 A 
HETATM   11  C   UNL     1       3.737  -2.906  -2.278  1.00  0.00     0.068 A 
HETATM   12  C   UNL     1       3.013  -2.248  -1.287  1.00  0.00     0.037 A 
HETATM   13  C   UNL     1       2.817  -0.869  -1.368  1.00  0.00     0.003 A 
HETATM   14  C   UNL     1       3.336  -0.142  -2.440  1.00  0.00     0.009 A 
BRANCH  11  15
HETATM   15  O   UNL     1       3.999  -4.246  -2.330  1.00  0.00    -0.356 OA
HETATM   16  C   UNL     1       3.510  -5.041  -1.254  1.00  0.00     0.210 C 
ENDBRANCH  11  15
ENDBRANCH   8   9
BRANCH   8  17
HETATM   17  N   UNL     1       3.680   0.001  -5.855  1.00  0.00    -0.061 N 
HETATM   18  H   UNL     1       4.123   0.683  -6.503  1.00  0.00     0.280 HD
HETATM   19  C   UNL     1       2.284   0.508  -5.646  1.00  0.00     0.236 C 
HETATM   20  C   UNL     1       1.442  -0.741  -5.509  1.00  0.00     0.029 C 
HETATM   21  C   UNL     1       2.134  -1.786  -6.366  1.00  0.00     0.029 C 
HETATM   22  C   UNL     1       3.547  -1.285  -6.623  1.00  0.00     0.236 C 
ENDBRANCH   8  17
ENDBRANCH   7   8
ENDBRANCH   1   7
BRANCH   3  23
HETATM   23  C   UNL     1       6.411   3.964  -8.276  1.00  0.00     0.149 C 
HETATM   24  C   UNL     1       5.278   5.045  -8.228  1.00  0.00     0.149 C 
HETATM   25  C   UNL     1       5.959   6.362  -7.811  1.00  0.00     0.073 C 
HETATM   26  C   UNL     1       7.340   6.168  -8.355  1.00  0.00    -0.047 A 
HETATM   27  C   UNL     1       7.594   4.818  -8.634  1.00  0.00    -0.026 A 
HETATM   28  C   UNL     1       8.313   7.134  -8.549  1.00  0.00     0.008 A 
HETATM   29  C   UNL     1       8.826   4.411  -9.121  1.00  0.00     0.010 A 
HETATM   30  C   UNL     1       9.808   5.381  -9.333  1.00  0.00     0.001 A 
HETATM   31  C   UNL     1       9.554   6.732  -9.048  1.00  0.00     0.001 A 
BRANCH  24  32
HETATM   32  O   UNL     1       4.206   4.729  -7.343  1.00  0.00    -0.393 OA
HETATM   33  H   UNL     1       3.942   3.813  -7.552  1.00  0.00     0.210 HD
ENDBRANCH  24  32
ENDBRANCH   3  23
TORSDOF 7
