REMARK  8 active torsions:
REMARK  status: ('A' for Active; 'I' for Inactive)
REMARK    1  A    between atoms: C_2  and  C_3 
REMARK    2  A    between atoms: C_6  and  C_7 
REMARK    3  A    between atoms: C_11  and  C_12 
REMARK    4  A    between atoms: C_12  and  C_13 
REMARK    5  A    between atoms: C_13  and  C_14 
REMARK    6  A    between atoms: C_14  and  O_15 
REMARK    7  A    between atoms: C_20  and  C_21 
REMARK       I    between atoms: C_21  and  N_22 
REMARK    8  A    between atoms: N_22  and  C_23 
ROOT
HETATM    1  C   UNL     1       3.552   5.040  -2.555  1.00  0.00     0.202 C 
HETATM    2  N   UNL     1       2.407   5.891  -2.232  1.00  0.00    -0.083 N 
HETATM    3  C   UNL     1       2.520   7.164  -1.750  1.00  0.00     0.726 A 
HETATM    4  N   UNL     1       1.325   7.670  -1.579  1.00  0.00    -0.046 NA
HETATM    5  C   UNL     1       0.497   6.665  -2.026  1.00  0.00     0.166 A 
HETATM    6  N   UNL     1       1.119   5.556  -2.459  1.00  0.00    -0.140 NA
HETATM    7  N   UNL     1       3.745   7.697  -1.587  1.00  0.00    -0.192 N 
HETATM    8  C   UNL     1       4.896   7.111  -2.114  1.00  0.00     0.037 C 
HETATM    9  C   UNL     1       6.136   7.972  -2.072  1.00  0.00     0.070 C 
HETATM   10  C   UNL     1       4.853   5.847  -2.614  1.00  0.00     0.062 C 
HETATM   11  H   UNL     1       3.802   8.685  -1.351  1.00  0.00     0.184 HD
ENDROOT
BRANCH  10  12
HETATM   12  C   UNL     1       6.022   5.287  -3.369  1.00  0.00     0.256 C 
HETATM   13  N   UNL     1       6.228   3.933  -3.222  1.00  0.00    -0.323 N 
HETATM   14  H   UNL     1       5.609   3.409  -2.621  1.00  0.00     0.169 HD
HETATM   15  O   UNL     1       6.680   6.028  -4.094  1.00  0.00    -0.267 OA
BRANCH  13  16
HETATM   16  C   UNL     1       7.243   3.147  -3.809  1.00  0.00     0.035 A 
HETATM   17  C   UNL     1       8.354   3.670  -4.473  1.00  0.00     0.031 A 
HETATM   18  C   UNL     1       9.327   2.816  -5.005  1.00  0.00     0.026 A 
HETATM   19  C   UNL     1       9.183   1.437  -4.889  1.00  0.00     0.034 A 
HETATM   20 CL   UNL     1      10.377   0.389  -5.549  1.00  0.00    -0.084 Cl
HETATM   21  C   UNL     1       8.077   0.901  -4.237  1.00  0.00     0.026 A 
HETATM   22  C   UNL     1       7.116   1.755  -3.689  1.00  0.00     0.031 A 
ENDBRANCH  13  16
ENDBRANCH  10  12
BRANCH   1  23
HETATM   23  C   UNL     1       3.623   3.887  -1.552  1.00  0.00    -0.028 A 
HETATM   24  C   UNL     1       3.244   2.592  -1.944  1.00  0.00     0.010 A 
HETATM   25  C   UNL     1       3.458   1.503  -1.095  1.00  0.00     0.007 A 
HETATM   26  C   UNL     1       4.035   1.687   0.166  1.00  0.00    -0.059 A 
HETATM   27  C   UNL     1       4.355   2.983   0.585  1.00  0.00     0.007 A 
HETATM   28  C   UNL     1       4.143   4.072  -0.259  1.00  0.00     0.010 A 
BRANCH  26  29
HETATM   29  C   UNL     1       4.349   0.506   1.051  1.00  0.00     0.034 C 
HETATM   30  C   UNL     1       5.817   0.114   0.955  1.00  0.00     0.010 C 
ENDBRANCH  26  29
ENDBRANCH   1  23
BRANCH   5  31
HETATM   31  C   UNL     1      -0.978   6.824  -2.080  1.00  0.00     0.085 C 
BRANCH  31  32
HETATM   32  C   UNL     1      -1.446   7.668  -3.265  1.00  0.00     0.034 C 
BRANCH  32  33
HETATM   33  C   UNL     1      -1.160   7.016  -4.613  1.00  0.00     0.164 C 
BRANCH  33  34
HETATM   34  O   UNL     1      -1.706   7.815  -5.657  1.00  0.00    -0.401 OA
HETATM   35  H   UNL     1      -2.668   7.861  -5.522  1.00  0.00     0.209 HD
ENDBRANCH  33  34
ENDBRANCH  32  33
ENDBRANCH  31  32
ENDBRANCH   5  31
TORSDOF 8
