REMARK  7 active torsions:
REMARK  status: ('A' for Active; 'I' for Inactive)
REMARK    1  A    between atoms: C_2  and  O_3 
REMARK    2  A    between atoms: O_3  and  C_4 
REMARK    3  A    between atoms: C_4  and  C_5 
REMARK    4  A    between atoms: C_6  and  N_7 
REMARK    5  A    between atoms: N_7  and  C_8 
REMARK    6  A    between atoms: C_9  and  C_10 
REMARK    7  A    between atoms: C_13  and  C_14 
ROOT
HETATM    1  C   UNL     1       8.402   2.342   1.798  1.00  0.00     0.114 C 
HETATM    2  C   UNL     1       9.702   2.413   1.444  1.00  0.00     0.095 C 
HETATM    3  C   UNL     1      10.648   2.875   2.408  1.00  0.00     0.103 C 
HETATM    4  N   UNL     1      11.377   3.276   3.218  1.00  0.00    -0.191 NA
ENDROOT
BRANCH   2   5
HETATM    5  C   UNL     1      10.175   2.088   0.133  1.00  0.00     0.120 A 
HETATM    6  S   UNL     1       9.363   2.686  -1.287  1.00  0.00    -0.078 SA
HETATM    7  C   UNL     1      10.566   1.997  -2.283  1.00  0.00     0.084 A 
HETATM    8  C   UNL     1      11.533   1.389  -1.511  1.00  0.00     0.075 A 
HETATM    9  N   UNL     1      11.295   1.440  -0.144  1.00  0.00    -0.239 NA
BRANCH   8  10
HETATM   10  C   UNL     1      12.720   0.730  -2.047  1.00  0.00    -0.007 A 
HETATM   11  C   UNL     1      13.267   1.086  -3.291  1.00  0.00     0.017 A 
HETATM   12  C   UNL     1      14.407   0.438  -3.777  1.00  0.00     0.043 A 
HETATM   13  C   UNL     1      15.004  -0.561  -3.019  1.00  0.00     0.116 A 
HETATM   14  F   UNL     1      16.095  -1.180  -3.487  1.00  0.00    -0.206 F 
HETATM   15  C   UNL     1      14.487  -0.924  -1.782  1.00  0.00     0.043 A 
HETATM   16  C   UNL     1      13.349  -0.276  -1.295  1.00  0.00     0.017 A 
ENDBRANCH   8  10
ENDBRANCH   2   5
BRANCH   1  17
HETATM   17  N   UNL     1       7.296   1.883   1.110  1.00  0.00    -0.358 N 
HETATM   18  H   UNL     1       6.506   2.538   1.118  1.00  0.00     0.166 HD
BRANCH  17  19
HETATM   19  C   UNL     1       6.972   0.583   0.815  1.00  0.00     0.091 A 
HETATM   20  C   UNL     1       5.830   0.166   0.128  1.00  0.00     0.080 A 
HETATM   21  C   UNL     1       5.747  -1.281   0.063  1.00  0.00    -0.026 A 
HETATM   22  C   UNL     1       6.839  -1.879   0.660  1.00  0.00    -0.008 A 
HETATM   23  C   UNL     1       4.655  -2.108  -0.562  1.00  0.00     0.041 C 
HETATM   24  S   UNL     1       7.944  -0.758   1.279  1.00  0.00    -0.075 SA
HETATM   25  C   UNL     1       7.054  -3.355   0.808  1.00  0.00     0.047 C 
HETATM   26  C   UNL     1       6.129  -4.133  -0.136  1.00  0.00     0.005 C 
HETATM   27  C   UNL     1       4.701  -3.575  -0.108  1.00  0.00     0.005 C 
BRANCH  20  28
HETATM   28  C   UNL     1       4.877   1.136  -0.426  1.00  0.00     0.296 C 
HETATM   29  O   UNL     1       4.866   2.321  -0.108  1.00  0.00    -0.259 OA
BRANCH  28  30
HETATM   30  O   UNL     1       4.035   0.588  -1.349  1.00  0.00    -0.318 OA
BRANCH  30  31
HETATM   31  C   UNL     1       3.132   1.490  -2.004  1.00  0.00     0.174 C 
HETATM   32  C   UNL     1       3.781   2.036  -3.261  1.00  0.00     0.034 C 
ENDBRANCH  30  31
ENDBRANCH  28  30
ENDBRANCH  20  28
ENDBRANCH  17  19
ENDBRANCH   1  17
TORSDOF 7
