REMARK  7 active torsions:
REMARK  status: ('A' for Active; 'I' for Inactive)
REMARK    1  A    between atoms: C_3  and  N_4 
REMARK       I    between atoms: N_4  and  C_5 
REMARK    2  A    between atoms: C_5  and  C_6 
REMARK       I    between atoms: C_6  and  N_7 
REMARK    3  A    between atoms: N_7  and  C_8 
REMARK    4  A    between atoms: C_8  and  C_9 
REMARK    5  A    between atoms: C_9  and  C_10 
REMARK    6  A    between atoms: C_12  and  O_13 
REMARK    7  A    between atoms: N_20  and  C_21 
ROOT
HETATM    1  N   UNL     1       2.919   2.460   0.133  1.00  0.00    -0.302 N 
HETATM    2  C   UNL     1       3.640   3.618   0.293  1.00  0.00     0.315 C 
HETATM    3  O   UNL     1       3.335   4.787   0.108  1.00  0.00    -0.262 OA
HETATM    4  H   UNL     1       3.414   1.599   0.335  1.00  0.00     0.171 HD
ENDROOT
BRANCH   2   5
HETATM    5  C   UNL     1       5.069   3.305   0.783  1.00  0.00     0.309 C 
HETATM    6  N   UNL     1       5.856   4.418   0.977  1.00  0.00    -0.353 N 
HETATM    7  H   UNL     1       5.458   5.302   0.666  1.00  0.00     0.162 HD
HETATM    8  O   UNL     1       5.407   2.141   0.953  1.00  0.00    -0.262 OA
BRANCH   6   9
HETATM    9  C   UNL     1       7.255   4.304   1.327  1.00  0.00     0.128 C 
BRANCH   9  10
HETATM   10  C   UNL     1       7.837   5.630   1.814  1.00  0.00     0.058 C 
BRANCH  10  11
HETATM   11  C   UNL     1       9.253   5.468   2.309  1.00  0.00    -0.054 A 
HETATM   12  C   UNL     1      10.335   5.532   1.419  1.00  0.00     0.043 A 
HETATM   13  C   UNL     1      11.633   5.350   1.893  1.00  0.00     0.066 A 
HETATM   14  C   UNL     1      11.874   5.102   3.239  1.00  0.00     0.036 A 
HETATM   15  C   UNL     1      10.804   5.034   4.129  1.00  0.00     0.003 A 
HETATM   16  C   UNL     1       9.499   5.213   3.667  1.00  0.00     0.007 A 
BRANCH  13  17
HETATM   17  O   UNL     1      12.709   5.404   1.057  1.00  0.00    -0.361 OA
HETATM   18  H   UNL     1      12.395   5.583   0.157  1.00  0.00     0.217 HD
ENDBRANCH  13  17
ENDBRANCH  10  11
ENDBRANCH   9  10
ENDBRANCH   6   9
ENDBRANCH   2   5
BRANCH   1  19
HETATM   19  C   UNL     1       1.609   2.374  -0.269  1.00  0.00     0.158 A 
HETATM   20  C   UNL     1       0.906   1.158  -0.443  1.00  0.00     0.003 A 
HETATM   21  C   UNL     1       1.376  -0.233  -0.236  1.00  0.00     0.054 C 
HETATM   22  C   UNL     1      -0.362   1.550  -0.819  1.00  0.00     0.129 A 
HETATM   23  N   UNL     1      -0.371   2.923  -0.901  1.00  0.00    -0.241 N 
HETATM   24  N   UNL     1       0.832   3.422  -0.518  1.00  0.00    -0.149 NA
BRANCH  23  25
HETATM   25  C   UNL     1      -1.431   3.817  -1.244  1.00  0.00     0.079 A 
HETATM   26  C   UNL     1      -2.594   3.454  -1.941  1.00  0.00     0.062 A 
HETATM   27 CL   UNL     1      -2.884   1.921  -2.688  1.00  0.00    -0.082 Cl
HETATM   28  C   UNL     1      -3.597   4.412  -2.170  1.00  0.00     0.026 A 
HETATM   29  C   UNL     1      -3.452   5.727  -1.731  1.00  0.00     0.002 A 
HETATM   30  C   UNL     1      -2.291   6.105  -1.071  1.00  0.00     0.002 A 
HETATM   31  C   UNL     1      -1.288   5.163  -0.836  1.00  0.00     0.033 A 
ENDBRANCH  23  25
ENDBRANCH   1  19
TORSDOF 7
