REMARK  4 active torsions:
REMARK  status: ('A' for Active; 'I' for Inactive)
REMARK    1  A    between atoms: C_2  and  C_3 
REMARK    2  A    between atoms: C_11  and  C_12 
REMARK       I    between atoms: C_12  and  N_13 
REMARK    3  A    between atoms: N_13  and  C_14 
REMARK    4  A    between atoms: C_21  and  C_22 
REMARK       I    between atoms: C_22  and  N_23 
ROOT
HETATM    1  C   UNL     1       4.137  -1.572  -0.341  1.00  0.00     0.035 A 
HETATM    2  C   UNL     1       2.795  -1.573   0.056  1.00  0.00     0.046 A 
HETATM    3  C   UNL     1       1.957  -2.651  -0.307  1.00  0.00     0.030 A 
HETATM    4  C   UNL     1       2.489  -3.701  -1.042  1.00  0.00     0.063 A 
HETATM    5  N   UNL     1       1.454  -4.575  -1.229  1.00  0.00    -0.277 N 
HETATM    6  H   UNL     1       1.478  -5.459  -1.724  1.00  0.00     0.189 HD
HETATM    7  N   UNL     1       0.291  -4.185  -0.679  1.00  0.00    -0.168 NA
HETATM    8  C   UNL     1       0.587  -2.998  -0.104  1.00  0.00     0.156 A 
HETATM    9  C   UNL     1       3.823  -3.746  -1.443  1.00  0.00     0.034 A 
HETATM   10  C   UNL     1       4.631  -2.662  -1.074  1.00  0.00     0.032 A 
ENDROOT
BRANCH   1  11
HETATM   11  N   UNL     1       5.069  -0.565  -0.030  1.00  0.00    -0.324 N 
HETATM   12  C   UNL     1       4.985   0.660   0.563  1.00  0.00     0.246 C 
HETATM   13  O   UNL     1       6.020   1.276   0.813  1.00  0.00    -0.268 OA
HETATM   14  H   UNL     1       6.038  -0.771  -0.249  1.00  0.00     0.169 HD
BRANCH  12  15
HETATM   15  C   UNL     1       3.667   1.272   0.824  1.00  0.00     0.082 C 
HETATM   16  C   UNL     1       3.264   1.667   2.046  1.00  0.00    -0.043 C 
HETATM   17  C   UNL     1       1.938   2.332   2.278  1.00  0.00     0.049 C 
BRANCH  16  18
HETATM   18  C   UNL     1       4.088   1.463   3.250  1.00  0.00     0.009 A 
HETATM   19  C   UNL     1       4.839   2.511   3.799  1.00  0.00     0.130 A 
HETATM   20  F   UNL     1       4.793   3.736   3.253  1.00  0.00    -0.205 F 
HETATM   21  C   UNL     1       5.642   2.311   4.917  1.00  0.00     0.085 A 
HETATM   22  C   UNL     1       5.686   1.051   5.496  1.00  0.00     0.119 A 
HETATM   23  F   UNL     1       6.453   0.847   6.575  1.00  0.00    -0.206 F 
HETATM   24  C   UNL     1       4.943  -0.007   4.978  1.00  0.00     0.043 A 
HETATM   25  C   UNL     1       4.144   0.197   3.851  1.00  0.00     0.018 A 
ENDBRANCH  16  18
ENDBRANCH  12  15
ENDBRANCH   1  11
BRANCH   8  26
HETATM   26  C   UNL     1      -0.428  -2.218   0.618  1.00  0.00     0.270 C 
HETATM   27  N   UNL     1      -1.665  -2.801   0.645  1.00  0.00    -0.365 N 
HETATM   28  H   UNL     1      -1.793  -3.692   0.179  1.00  0.00     0.159 HD
HETATM   29  H   UNL     1      -2.430  -2.337   1.110  1.00  0.00     0.159 HD
HETATM   30  O   UNL     1      -0.217  -1.137   1.157  1.00  0.00    -0.266 OA
ENDBRANCH   8  26
TORSDOF 4
