REMARK  2 active torsions:
REMARK  status: ('A' for Active; 'I' for Inactive)
REMARK    1  A    between atoms: N_4  and  N_5 
REMARK       I    between atoms: N_5  and  C_6 
REMARK    2  A    between atoms: C_6  and  C_7 
ROOT
HETATM    1  C   UNL     1       0.999  -0.143   0.081  1.00  0.00     0.158 C 
HETATM    2  N   UNL     1       2.441   0.085   0.077  1.00  0.00    -0.329 N 
HETATM    3  C   UNL     1       3.083   1.261   0.071  1.00  0.00     0.166 A 
HETATM    4  N   UNL     1       2.494   2.460   0.063  1.00  0.00    -0.277 N 
HETATM    5  S   UNL     1       4.809   1.075   0.074  1.00  0.00    -0.050 SA
HETATM    6  C   UNL     1       4.655  -0.639   0.079  1.00  0.00     0.035 A 
HETATM    7  C   UNL     1       3.311  -1.003   0.081  1.00  0.00     0.053 A 
HETATM    8  C   UNL     1       5.681  -1.599   0.082  1.00  0.00     0.021 A 
HETATM    9  C   UNL     1       5.324  -2.949   0.086  1.00  0.00     0.002 A 
HETATM   10  C   UNL     1       3.987  -3.332   0.088  1.00  0.00     0.002 A 
HETATM   11  C   UNL     1       2.969  -2.370   0.085  1.00  0.00     0.031 A 
HETATM   12  H   UNL     1       1.475   2.469   0.060  1.00  0.00     0.189 HD
ENDROOT
BRANCH   4  13
HETATM   13  N   UNL     1       3.111   3.641   0.058  1.00  0.00    -0.263 N 
HETATM   14  C   UNL     1       2.305   4.768   0.048  1.00  0.00     0.286 C 
HETATM   15  O   UNL     1       1.080   4.644   0.046  1.00  0.00    -0.264 OA
HETATM   16  H   UNL     1       4.126   3.695   0.060  1.00  0.00     0.190 HD
BRANCH  14  17
HETATM   17  C   UNL     1       2.981   6.042   0.043  1.00  0.00     0.103 A 
HETATM   18  N   UNL     1       2.279   7.234   0.032  1.00  0.00    -0.360 N 
HETATM   19  H   UNL     1       1.267   7.304   0.028  1.00  0.00     0.165 HD
HETATM   20  C   UNL     1       3.145   8.294   0.028  1.00  0.00     0.112 A 
HETATM   21  C   UNL     1       4.422   7.793   0.036  1.00  0.00     0.051 A 
HETATM   22 CL   UNL     1       5.871   8.671   0.036  1.00  0.00    -0.083 Cl
HETATM   23  C   UNL     1       4.327   6.381   0.045  1.00  0.00     0.060 A 
ENDBRANCH  14  17
ENDBRANCH   4  13
TORSDOF 2
