REMARK  8 active torsions:
REMARK  status: ('A' for Active; 'I' for Inactive)
REMARK    1  A    between atoms: O_2  and  C_3 
REMARK    2  A    between atoms: C_11  and  C_12 
REMARK       I    between atoms: C_12  and  N_13 
REMARK    3  A    between atoms: N_13  and  C_14 
REMARK    4  A    between atoms: C_14  and  C_15 
REMARK    5  A    between atoms: C_15  and  C_16 
REMARK    6  A    between atoms: C_16  and  C_17 
REMARK    7  A    between atoms: C_17  and  O_18 
REMARK    8  A    between atoms: O_18  and  C_19 
ROOT
HETATM    1  C   UNL     1       4.188   7.382  -0.104  1.00  0.00     0.268 C 
HETATM    2  N   UNL     1       3.049   8.126  -0.278  1.00  0.00    -0.345 N 
HETATM    3  O   UNL     1       4.203   6.161  -0.228  1.00  0.00    -0.266 OA
HETATM    4  H   UNL     1       3.058   9.116  -0.084  1.00  0.00     0.163 HD
ENDROOT
BRANCH   2   5
HETATM    5  C   UNL     1       1.783   7.487  -0.510  1.00  0.00     0.217 C 
BRANCH   5   6
HETATM    6  C   UNL     1       0.823   8.466  -1.165  1.00  0.00    -0.085 C 
BRANCH   6   7
HETATM    7  C   UNL     1       0.000   9.307  -1.727  1.00  0.00    -0.078 C 
BRANCH   7   8
HETATM    8  C   UNL     1      -0.960  10.286  -2.381  1.00  0.00     0.269 C 
BRANCH   8   9
HETATM    9  O   UNL     1      -0.847  11.539  -1.711  1.00  0.00    -0.339 OA
BRANCH   9  10
HETATM   10  C   UNL     1      -1.611  12.569  -2.188  1.00  0.00     0.072 A 
HETATM   11  C   UNL     1      -2.506  12.505  -3.259  1.00  0.00     0.069 A 
HETATM   12  C   UNL     1      -3.233  13.616  -3.669  1.00  0.00     0.069 A 
HETATM   13  C   UNL     1      -3.056  14.833  -2.978  1.00  0.00    -0.007 A 
HETATM   14  N   UNL     1      -4.079  13.499  -4.709  1.00  0.00    -0.260 NA
HETATM   15  C   UNL     1      -2.162  14.906  -1.899  1.00  0.00     0.016 A 
HETATM   16  C   UNL     1      -3.794  15.946  -3.401  1.00  0.00     0.015 A 
HETATM   17  C   UNL     1      -1.445  13.776  -1.510  1.00  0.00     0.038 A 
HETATM   18  C   UNL     1      -4.667  15.827  -4.475  1.00  0.00     0.020 A 
HETATM   19  C   UNL     1      -4.773  14.594  -5.089  1.00  0.00     0.117 A 
ENDBRANCH   9  10
ENDBRANCH   8   9
ENDBRANCH   7   8
ENDBRANCH   6   7
ENDBRANCH   5   6
ENDBRANCH   2   5
BRANCH   1  20
HETATM   20  C   UNL     1       5.378   8.129   0.234  1.00  0.00     0.102 A 
HETATM   21  N   UNL     1       6.605   7.505   0.313  1.00  0.00    -0.351 N 
HETATM   22  C   UNL     1       7.598   8.398   0.634  1.00  0.00     0.045 A 
HETATM   23  H   UNL     1       6.737   6.516   0.144  1.00  0.00     0.166 HD
HETATM   24  C   UNL     1       8.978   8.197   0.796  1.00  0.00     0.067 A 
HETATM   25  C   UNL     1       6.990   9.639   0.792  1.00  0.00    -0.007 A 
HETATM   26  C   UNL     1       9.760   9.307   1.133  1.00  0.00     0.070 A 
HETATM   27  C   UNL     1       9.166  10.558   1.312  1.00  0.00     0.038 A 
HETATM   28  C   UNL     1       7.787  10.742   1.144  1.00  0.00     0.016 A 
HETATM   29  C   UNL     1       5.600   9.462   0.534  1.00  0.00     0.049 A 
BRANCH  26  30
HETATM   30  O   UNL     1      11.118   9.294   1.322  1.00  0.00    -0.356 OA
HETATM   31  C   UNL     1      11.796   8.082   1.018  1.00  0.00     0.210 C 
ENDBRANCH  26  30
ENDBRANCH   1  20
TORSDOF 8
