REMARK  7 active torsions:
REMARK  status: ('A' for Active; 'I' for Inactive)
REMARK    1  A    between atoms: C_2  and  O_3 
REMARK    2  A    between atoms: O_3  and  C_4 
REMARK    3  A    between atoms: C_4  and  C_5 
REMARK    4  A    between atoms: C_10  and  N_11 
REMARK       I    between atoms: N_11  and  C_12 
REMARK       I    between atoms: C_12  and  N_13 
REMARK    5  A    between atoms: N_13  and  N_14 
REMARK       I    between atoms: N_14  and  C_15 
REMARK    6  A    between atoms: C_15  and  C_16 
REMARK    7  A    between atoms: C_19  and  O_20 
ROOT
HETATM    1  N   UNL     1       6.434  -2.861   0.360  1.00  0.00    -0.293 N 
HETATM    2  C   UNL     1       7.575  -3.298   1.003  1.00  0.00     0.340 C 
HETATM    3  N   UNL     1       7.572  -4.673   1.165  1.00  0.00    -0.249 N 
HETATM    4  O   UNL     1       8.482  -2.585   1.432  1.00  0.00    -0.245 OA
HETATM    5  H   UNL     1       5.727  -3.542   0.126  1.00  0.00     0.172 HD
HETATM    6  H   UNL     1       7.094  -5.254   0.479  1.00  0.00     0.192 HD
ENDROOT
BRANCH   1   7
HETATM    7  C   UNL     1       6.153  -1.529   0.132  1.00  0.00     0.116 A 
HETATM    8  N   UNL     1       7.014  -0.523   0.476  1.00  0.00    -0.345 N 
HETATM    9  C   UNL     1       6.467   0.696   0.171  1.00  0.00     0.024 A 
HETATM   10  H   UNL     1       7.914  -0.685   0.916  1.00  0.00     0.167 HD
HETATM   11  C   UNL     1       5.209   0.478  -0.387  1.00  0.00     0.071 A 
HETATM   12  C   UNL     1       7.201   1.956   0.464  1.00  0.00     0.069 C 
HETATM   13  C   UNL     1       5.027  -0.958  -0.436  1.00  0.00     0.000 A 
HETATM   14  C   UNL     1       3.841  -1.682  -0.977  1.00  0.00     0.053 C 
BRANCH  11  15
HETATM   15  C   UNL     1       4.294   1.547  -0.811  1.00  0.00     0.295 C 
HETATM   16  O   UNL     1       4.565   2.740  -0.741  1.00  0.00    -0.259 OA
BRANCH  15  17
HETATM   17  O   UNL     1       3.102   1.068  -1.276  1.00  0.00    -0.318 OA
BRANCH  17  18
HETATM   18  C   UNL     1       2.137   2.052  -1.670  1.00  0.00     0.174 C 
HETATM   19  C   UNL     1       2.358   2.458  -3.115  1.00  0.00     0.034 C 
ENDBRANCH  17  18
ENDBRANCH  15  17
ENDBRANCH  11  15
ENDBRANCH   1   7
BRANCH   3  20
HETATM   20  N   UNL     1       8.718  -5.272   1.714  1.00  0.00    -0.262 N 
HETATM   21  C   UNL     1       8.993  -6.570   1.329  1.00  0.00     0.270 C 
HETATM   22  O   UNL     1       8.250  -7.193   0.573  1.00  0.00    -0.266 OA
HETATM   23  H   UNL     1       9.406  -4.638   2.117  1.00  0.00     0.190 HD
BRANCH  21  24
HETATM   24  C   UNL     1      10.243  -7.189   1.852  1.00  0.00     0.033 A 
HETATM   25  C   UNL     1      10.923  -6.693   2.969  1.00  0.00     0.020 A 
HETATM   26  C   UNL     1      12.072  -7.344   3.430  1.00  0.00     0.038 A 
HETATM   27  C   UNL     1      12.549  -8.495   2.796  1.00  0.00     0.068 A 
HETATM   28  C   UNL     1      11.871  -8.991   1.683  1.00  0.00     0.038 A 
HETATM   29  C   UNL     1      10.722  -8.342   1.216  1.00  0.00     0.020 A 
BRANCH  27  30
HETATM   30  O   UNL     1      13.672  -9.035   3.359  1.00  0.00    -0.356 OA
HETATM   31  C   UNL     1      14.123 -10.276   2.829  1.00  0.00     0.210 C 
ENDBRANCH  27  30
ENDBRANCH  21  24
ENDBRANCH   3  20
TORSDOF 7
