REMARK  6 active torsions:
REMARK  status: ('A' for Active; 'I' for Inactive)
REMARK    1  A    between atoms: C_6  and  C_7 
REMARK    2  A    between atoms: C_10  and  C_11 
REMARK       I    between atoms: C_11  and  N_12 
REMARK    3  A    between atoms: N_12  and  C_13 
REMARK    4  A    between atoms: C_13  and  C_14 
REMARK    5  A    between atoms: C_17  and  C_18 
REMARK       I    between atoms: C_18  and  N_19 
REMARK    6  A    between atoms: N_19  and  C_20 
ROOT
HETATM    1  C   UNL     1       2.589  -2.486   0.335  1.00  0.00     0.256 C 
HETATM    2  N   UNL     1       3.232  -3.703   0.352  1.00  0.00    -0.353 N 
HETATM    3  O   UNL     1       3.166  -1.444   0.634  1.00  0.00    -0.268 OA
HETATM    4  H   UNL     1       2.667  -4.538   0.347  1.00  0.00     0.163 HD
ENDROOT
BRANCH   2   5
HETATM    5  C   UNL     1       4.578  -3.802   0.857  1.00  0.00     0.161 C 
BRANCH   5   6
HETATM    6  C   UNL     1       5.271  -5.039   0.349  1.00  0.00    -0.040 A 
HETATM    7  C   UNL     1       5.839  -5.045  -0.934  1.00  0.00     0.010 A 
HETATM    8  C   UNL     1       6.523  -6.170  -1.401  1.00  0.00     0.017 A 
HETATM    9  C   UNL     1       6.651  -7.301  -0.588  1.00  0.00     0.032 A 
HETATM   10  C   UNL     1       6.046  -7.321   0.674  1.00  0.00     0.017 A 
HETATM   11  C   UNL     1       5.359  -6.194   1.138  1.00  0.00     0.010 A 
BRANCH   9  12
HETATM   12  C   UNL     1       7.431  -8.458  -1.105  1.00  0.00     0.252 C 
HETATM   13  N   UNL     1       8.145  -9.171  -0.159  1.00  0.00    -0.352 N 
HETATM   14  H   UNL     1       8.206  -8.808   0.783  1.00  0.00     0.163 HD
HETATM   15  O   UNL     1       7.443  -8.700  -2.307  1.00  0.00    -0.268 OA
BRANCH  13  16
HETATM   16  C   UNL     1       9.025 -10.238  -0.521  1.00  0.00     0.084 A 
HETATM   17  C   UNL     1      10.515 -10.037  -0.486  1.00  0.00     0.027 A 
HETATM   18  C   UNL     1       9.857 -10.933   0.522  1.00  0.00     0.027 A 
ENDBRANCH  13  16
ENDBRANCH   9  12
ENDBRANCH   5   6
ENDBRANCH   2   5
BRANCH   1  19
HETATM   19  C   UNL     1       1.167  -2.513   0.006  1.00  0.00     0.082 A 
HETATM   20  C   UNL     1       0.221  -1.505   0.366  1.00  0.00     0.068 A 
HETATM   21  C   UNL     1       0.464  -0.247   1.120  1.00  0.00     0.073 C 
HETATM   22  N   UNL     1      -1.016  -1.805  -0.043  1.00  0.00    -0.179 NA
HETATM   23  N   UNL     1      -0.871  -2.966  -0.685  1.00  0.00    -0.281 N 
HETATM   24  H   UNL     1      -1.698  -3.380  -1.102  1.00  0.00     0.189 HD
HETATM   25  C   UNL     1       0.418  -3.439  -0.718  1.00  0.00     0.049 A 
BRANCH  25  26
HETATM   26  C   UNL     1       0.760  -4.702  -1.460  1.00  0.00     0.030 C 
HETATM   27  C   UNL     1       0.356  -5.931  -0.643  1.00  0.00     0.016 C 
HETATM   28  C   UNL     1       0.116  -4.750  -2.850  1.00  0.00     0.016 C 
ENDBRANCH  25  26
ENDBRANCH   1  19
TORSDOF 6
