REMARK  3 active torsions:
REMARK  status: ('A' for Active; 'I' for Inactive)
REMARK    1  A    between atoms: C_2  and  O_3 
REMARK    2  A    between atoms: O_3  and  C_4 
REMARK    3  A    between atoms: C_8  and  N_9 
REMARK       I    between atoms: N_9  and  C_10 
REMARK       I    between atoms: C_10  and  N_11 
ROOT
HETATM    1  N   UNL     1       9.878   3.840   0.236  1.00  0.00    -0.309 N 
HETATM    2  C   UNL     1       8.790   3.535  -0.549  1.00  0.00     0.323 C 
HETATM    3  N   UNL     1       7.915   4.590  -0.799  1.00  0.00    -0.328 N 
HETATM    4  C   UNL     1       6.672   4.235  -1.506  1.00  0.00     0.185 C 
HETATM    5  C   UNL     1       6.154   5.419  -2.242  1.00  0.00     0.035 A 
HETATM    6  C   UNL     1       6.624   6.712  -2.178  1.00  0.00    -0.020 A 
HETATM    7  C   UNL     1       7.788   7.059  -1.327  1.00  0.00     0.061 C 
HETATM    8  C   UNL     1       8.004   5.969  -0.256  1.00  0.00     0.132 C 
HETATM    9  N   UNL     1       5.109   5.391  -3.124  1.00  0.00    -0.357 N 
HETATM   10  H   UNL     1       4.578   4.571  -3.384  1.00  0.00     0.166 HD
HETATM   11  C   UNL     1       4.891   6.655  -3.631  1.00  0.00     0.043 A 
HETATM   12  C   UNL     1       5.834   7.508  -3.049  1.00  0.00    -0.001 A 
HETATM   13  C   UNL     1       3.944   7.102  -4.560  1.00  0.00     0.030 A 
HETATM   14  C   UNL     1       3.959   8.458  -4.901  1.00  0.00     0.002 A 
HETATM   15  C   UNL     1       4.887   9.330  -4.336  1.00  0.00     0.001 A 
HETATM   16  C   UNL     1       5.829   8.869  -3.410  1.00  0.00     0.014 A 
HETATM   17  O   UNL     1       8.582   2.416  -1.015  1.00  0.00    -0.247 OA
HETATM   18  H   UNL     1       9.770   4.617   0.864  1.00  0.00     0.170 HD
ENDROOT
BRANCH   1  19
HETATM   19  C   UNL     1      11.031   3.052   0.444  1.00  0.00     0.038 A 
HETATM   20  C   UNL     1      11.338   1.907  -0.290  1.00  0.00     0.056 A 
HETATM   21  C   UNL     1      12.522   1.201  -0.041  1.00  0.00     0.069 A 
HETATM   22  C   UNL     1      13.431   1.638   0.934  1.00  0.00     0.090 A 
HETATM   23 CL   UNL     1      12.839  -0.213  -0.989  1.00  0.00    -0.081 Cl
HETATM   24  C   UNL     1      13.121   2.782   1.671  1.00  0.00     0.041 A 
HETATM   25  C   UNL     1      11.933   3.483   1.424  1.00  0.00     0.032 A 
BRANCH  22  26
HETATM   26  O   UNL     1      14.567   0.892   1.107  1.00  0.00    -0.350 OA
BRANCH  26  27
HETATM   27  C   UNL     1      15.635   1.476   1.849  1.00  0.00     0.171 C 
HETATM   28  C   UNL     1      16.846   0.570   1.714  1.00  0.00     0.034 C 
ENDBRANCH  26  27
ENDBRANCH  22  26
ENDBRANCH   1  19
TORSDOF 3
