REMARK  8 active torsions:
REMARK  status: ('A' for Active; 'I' for Inactive)
REMARK    1  A    between atoms: C_6  and  O_7 
REMARK    2  A    between atoms: O_7  and  C_8 
REMARK    3  A    between atoms: C_8  and  C_9 
REMARK    4  A    between atoms: C_9  and  C_10 
REMARK    5  A    between atoms: C_10  and  C_11 
REMARK    6  A    between atoms: C_11  and  N_12 
REMARK       I    between atoms: N_12  and  C_13 
REMARK    7  A    between atoms: C_13  and  C_14 
REMARK    8  A    between atoms: C_18  and  C_19 
ROOT
HETATM    1  N   UNL     1      -2.887  -7.463  -1.562  1.00  0.00    -0.345 N 
HETATM    2  C   UNL     1      -3.055  -8.787  -1.882  1.00  0.00     0.270 C 
HETATM    3  O   UNL     1      -3.962  -9.474  -1.424  1.00  0.00    -0.266 OA
HETATM    4  H   UNL     1      -2.102  -6.948  -1.929  1.00  0.00     0.163 HD
ENDROOT
BRANCH   2   5
HETATM    5  C   UNL     1      -2.101  -9.322  -2.816  1.00  0.00     0.120 A 
HETATM    6  N   UNL     1      -2.072 -10.655  -3.115  1.00  0.00    -0.272 N 
HETATM    7  H   UNL     1      -2.670 -11.378  -2.726  1.00  0.00     0.189 HD
HETATM    8  N   UNL     1      -1.150 -10.995  -4.027  1.00  0.00    -0.174 NA
HETATM    9  C   UNL     1      -0.563  -9.836  -4.365  1.00  0.00     0.089 A 
HETATM   10  C   UNL     1      -1.115  -8.765  -3.605  1.00  0.00     0.071 A 
BRANCH   9  11
HETATM   11  C   UNL     1       0.480  -9.779  -5.395  1.00  0.00    -0.005 A 
HETATM   12  C   UNL     1       0.806  -8.570  -6.032  1.00  0.00     0.017 A 
HETATM   13  C   UNL     1       1.790  -8.532  -7.025  1.00  0.00     0.043 A 
HETATM   14  C   UNL     1       2.451  -9.700  -7.383  1.00  0.00     0.116 A 
HETATM   15  F   UNL     1       3.390  -9.660  -8.336  1.00  0.00    -0.206 F 
HETATM   16  C   UNL     1       2.147 -10.908  -6.770  1.00  0.00     0.043 A 
HETATM   17  C   UNL     1       1.162 -10.947  -5.779  1.00  0.00     0.017 A 
ENDBRANCH   9  11
ENDBRANCH   2   5
BRANCH   1  18
HETATM   18  C   UNL     1      -3.842  -6.753  -0.755  1.00  0.00     0.217 C 
BRANCH  18  19
HETATM   19  C   UNL     1      -3.146  -6.072   0.412  1.00  0.00    -0.085 C 
BRANCH  19  20
HETATM   20  C   UNL     1      -2.548  -5.488   1.412  1.00  0.00    -0.078 C 
BRANCH  20  21
HETATM   21  C   UNL     1      -1.885  -4.820   2.541  1.00  0.00     0.269 C 
BRANCH  21  22
HETATM   22  O   UNL     1      -0.946  -5.720   3.126  1.00  0.00    -0.340 OA
BRANCH  22  23
HETATM   23  C   UNL     1      -0.248  -5.273   4.214  1.00  0.00     0.071 A 
HETATM   24  C   UNL     1       0.618  -6.216   4.775  1.00  0.00     0.055 A 
HETATM   25  C   UNL     1       1.389  -5.885   5.889  1.00  0.00     0.013 A 
HETATM   26  C   UNL     1       1.307  -4.614   6.452  1.00  0.00     0.019 A 
HETATM   27 BR   UNL     1       2.554  -7.170   6.641  1.00  0.00    -0.051 Br
HETATM   28  C   UNL     1       0.446  -3.670   5.894  1.00  0.00     0.004 A 
HETATM   29  C   UNL     1      -0.330  -3.997   4.777  1.00  0.00     0.037 A 
ENDBRANCH  22  23
ENDBRANCH  21  22
ENDBRANCH  20  21
ENDBRANCH  19  20
ENDBRANCH  18  19
ENDBRANCH   1  18
TORSDOF 8
