REMARK  3 active torsions:
REMARK  status: ('A' for Active; 'I' for Inactive)
REMARK    1  A    between atoms: C_9  and  C_10 
REMARK    2  A    between atoms: C_10  and  N_11 
REMARK    3  A    between atoms: C_15  and  N_16 
REMARK       I    between atoms: N_16  and  C_17 
REMARK       I    between atoms: C_17  and  N_18 
ROOT
HETATM    1  N   UNL     1       4.774  -0.513   0.183  1.00  0.00    -0.067 N 
HETATM    2  H   UNL     1       5.325  -0.559  -0.681  1.00  0.00     0.280 HD
HETATM    3  C   UNL     1       4.288   0.905   0.382  1.00  0.00     0.237 C 
HETATM    4  C   UNL     1       5.476   1.853   0.463  1.00  0.00     0.053 C 
HETATM    5  C   UNL     1       6.424   1.476   1.605  1.00  0.00     0.089 C 
HETATM    6  C   UNL     1       6.851   0.012   1.454  1.00  0.00     0.053 C 
HETATM    7  C   UNL     1       5.679  -0.949   1.319  1.00  0.00     0.237 C 
ENDROOT
BRANCH   1   8
HETATM    8  C   UNL     1       3.625  -1.493   0.033  1.00  0.00     0.271 C 
BRANCH   8   9
HETATM    9  C   UNL     1       2.794  -1.342  -1.208  1.00  0.00    -0.029 C 
HETATM   10  C   UNL     1       1.338  -1.732  -1.040  1.00  0.00     0.211 C 
HETATM   11  O   UNL     1       0.435  -1.205  -2.017  1.00  0.00    -0.346 OA
HETATM   12  C   UNL     1       0.941  -1.040  -3.275  1.00  0.00     0.079 A 
HETATM   13  C   UNL     1       2.310  -0.910  -3.525  1.00  0.00    -0.001 A 
HETATM   14  C   UNL     1       0.015  -0.950  -4.315  1.00  0.00     0.039 A 
HETATM   15  C   UNL     1       2.751  -0.705  -4.837  1.00  0.00     0.038 A 
HETATM   16  C   UNL     1       3.253  -0.954  -2.411  1.00  0.00     0.021 C 
HETATM   17  C   UNL     1       1.822  -0.634  -5.878  1.00  0.00     0.035 A 
HETATM   18  C   UNL     1       0.457  -0.753  -5.623  1.00  0.00     0.026 A 
HETATM   19 CL   UNL     1       2.372  -0.385  -7.489  1.00  0.00    -0.084 Cl
ENDBRANCH   8   9
ENDBRANCH   1   8
BRANCH   5  20
HETATM   20  N   UNL     1       5.847   1.892   2.885  1.00  0.00    -0.339 N 
HETATM   21  C   UNL     1       5.723   1.152   4.020  1.00  0.00     0.314 C 
HETATM   22  N   UNL     1       5.238   1.867   5.062  1.00  0.00    -0.352 N 
HETATM   23  O   UNL     1       5.926  -0.048   4.114  1.00  0.00    -0.248 OA
HETATM   24  H   UNL     1       5.520   2.830   5.180  1.00  0.00     0.160 HD
HETATM   25  H   UNL     1       5.196   1.347   5.932  1.00  0.00     0.160 HD
HETATM   26  H   UNL     1       5.748   2.889   3.029  1.00  0.00     0.164 HD
ENDBRANCH   5  20
TORSDOF 3
