REMARK  3 active torsions:
REMARK  status: ('A' for Active; 'I' for Inactive)
REMARK    1  A    between atoms: C_3  and  N_4 
REMARK       I    between atoms: N_4  and  C_5 
REMARK    2  A    between atoms: C_5  and  C_6 
REMARK    3  A    between atoms: C_6  and  C_7 
ROOT
HETATM    1  C   UNL     1      -1.497   1.614   0.657  1.00  0.00     0.286 C 
HETATM    2  N   UNL     1      -2.587   1.541  -0.419  1.00  0.00    -0.056 N 
HETATM    3  H   UNL     1      -3.379   2.147  -0.131  1.00  0.00     0.278 HD
HETATM    4  H   UNL     1      -2.221   1.936  -1.295  1.00  0.00     0.278 HD
HETATM    5  C   UNL     1      -3.145   0.163  -0.666  1.00  0.00     0.209 C 
HETATM    6  C   UNL     1      -1.989  -0.832  -0.882  1.00  0.00     0.115 C 
HETATM    7  N   UNL     1      -1.055  -0.807   0.231  1.00  0.00    -0.353 N 
HETATM    8  C   UNL     1      -0.628   0.355   0.816  1.00  0.00     0.249 C 
HETATM    9  O   UNL     1       0.401   0.364   1.483  1.00  0.00    -0.271 OA
HETATM   10  C   UNL     1      -4.076   0.195  -1.873  1.00  0.00     0.035 C 
HETATM   11  C   UNL     1      -4.640  -1.202  -2.138  1.00  0.00     0.002 C 
HETATM   12  C   UNL     1      -3.539  -2.255  -2.277  1.00  0.00     0.002 C 
HETATM   13  C   UNL     1      -2.557  -2.235  -1.105  1.00  0.00     0.027 C 
HETATM   14  H   UNL     1      -0.386  -1.571   0.326  1.00  0.00     0.163 HD
ENDROOT
BRANCH   1  15
HETATM   15  C   UNL     1      -2.025   2.102   2.009  1.00  0.00     0.146 C 
BRANCH  15  16
HETATM   16  C   UNL     1      -3.340   1.473   2.349  1.00  0.00     0.224 C 
HETATM   17  N   UNL     1      -3.525   0.420   3.171  1.00  0.00    -0.325 N 
HETATM   18  H   UNL     1      -4.515   0.172   3.225  1.00  0.00     0.169 HD
HETATM   19  O   UNL     1      -4.323   1.888   1.714  1.00  0.00    -0.273 OA
BRANCH  17  20
HETATM   20  C   UNL     1      -2.721  -0.416   3.973  1.00  0.00     0.073 A 
HETATM   21  C   UNL     1      -1.351  -0.318   4.186  1.00  0.00     0.033 A 
HETATM   22  C   UNL     1      -0.691  -1.249   5.004  1.00  0.00     0.002 A 
HETATM   23  C   UNL     1      -1.391  -2.282   5.625  1.00  0.00     0.003 A 
HETATM   24  C   UNL     1      -2.762  -2.392   5.429  1.00  0.00     0.044 A 
HETATM   25  C   UNL     1      -3.405  -1.467   4.613  1.00  0.00     0.143 A 
HETATM   26  F   UNL     1      -4.728  -1.594   4.416  1.00  0.00    -0.204 F 
ENDBRANCH  17  20
ENDBRANCH  15  16
ENDBRANCH   1  15
TORSDOF 3
