REMARK  7 active torsions:
REMARK  status: ('A' for Active; 'I' for Inactive)
REMARK    1  A    between atoms: N_5  and  C_6 
REMARK    2  A    between atoms: C_14  and  N_15 
REMARK       I    between atoms: N_15  and  C_16 
REMARK    3  A    between atoms: C_16  and  C_17 
REMARK    4  A    between atoms: C_17  and  C_18 
REMARK    5  A    between atoms: C_18  and  C_19 
REMARK    6  A    between atoms: C_19  and  C_20 
REMARK       I    between atoms: C_20  and  N_21 
REMARK    7  A    between atoms: N_24  and  C_25 
ROOT
HETATM    1  C   UNL     1       0.861   3.320   0.178  1.00  0.00     0.112 C 
ENDROOT
BRANCH   1   2
HETATM    2  C   UNL     1       0.098   4.012  -0.919  1.00  0.00     0.223 C 
HETATM    3  N   UNL     1       0.664   4.736  -1.908  1.00  0.00    -0.321 N 
HETATM    4  H   UNL     1      -0.092   5.083  -2.506  1.00  0.00     0.169 HD
HETATM    5  O   UNL     1      -1.137   3.932  -0.935  1.00  0.00    -0.273 OA
BRANCH   3   6
HETATM    6  C   UNL     1       1.874   5.209  -2.337  1.00  0.00     0.129 C 
HETATM    7  C   UNL     1       3.186   5.145  -2.041  1.00  0.00     0.057 C 
HETATM    8  C   UNL     1       3.908   4.356  -0.999  1.00  0.00     0.072 C 
HETATM    9  N   UNL     1       3.968   5.940  -2.911  1.00  0.00    -0.289 N 
HETATM   10  C   UNL     1       5.157   6.665  -2.465  1.00  0.00     0.178 C 
HETATM   11  N   UNL     1       3.072   6.652  -3.764  1.00  0.00    -0.217 N 
HETATM   12  C   UNL     1       1.802   6.127  -3.532  1.00  0.00     0.295 C 
HETATM   13  O   UNL     1       0.754   6.321  -4.137  1.00  0.00    -0.264 OA
BRANCH  11  14
HETATM   14  C   UNL     1       3.512   7.005  -5.067  1.00  0.00     0.060 A 
HETATM   15  C   UNL     1       4.407   8.070  -5.231  1.00  0.00     0.031 A 
HETATM   16  C   UNL     1       4.816   8.469  -6.506  1.00  0.00     0.002 A 
HETATM   17  C   UNL     1       4.331   7.809  -7.633  1.00  0.00     0.000 A 
HETATM   18  C   UNL     1       3.428   6.759  -7.485  1.00  0.00     0.002 A 
HETATM   19  C   UNL     1       3.012   6.365  -6.209  1.00  0.00     0.031 A 
ENDBRANCH  11  14
ENDBRANCH   3   6
ENDBRANCH   1   2
BRANCH   1  20
HETATM   20  C   UNL     1       0.911   1.766   0.050  1.00  0.00    -0.031 C 
HETATM   21  C   UNL     1       1.809   1.250   1.191  1.00  0.00     0.016 C 
HETATM   22  C   UNL     1      -0.502   1.179   0.273  1.00  0.00     0.016 C 
BRANCH  20  23
HETATM   23  C   UNL     1       1.442   1.336  -1.342  1.00  0.00     0.112 C 
BRANCH  23  24
HETATM   24  C   UNL     1       1.608  -0.163  -1.571  1.00  0.00     0.220 C 
HETATM   25  N   UNL     1       2.881  -0.713  -1.551  1.00  0.00    -0.349 N 
HETATM   26  C   UNL     1       3.007  -2.151  -1.831  1.00  0.00     0.145 C 
HETATM   27  C   UNL     1       4.055  -0.132  -0.879  1.00  0.00     0.145 C 
HETATM   28  C   UNL     1       4.318  -2.485  -2.566  1.00  0.00     0.143 C 
HETATM   29  N   UNL     1       5.492  -1.954  -1.832  1.00  0.00    -0.375 N 
HETATM   30  C   UNL     1       5.385  -0.507  -1.563  1.00  0.00     0.143 C 
HETATM   31  O   UNL     1       0.614  -0.845  -1.833  1.00  0.00    -0.273 OA
BRANCH  29  32
HETATM   32  C   UNL     1       6.109  -2.815  -0.918  1.00  0.00     0.069 A 
HETATM   33  C   UNL     1       6.405  -2.500   0.422  1.00  0.00     0.142 A 
HETATM   34  F   UNL     1       6.065  -1.310   0.944  1.00  0.00    -0.204 F 
HETATM   35  C   UNL     1       7.036  -3.405   1.281  1.00  0.00     0.044 A 
HETATM   36  C   UNL     1       7.415  -4.660   0.819  1.00  0.00     0.003 A 
HETATM   37  C   UNL     1       7.165  -5.000  -0.504  1.00  0.00     0.002 A 
HETATM   38  C   UNL     1       6.527  -4.088  -1.355  1.00  0.00     0.032 A 
ENDBRANCH  29  32
ENDBRANCH  23  24
ENDBRANCH  20  23
ENDBRANCH   1  20
TORSDOF 7
