REMARK  4 active torsions:
REMARK  status: ('A' for Active; 'I' for Inactive)
REMARK    1  A    between atoms: C_2  and  O_3 
REMARK    2  A    between atoms: O_3  and  C_4 
REMARK    3  A    between atoms: C_4  and  C_5 
REMARK    4  A    between atoms: C_9  and  N_10 
ROOT
HETATM    1  C   UNL     1       5.282  -0.321   0.302  1.00  0.00     0.109 A 
HETATM    2  S   UNL     1       6.356  -1.154  -0.743  1.00  0.00    -0.063 SA
HETATM    3  C   UNL     1       6.905   0.287  -1.427  1.00  0.00     0.088 A 
HETATM    4  C   UNL     1       6.338   1.433  -0.900  1.00  0.00     0.033 A 
HETATM    5  C   UNL     1       5.370   1.051   0.102  1.00  0.00     0.063 A 
HETATM    6  N   UNL     1       7.833   0.288  -2.414  1.00  0.00    -0.353 N 
HETATM    7  H   UNL     1       8.183  -0.616  -2.727  1.00  0.00     0.166 HD
HETATM    8  C   UNL     1       8.260   1.432  -2.958  1.00  0.00     0.015 A 
HETATM    9  C   UNL     1       9.277   1.330  -4.054  1.00  0.00     0.069 C 
HETATM   10  C   UNL     1       7.743   2.653  -2.494  1.00  0.00    -0.005 A 
HETATM   11  C   UNL     1       6.799   2.675  -1.430  1.00  0.00    -0.030 A 
HETATM   12  C   UNL     1       6.280   4.017  -0.945  1.00  0.00     0.077 C 
HETATM   13  C   UNL     1       7.132   5.220  -1.385  1.00  0.00     0.058 C 
HETATM   14  C   UNL     1       8.401   5.380  -0.532  1.00  0.00     0.046 C 
HETATM   15  C   UNL     1       6.301   6.504  -1.260  1.00  0.00     0.046 C 
HETATM   16  O   UNL     1       7.435   5.080  -2.777  1.00  0.00    -0.376 OA
HETATM   17  C   UNL     1       8.237   3.954  -3.100  1.00  0.00     0.210 C 
ENDROOT
BRANCH   1  18
HETATM   18  C   UNL     1       4.408  -1.027   1.231  1.00  0.00     0.302 C 
HETATM   19  O   UNL     1       3.602  -0.479   1.974  1.00  0.00    -0.259 OA
BRANCH  18  20
HETATM   20  O   UNL     1       4.588  -2.377   1.155  1.00  0.00    -0.317 OA
BRANCH  20  21
HETATM   21  C   UNL     1       3.761  -3.172   2.022  1.00  0.00     0.174 C 
HETATM   22  C   UNL     1       2.418  -3.437   1.368  1.00  0.00     0.034 C 
ENDBRANCH  20  21
ENDBRANCH  18  20
ENDBRANCH   1  18
BRANCH   5  23
HETATM   23  N   UNL     1       4.606   1.923   0.794  1.00  0.00    -0.397 N 
HETATM   24  H   UNL     1       4.431   2.884   0.516  1.00  0.00     0.156 HD
HETATM   25  H   UNL     1       3.889   1.589   1.450  1.00  0.00     0.156 HD
ENDBRANCH   5  23
TORSDOF 4
