REMARK  5 active torsions:
REMARK  status: ('A' for Active; 'I' for Inactive)
REMARK    1  A    between atoms: O_2  and  C_3 
REMARK    2  A    between atoms: C_4  and  O_5 
REMARK    3  A    between atoms: C_10  and  C_11 
REMARK    4  A    between atoms: C_13  and  O_14 
REMARK    5  A    between atoms: O_14  and  C_15 
ROOT
HETATM    1  C   UNL     1       3.125   1.280  -0.193  1.00  0.00     0.102 A 
HETATM    2  C   UNL     1       2.463   2.524  -0.173  1.00  0.00     0.103 A 
HETATM    3  C   UNL     1       3.180   3.694  -0.448  1.00  0.00     0.069 A 
HETATM    4  C   UNL     1       4.538   3.624  -0.762  1.00  0.00     0.044 A 
HETATM    5  C   UNL     1       5.203   2.396  -0.790  1.00  0.00    -0.020 A 
HETATM    6  C   UNL     1       6.691   2.344  -1.061  1.00  0.00     0.063 C 
HETATM    7  C   UNL     1       7.155   3.544  -1.892  1.00  0.00     0.117 C 
HETATM    8  C   UNL     1       6.539   4.851  -1.457  1.00  0.00     0.223 C 
HETATM    9  O   UNL     1       7.119   5.927  -1.592  1.00  0.00    -0.273 OA
HETATM   10  N   UNL     1       5.245   4.803  -1.017  1.00  0.00    -0.327 N 
HETATM   11  C   UNL     1       4.488   1.224  -0.504  1.00  0.00     0.049 A 
HETATM   12  H   UNL     1       4.810   5.702  -0.849  1.00  0.00     0.169 HD
ENDROOT
BRANCH   6  13
HETATM   13  C   UNL     1       7.531   2.171   0.200  1.00  0.00    -0.046 A 
HETATM   14  C   UNL     1       7.456   3.080   1.267  1.00  0.00     0.045 A 
HETATM   15  C   UNL     1       8.325   2.977   2.358  1.00  0.00     0.076 A 
HETATM   16  C   UNL     1       9.211   1.905   2.442  1.00  0.00     0.037 A 
HETATM   17  C   UNL     1       9.269   0.969   1.411  1.00  0.00     0.003 A 
HETATM   18  C   UNL     1       8.446   1.109   0.291  1.00  0.00     0.008 A 
BRANCH  15  19
HETATM   19  O   UNL     1       8.333   3.867   3.409  1.00  0.00    -0.311 OA
BRANCH  19  20
HETATM   20  C   UNL     1       8.134   5.205   3.145  1.00  0.00     0.076 A 
HETATM   21  C   UNL     1       7.414   5.924   4.102  1.00  0.00     0.037 A 
HETATM   22  C   UNL     1       7.166   7.285   3.915  1.00  0.00     0.003 A 
HETATM   23  C   UNL     1       7.642   7.930   2.773  1.00  0.00     0.000 A 
HETATM   24  C   UNL     1       8.385   7.221   1.830  1.00  0.00     0.003 A 
HETATM   25  C   UNL     1       8.651   5.865   2.026  1.00  0.00     0.037 A 
ENDBRANCH  19  20
ENDBRANCH  15  19
ENDBRANCH   6  13
BRANCH   1  26
HETATM   26  O   UNL     1       2.357   0.176   0.085  1.00  0.00    -0.353 OA
HETATM   27  C   UNL     1       3.044  -1.012   0.451  1.00  0.00     0.210 C 
ENDBRANCH   1  26
BRANCH   2  28
HETATM   28  O   UNL     1       1.125   2.486   0.133  1.00  0.00    -0.353 OA
HETATM   29  C   UNL     1       0.426   3.720   0.205  1.00  0.00     0.210 C 
ENDBRANCH   2  28
TORSDOF 5
