REMARK  4 active torsions:
REMARK  status: ('A' for Active; 'I' for Inactive)
REMARK    1  A    between atoms: C_6  and  C_7 
REMARK    2  A    between atoms: C_8  and  C_9 
REMARK       I    between atoms: C_9  and  N_10 
REMARK    3  A    between atoms: N_10  and  C_11 
REMARK    4  A    between atoms: C_18  and  C_19 
REMARK       I    between atoms: C_19  and  N_20 
ROOT
HETATM    1  C   UNL     1      -4.388  -4.806  -2.914  1.00  0.00     0.035 A 
HETATM    2  C   UNL     1      -4.389  -4.558  -4.293  1.00  0.00     0.046 A 
HETATM    3  C   UNL     1      -5.517  -4.906  -5.067  1.00  0.00     0.030 A 
HETATM    4  C   UNL     1      -6.607  -5.490  -4.436  1.00  0.00     0.063 A 
HETATM    5  N   UNL     1      -7.528  -5.697  -5.425  1.00  0.00    -0.277 N 
HETATM    6  H   UNL     1      -8.452  -6.103  -5.328  1.00  0.00     0.189 HD
HETATM    7  N   UNL     1      -7.130  -5.309  -6.648  1.00  0.00    -0.168 NA
HETATM    8  C   UNL     1      -5.886  -4.819  -6.443  1.00  0.00     0.156 A 
HETATM    9  C   UNL     1      -6.640  -5.760  -3.066  1.00  0.00     0.034 A 
HETATM   10  C   UNL     1      -5.505  -5.410  -2.322  1.00  0.00     0.032 A 
ENDROOT
BRANCH   1  11
HETATM   11  N   UNL     1      -3.318  -4.464  -2.059  1.00  0.00    -0.327 N 
HETATM   12  C   UNL     1      -2.179  -3.766  -2.397  1.00  0.00     0.227 C 
HETATM   13  O   UNL     1      -1.847  -3.377  -3.505  1.00  0.00    -0.273 OA
HETATM   14  H   UNL     1      -3.422  -4.718  -1.089  1.00  0.00     0.169 HD
BRANCH  12  15
HETATM   15  C   UNL     1      -1.275  -3.437  -1.261  1.00  0.00     0.087 A 
HETATM   16  C   UNL     1      -1.527  -2.087  -0.595  1.00  0.00     0.032 A 
HETATM   17  C   UNL     1      -1.616  -3.359   0.201  1.00  0.00     0.025 A 
BRANCH  16  18
HETATM   18  C   UNL     1      -0.376  -1.120  -0.507  1.00  0.00    -0.051 A 
HETATM   19  C   UNL     1       0.188  -0.729   0.716  1.00  0.00     0.031 A 
HETATM   20  C   UNL     1       1.230   0.202   0.759  1.00  0.00     0.034 A 
HETATM   21  C   UNL     1       1.725   0.768  -0.413  1.00  0.00     0.024 A 
HETATM   22 CL   UNL     1       1.902   0.659   2.276  1.00  0.00    -0.084 Cl
HETATM   23  C   UNL     1       1.176   0.398  -1.637  1.00  0.00     0.002 A 
HETATM   24  C   UNL     1       0.139  -0.535  -1.678  1.00  0.00     0.007 A 
ENDBRANCH  16  18
ENDBRANCH  12  15
ENDBRANCH   1  11
BRANCH   8  25
HETATM   25  C   UNL     1      -5.085  -4.284  -7.553  1.00  0.00     0.270 C 
HETATM   26  N   UNL     1      -5.712  -4.330  -8.768  1.00  0.00    -0.365 N 
HETATM   27  H   UNL     1      -6.645  -4.720  -8.818  1.00  0.00     0.159 HD
HETATM   28  H   UNL     1      -5.234  -3.992  -9.588  1.00  0.00     0.159 HD
HETATM   29  O   UNL     1      -3.951  -3.830  -7.443  1.00  0.00    -0.266 OA
ENDBRANCH   8  25
TORSDOF 4
