REMARK  7 active torsions:
REMARK  status: ('A' for Active; 'I' for Inactive)
REMARK    1  A    between atoms: C_7  and  C_8 
REMARK    2  A    between atoms: C_8  and  C_9 
REMARK    3  A    between atoms: C_9  and  C_10 
REMARK    4  A    between atoms: C_10  and  O_11 
REMARK    5  A    between atoms: C_13  and  C_14 
REMARK    6  A    between atoms: C_21  and  C_22 
REMARK       I    between atoms: C_22  and  N_23 
REMARK    7  A    between atoms: N_23  and  C_24 
ROOT
HETATM    1  C   UNL     1       1.023   0.059  -0.696  1.00  0.00     0.070 C 
HETATM    2  C   UNL     1       2.414  -0.025  -0.118  1.00  0.00     0.037 C 
HETATM    3  N   UNL     1       3.048   1.194   0.098  1.00  0.00    -0.192 N 
HETATM    4  C   UNL     1       4.360   1.298   0.385  1.00  0.00     0.726 A 
HETATM    5  N   UNL     1       5.089   0.167   0.629  1.00  0.00    -0.083 N 
HETATM    6  N   UNL     1       6.394   0.454   0.821  1.00  0.00    -0.140 NA
HETATM    7  C   UNL     1       6.376   1.790   0.711  1.00  0.00     0.166 A 
HETATM    8  N   UNL     1       5.144   2.343   0.447  1.00  0.00    -0.046 NA
HETATM    9  C   UNL     1       4.531  -1.190   0.602  1.00  0.00     0.202 C 
HETATM   10  C   UNL     1       3.081  -1.180   0.128  1.00  0.00     0.062 C 
HETATM   11  H   UNL     1       2.555   2.038  -0.181  1.00  0.00     0.184 HD
ENDROOT
BRANCH  10  12
HETATM   12  C   UNL     1       2.531  -2.536  -0.131  1.00  0.00     0.256 C 
HETATM   13  N   UNL     1       1.352  -2.786   0.537  1.00  0.00    -0.323 N 
HETATM   14  H   UNL     1       0.989  -2.043   1.120  1.00  0.00     0.169 HD
HETATM   15  O   UNL     1       3.168  -3.302  -0.841  1.00  0.00    -0.267 OA
BRANCH  13  16
HETATM   16  C   UNL     1       0.585  -3.969   0.499  1.00  0.00     0.035 A 
HETATM   17  C   UNL     1       0.969  -5.126  -0.183  1.00  0.00     0.031 A 
HETATM   18  C   UNL     1       0.148  -6.260  -0.177  1.00  0.00     0.026 A 
HETATM   19  C   UNL     1      -1.064  -6.237   0.506  1.00  0.00     0.034 A 
HETATM   20 CL   UNL     1      -2.076  -7.628   0.505  1.00  0.00    -0.084 Cl
HETATM   21  C   UNL     1      -1.460  -5.092   1.189  1.00  0.00     0.026 A 
HETATM   22  C   UNL     1      -0.635  -3.963   1.189  1.00  0.00     0.031 A 
ENDBRANCH  13  16
ENDBRANCH  10  12
BRANCH   9  23
HETATM   23  C   UNL     1       4.680  -1.858   1.968  1.00  0.00    -0.025 A 
HETATM   24  C   UNL     1       5.290  -3.121   2.057  1.00  0.00     0.052 A 
HETATM   25  C   UNL     1       5.414  -3.751   3.291  1.00  0.00     0.117 A 
HETATM   26  F   UNL     1       6.002  -4.953   3.361  1.00  0.00    -0.206 F 
HETATM   27  C   UNL     1       4.936  -3.156   4.452  1.00  0.00     0.042 A 
HETATM   28  C   UNL     1       4.321  -1.909   4.380  1.00  0.00     0.004 A 
HETATM   29  C   UNL     1       4.190  -1.264   3.146  1.00  0.00     0.010 A 
ENDBRANCH   9  23
BRANCH   7  30
HETATM   30  C   UNL     1       7.600   2.619   0.855  1.00  0.00     0.085 C 
BRANCH  30  31
HETATM   31  C   UNL     1       7.530   3.605   2.018  1.00  0.00     0.034 C 
BRANCH  31  32
HETATM   32  C   UNL     1       7.436   2.917   3.375  1.00  0.00     0.164 C 
BRANCH  32  33
HETATM   33  O   UNL     1       7.460   3.895   4.409  1.00  0.00    -0.401 OA
HETATM   34  H   UNL     1       8.310   4.364   4.350  1.00  0.00     0.209 HD
ENDBRANCH  32  33
ENDBRANCH  31  32
ENDBRANCH  30  31
ENDBRANCH   7  30
TORSDOF 7
