REMARK  10 active torsions:
REMARK  status: ('A' for Active; 'I' for Inactive)
REMARK    1  A    between atoms: N_7  and  C_8 
REMARK    2  A    between atoms: C_8  and  C_9 
REMARK       I    between atoms: C_9  and  N_10 
REMARK    3  A    between atoms: N_10  and  C_11 
REMARK    4  A    between atoms: C_11  and  C_12 
REMARK    5  A    between atoms: C_12  and  C_13 
REMARK    6  A    between atoms: C_13  and  C_14 
REMARK       I    between atoms: C_14  and  N_15 
REMARK    7  A    between atoms: N_15  and  C_16 
REMARK    8  A    between atoms: C_16  and  C_17 
REMARK    9  A    between atoms: C_17  and  C_18 
REMARK   10  A    between atoms: C_18  and  N_19 
ROOT
HETATM    1  C   UNL     1       6.790   3.272   0.412  1.00  0.00     0.123 C 
ENDROOT
BRANCH   1   2
HETATM    2  N   UNL     1       6.570   4.445   1.232  1.00  0.00    -0.360 N 
HETATM    3  C   UNL     1       7.174   5.654   0.937  1.00  0.00     0.235 C 
HETATM    4  O   UNL     1       7.946   5.794  -0.008  1.00  0.00    -0.272 OA
HETATM    5  H   UNL     1       6.009   4.354   2.071  1.00  0.00     0.162 HD
BRANCH   3   6
HETATM    6  C   UNL     1       6.737   6.810   1.837  1.00  0.00     0.235 C 
BRANCH   6   7
HETATM    7  N   UNL     1       7.807   7.783   1.962  1.00  0.00    -0.299 N 
HETATM    8  C   UNL     1       7.876   8.856   1.094  1.00  0.00     0.214 A 
HETATM    9  N   UNL     1       8.762   9.797   1.133  1.00  0.00    -0.235 NA
HETATM   10  C   UNL     1       9.675   9.665   2.128  1.00  0.00     0.115 A 
HETATM   11  C   UNL     1       9.766   8.631   3.033  1.00  0.00     0.075 A 
HETATM   12  S   UNL     1      10.878  10.837   2.386  1.00  0.00    -0.074 SA
HETATM   13  C   UNL     1      10.859   8.792   3.959  1.00  0.00    -0.031 A 
HETATM   14  C   UNL     1       8.777   7.569   2.938  1.00  0.00     0.262 A 
HETATM   15  C   UNL     1      11.199   7.812   5.037  1.00  0.00     0.050 C 
HETATM   16  C   UNL     1      11.524   9.989   3.726  1.00  0.00    -0.012 A 
HETATM   17  C   UNL     1      12.681  10.578   4.467  1.00  0.00     0.057 C 
HETATM   18  O   UNL     1       8.792   6.570   3.655  1.00  0.00    -0.267 OA
ENDBRANCH   6   7
ENDBRANCH   3   6
ENDBRANCH   1   2
BRANCH   1  19
HETATM   19  C   UNL     1       8.158   2.638   0.660  1.00  0.00     0.029 C 
BRANCH  19  20
HETATM   20  C   UNL     1       8.445   1.546  -0.368  1.00  0.00     0.104 C 
BRANCH  20  21
HETATM   21  C   UNL     1       9.810   0.909  -0.202  1.00  0.00     0.217 C 
HETATM   22  N   UNL     1      10.875   1.777  -0.219  1.00  0.00    -0.361 N 
HETATM   23  H   UNL     1      10.695   2.748  -0.467  1.00  0.00     0.162 HD
HETATM   24  O   UNL     1       9.969  -0.306  -0.088  1.00  0.00    -0.274 OA
BRANCH  22  25
HETATM   25  C   UNL     1      12.247   1.321  -0.279  1.00  0.00     0.124 C 
BRANCH  25  26
HETATM   26  C   UNL     1      12.867   1.018   1.085  1.00  0.00     0.047 C 
BRANCH  26  27
HETATM   27  C   UNL     1      12.228  -0.096   1.919  1.00  0.00     0.236 C 
BRANCH  27  28
HETATM   28  N   UNL     1      12.023  -1.397   1.175  1.00  0.00    -0.070 N 
HETATM   29  H   UNL     1      11.373  -1.157   0.396  1.00  0.00     0.279 HD
HETATM   30  C   UNL     1      13.285  -2.012   0.637  1.00  0.00     0.239 C 
HETATM   31  C   UNL     1      12.985  -3.259  -0.199  1.00  0.00     0.008 C 
HETATM   32  C   UNL     1      12.356  -2.906  -1.550  1.00  0.00     0.011 C 
HETATM   33  C   UNL     1      12.125  -4.256   0.588  1.00  0.00     0.011 C 
HETATM   34  C   UNL     1      10.870  -3.607   1.181  1.00  0.00     0.008 C 
HETATM   35  C   UNL     1      10.097  -4.617   2.029  1.00  0.00     0.011 C 
HETATM   36  C   UNL     1      11.234  -2.378   2.017  1.00  0.00     0.239 C 
ENDBRANCH  27  28
ENDBRANCH  26  27
ENDBRANCH  25  26
ENDBRANCH  22  25
ENDBRANCH  20  21
ENDBRANCH  19  20
ENDBRANCH   1  19
TORSDOF 10
