REMARK  6 active torsions:
REMARK  status: ('A' for Active; 'I' for Inactive)
REMARK    1  A    between atoms: C_2  and  C_3 
REMARK    2  A    between atoms: C_6  and  C_7 
REMARK    3  A    between atoms: C_11  and  C_12 
REMARK       I    between atoms: C_12  and  N_13 
REMARK    4  A    between atoms: N_13  and  N_14 
REMARK    5  A    between atoms: C_15  and  C_16 
REMARK    6  A    between atoms: C_17  and  O_18 
ROOT
HETATM    1  C   UNL     1       6.549   6.986   4.577  1.00  0.00     0.289 C 
HETATM    2  N   UNL     1       7.272   6.166   5.430  1.00  0.00    -0.241 N 
HETATM    3  O   UNL     1       6.660   8.209   4.549  1.00  0.00    -0.264 OA
HETATM    4  H   UNL     1       7.124   5.168   5.419  1.00  0.00     0.192 HD
ENDROOT
BRANCH   1   5
HETATM    5  C   UNL     1       5.621   6.294   3.718  1.00  0.00     0.121 A 
HETATM    6  N   UNL     1       4.764   6.975   2.901  1.00  0.00    -0.272 N 
HETATM    7  N   UNL     1       3.955   6.190   2.175  1.00  0.00    -0.174 NA
HETATM    8  H   UNL     1       4.686   7.984   2.807  1.00  0.00     0.189 HD
HETATM    9  C   UNL     1       4.313   4.938   2.498  1.00  0.00     0.089 A 
HETATM   10  C   UNL     1       5.350   4.962   3.475  1.00  0.00     0.071 A 
BRANCH   9  11
HETATM   11  C   UNL     1       3.673   3.767   1.890  1.00  0.00    -0.006 A 
HETATM   12  C   UNL     1       4.282   2.505   1.929  1.00  0.00     0.014 A 
HETATM   13  C   UNL     1       3.663   1.392   1.349  1.00  0.00     0.008 A 
HETATM   14  C   UNL     1       2.423   1.518   0.714  1.00  0.00    -0.059 A 
HETATM   15  C   UNL     1       1.809   2.775   0.675  1.00  0.00     0.008 A 
HETATM   16  C   UNL     1       2.430   3.887   1.252  1.00  0.00     0.014 A 
BRANCH  14  17
HETATM   17  C   UNL     1       1.750   0.315   0.105  1.00  0.00     0.034 C 
HETATM   18  C   UNL     1       0.949  -0.467   1.134  1.00  0.00     0.010 C 
ENDBRANCH  14  17
ENDBRANCH   9  11
ENDBRANCH   1   5
BRANCH   2  19
HETATM   19  N   UNL     1       8.226   6.703   6.239  1.00  0.00    -0.176 NA
HETATM   20  C   UNL     1       8.792   5.964   7.151  1.00  0.00     0.064 C 
HETATM   21  C   UNL     1       8.398   4.527   7.430  1.00  0.00     0.073 C 
BRANCH  20  22
HETATM   22  C   UNL     1       9.889   6.587   7.967  1.00  0.00     0.023 A 
HETATM   23  C   UNL     1      10.029   7.984   8.030  1.00  0.00     0.077 A 
HETATM   24  C   UNL     1      11.038   8.566   8.797  1.00  0.00     0.037 A 
HETATM   25  C   UNL     1      11.932   7.763   9.500  1.00  0.00     0.003 A 
HETATM   26  C   UNL     1      11.821   6.376   9.431  1.00  0.00     0.001 A 
HETATM   27  C   UNL     1      10.809   5.789   8.664  1.00  0.00     0.016 A 
BRANCH  23  28
HETATM   28  O   UNL     1       9.212   8.860   7.366  1.00  0.00    -0.360 OA
HETATM   29  H   UNL     1       8.646   8.347   6.745  1.00  0.00     0.217 HD
ENDBRANCH  23  28
ENDBRANCH  20  22
ENDBRANCH   2  19
TORSDOF 6
