REMARK  2 active torsions:
REMARK  status: ('A' for Active; 'I' for Inactive)
REMARK    1  A    between atoms: C_9  and  O_10 
REMARK    2  A    between atoms: C_9  and  C_11 
ROOT
HETATM    1  C   UNL     1       0.953  -0.159   0.008  1.00  0.00     0.048 C 
HETATM    2  C   UNL     1       2.451  -0.056   0.016  1.00  0.00    -0.061 A 
HETATM    3  C   UNL     1       3.079   1.198  -0.008  1.00  0.00     0.020 A 
HETATM    4  C   UNL     1       4.467   1.249   0.024  1.00  0.00     0.018 A 
HETATM    5  C   UNL     1       5.212   0.070   0.058  1.00  0.00     0.045 A 
HETATM    6  N   UNL     1       6.569   0.351   0.066  1.00  0.00    -0.323 N 
HETATM    7  C   UNL     1       6.806   1.727   0.042  1.00  0.00     0.266 A 
HETATM    8  O   UNL     1       7.920   2.229   0.022  1.00  0.00    -0.269 OA
HETATM    9  C   UNL     1       5.401   2.442  -0.007  1.00  0.00     0.198 A 
HETATM   10  C   UNL     1       4.627  -1.178   0.072  1.00  0.00     0.031 A 
HETATM   11  C   UNL     1       3.231  -1.234   0.052  1.00  0.00     0.009 A 
HETATM   12  H   UNL     1       7.316  -0.326   0.091  1.00  0.00     0.169 HD
ENDROOT
BRANCH   9  13
HETATM   13  O   UNL     1       5.224   3.164  -1.217  1.00  0.00    -0.371 OA
HETATM   14  H   UNL     1       5.154   2.503  -1.924  1.00  0.00     0.212 HD
ENDBRANCH   9  13
BRANCH   9  15
HETATM   15  C   UNL     1       5.105   3.241   1.239  1.00  0.00     0.018 A 
HETATM   16  C   UNL     1       4.273   4.414   1.344  1.00  0.00     0.002 A 
HETATM   17  C   UNL     1       4.265   4.814   2.682  1.00  0.00     0.043 A 
HETATM   18  C   UNL     1       3.518   5.175   0.424  1.00  0.00     0.014 A 
HETATM   19  C   UNL     1       3.549   5.927   3.141  1.00  0.00     0.030 A 
HETATM   20  N   UNL     1       5.060   3.933   3.371  1.00  0.00    -0.365 N 
HETATM   21  C   UNL     1       2.813   6.659   2.206  1.00  0.00     0.002 A 
HETATM   22  C   UNL     1       2.796   6.290   0.865  1.00  0.00     0.001 A 
HETATM   23  H   UNL     1       5.243   3.984   4.364  1.00  0.00     0.165 HD
HETATM   24  C   UNL     1       5.562   2.984   2.525  1.00  0.00     0.100 A 
ENDBRANCH   9  15
TORSDOF 2
