REMARK  9 active torsions:
REMARK  status: ('A' for Active; 'I' for Inactive)
REMARK    1  A    between atoms: C_4  and  C_5 
REMARK    2  A    between atoms: C_8  and  C_9 
REMARK       I    between atoms: C_9  and  N_10 
REMARK    3  A    between atoms: N_10  and  C_11 
REMARK    4  A    between atoms: N_10  and  C_26 
REMARK    5  A    between atoms: C_11  and  C_12 
REMARK    6  A    between atoms: C_11  and  C_21 
REMARK       I    between atoms: C_12  and  N_13 
REMARK    7  A    between atoms: N_13  and  C_14 
REMARK    8  A    between atoms: C_14  and  C_15 
REMARK    9  A    between atoms: C_26  and  C_27 
ROOT
HETATM    1  C   UNL     1       5.995   1.546  -0.841  1.00  0.00     0.271 C 
HETATM    2  N   UNL     1       7.332   1.202  -0.613  1.00  0.00    -0.324 N 
HETATM    3  O   UNL     1       5.703   2.562  -1.474  1.00  0.00    -0.266 OA
ENDROOT
BRANCH   2   4
HETATM    4  C   UNL     1       8.402   2.190  -0.900  1.00  0.00     0.220 C 
BRANCH   4   5
HETATM    5  C   UNL     1       8.735   2.382  -2.413  1.00  0.00     0.245 C 
HETATM    6  N   UNL     1       7.670   2.340  -3.284  1.00  0.00    -0.357 N 
HETATM    7  H   UNL     1       6.749   2.491  -2.871  1.00  0.00     0.162 HD
HETATM    8  O   UNL     1       9.874   2.658  -2.794  1.00  0.00    -0.271 OA
BRANCH   6   9
HETATM    9  C   UNL     1       7.795   2.614  -4.704  1.00  0.00     0.154 C 
BRANCH   9  10
HETATM   10  C   UNL     1       8.627   1.580  -5.467  1.00  0.00     0.139 C 
HETATM   11  O   UNL     1       8.048   0.262  -5.367  1.00  0.00    -0.384 OA
HETATM   12  C   UNL     1       8.327  -0.441  -6.588  1.00  0.00     0.168 C 
HETATM   13  C   UNL     1       9.063   0.514  -7.508  1.00  0.00     0.029 C 
HETATM   14  C   UNL     1       8.682   1.865  -6.958  1.00  0.00     0.035 C 
ENDBRANCH   9  10
ENDBRANCH   6   9
ENDBRANCH   4   5
BRANCH   4  15
HETATM   15  C   UNL     1       8.221   3.537  -0.206  1.00  0.00     0.014 A 
HETATM   16  S   UNL     1       7.538   3.651   1.374  1.00  0.00    -0.104 SA
HETATM   17  C   UNL     1       7.735   5.344   1.429  1.00  0.00     0.050 A 
HETATM   18  C   UNL     1       8.343   5.828   0.296  1.00  0.00     0.008 A 
HETATM   19  C   UNL     1       8.627   4.792  -0.639  1.00  0.00     0.017 A 
ENDBRANCH   4  15
ENDBRANCH   2   4
BRANCH   2  20
HETATM   20  C   UNL     1       7.742  -0.201  -0.724  1.00  0.00     0.173 C 
BRANCH  20  21
HETATM   21  C   UNL     1       8.196  -0.767   0.596  1.00  0.00     0.000 A 
HETATM   22  S   UNL     1       8.352  -2.475   0.738  1.00  0.00    -0.105 SA
HETATM   23  C   UNL     1       8.857  -2.368   2.366  1.00  0.00     0.050 A 
HETATM   24  C   UNL     1       8.919  -1.065   2.801  1.00  0.00     0.008 A 
HETATM   25  C   UNL     1       8.548  -0.144   1.779  1.00  0.00     0.017 A 
ENDBRANCH  20  21
ENDBRANCH   2  20
BRANCH   1  26
HETATM   26  C   UNL     1       4.965   0.656  -0.347  1.00  0.00     0.101 A 
HETATM   27  N   UNL     1       4.996  -0.038   0.842  1.00  0.00    -0.351 N 
HETATM   28  C   UNL     1       3.843  -0.773   1.022  1.00  0.00     0.043 A 
HETATM   29  H   UNL     1       5.750   0.015   1.514  1.00  0.00     0.166 HD
HETATM   30  C   UNL     1       3.039  -0.502  -0.072  1.00  0.00     0.033 A 
HETATM   31  C   UNL     1       3.728   0.401  -0.913  1.00  0.00     0.037 A 
BRANCH  28  32
HETATM   32  C   UNL     1       3.595  -1.609   2.202  1.00  0.00    -0.009 A 
HETATM   33  C   UNL     1       2.287  -1.804   2.668  1.00  0.00     0.013 A 
HETATM   34  C   UNL     1       2.036  -2.601   3.788  1.00  0.00     0.001 A 
HETATM   35  C   UNL     1       3.091  -3.216   4.457  1.00  0.00     0.000 A 
HETATM   36  C   UNL     1       4.396  -3.034   4.005  1.00  0.00     0.001 A 
HETATM   37  C   UNL     1       4.646  -2.236   2.885  1.00  0.00     0.013 A 
ENDBRANCH  28  32
ENDBRANCH   1  26
TORSDOF 9
