REMARK  8 active torsions:
REMARK  status: ('A' for Active; 'I' for Inactive)
REMARK    1  A    between atoms: C_2  and  C_3 
REMARK    2  A    between atoms: C_3  and  N_4 
REMARK       I    between atoms: N_4  and  C_5 
REMARK    3  A    between atoms: N_4  and  C_20 
REMARK    4  A    between atoms: C_5  and  C_6 
REMARK    5  A    between atoms: C_10  and  C_11 
REMARK    6  A    between atoms: C_12  and  O_13 
REMARK    7  A    between atoms: C_20  and  C_21 
REMARK    8  A    between atoms: C_21  and  C_22 
ROOT
HETATM    1  C   UNL     1       6.702  -0.185  -0.252  1.00  0.00     0.120 A 
HETATM    2  N   UNL     1       7.487   0.745  -0.877  1.00  0.00    -0.272 N 
HETATM    3  H   UNL     1       7.164   1.482  -1.499  1.00  0.00     0.189 HD
HETATM    4  N   UNL     1       8.800   0.635  -0.619  1.00  0.00    -0.174 NA
HETATM    5  C   UNL     1       8.885  -0.382   0.257  1.00  0.00     0.092 A 
HETATM    6  C   UNL     1       7.586  -0.893   0.539  1.00  0.00     0.071 A 
ENDROOT
BRANCH   1   7
HETATM    7  C   UNL     1       5.270  -0.171  -0.448  1.00  0.00     0.271 C 
HETATM    8  N   UNL     1       4.495  -1.319  -0.206  1.00  0.00    -0.346 N 
HETATM    9  O   UNL     1       4.743   0.870  -0.843  1.00  0.00    -0.266 OA
BRANCH   8  10
HETATM   10  C   UNL     1       3.044  -1.123  -0.082  1.00  0.00     0.126 C 
BRANCH  10  11
HETATM   11  C   UNL     1       2.555  -1.140   1.369  1.00  0.00     0.015 C 
HETATM   12  C   UNL     1       3.045   0.054   2.173  1.00  0.00     0.006 C 
ENDBRANCH  10  11
ENDBRANCH   8  10
BRANCH   8  13
HETATM   13  C   UNL     1       5.058  -2.651   0.080  1.00  0.00     0.130 C 
BRANCH  13  14
HETATM   14  C   UNL     1       4.227  -3.855  -0.400  1.00  0.00     0.058 C 
BRANCH  14  15
HETATM   15  C   UNL     1       4.818  -5.218  -0.101  1.00  0.00    -0.057 A 
HETATM   16  C   UNL     1       3.947  -6.288   0.164  1.00  0.00     0.007 A 
HETATM   17  C   UNL     1       4.439  -7.572   0.407  1.00  0.00     0.001 A 
HETATM   18  C   UNL     1       5.810  -7.809   0.381  1.00  0.00     0.000 A 
HETATM   19  C   UNL     1       6.687  -6.764   0.101  1.00  0.00     0.001 A 
HETATM   20  C   UNL     1       6.195  -5.479  -0.148  1.00  0.00     0.007 A 
ENDBRANCH  14  15
ENDBRANCH  13  14
ENDBRANCH   8  13
ENDBRANCH   1   7
BRANCH   5  21
HETATM   21  C   UNL     1      10.184  -0.809   0.801  1.00  0.00     0.028 A 
HETATM   22  C   UNL     1      11.352  -0.046   0.614  1.00  0.00     0.078 A 
HETATM   23  C   UNL     1      12.579  -0.454   1.137  1.00  0.00     0.037 A 
HETATM   24  C   UNL     1      12.666  -1.645   1.853  1.00  0.00     0.003 A 
HETATM   25  C   UNL     1      11.526  -2.423   2.044  1.00  0.00     0.001 A 
HETATM   26  C   UNL     1      10.295  -2.009   1.523  1.00  0.00     0.017 A 
BRANCH  22  27
HETATM   27  O   UNL     1      11.363   1.133  -0.087  1.00  0.00    -0.360 OA
HETATM   28  H   UNL     1      10.454   1.241  -0.452  1.00  0.00     0.217 HD
ENDBRANCH  22  27
ENDBRANCH   5  21
TORSDOF 8
