REMARK  7 active torsions:
REMARK  status: ('A' for Active; 'I' for Inactive)
REMARK    1  A    between atoms: C_2  and  C_3 
REMARK    2  A    between atoms: C_3  and  N_4 
REMARK    3  A    between atoms: C_7  and  C_8 
REMARK       I    between atoms: C_8  and  N_9 
REMARK    4  A    between atoms: N_9  and  C_10 
REMARK    5  A    between atoms: C_11  and  O_12 
REMARK    6  A    between atoms: C_16  and  C_17 
REMARK       I    between atoms: C_17  and  N_18 
REMARK    7  A    between atoms: C_23  and  C_24 
ROOT
HETATM    1  C   UNL     1       2.985   6.171  -0.159  1.00  0.00     0.259 C 
HETATM    2  N   UNL     1       3.158   7.053   0.879  1.00  0.00    -0.320 N 
HETATM    3  O   UNL     1       2.762   6.651  -1.272  1.00  0.00    -0.267 OA
HETATM    4  H   UNL     1       2.761   7.965   0.669  1.00  0.00     0.169 HD
ENDROOT
BRANCH   2   5
HETATM    5  C   UNL     1       3.749   6.960   2.152  1.00  0.00     0.069 A 
HETATM    6  C   UNL     1       3.341   7.921   3.103  1.00  0.00     0.095 A 
HETATM    7  C   UNL     1       3.883   7.908   4.388  1.00  0.00     0.040 A 
HETATM    8  C   UNL     1       4.842   6.952   4.724  1.00  0.00     0.020 A 
HETATM    9  C   UNL     1       5.284   6.025   3.772  1.00  0.00     0.034 A 
HETATM   10  C   UNL     1       4.732   6.023   2.483  1.00  0.00     0.049 A 
BRANCH   6  11
HETATM   11  O   UNL     1       2.409   8.833   2.667  1.00  0.00    -0.354 OA
HETATM   12  C   UNL     1       1.583   9.411   3.673  1.00  0.00     0.210 C 
ENDBRANCH   6  11
BRANCH   9  13
HETATM   13  C   UNL     1       6.351   5.075   4.181  1.00  0.00     0.251 C 
HETATM   14  N   UNL     1       7.256   4.716   3.202  1.00  0.00    -0.361 N 
HETATM   15  C   UNL     1       8.422   3.938   3.543  1.00  0.00     0.149 C 
HETATM   16  H   UNL     1       7.275   5.238   2.337  1.00  0.00     0.162 HD
HETATM   17  O   UNL     1       6.428   4.703   5.347  1.00  0.00    -0.268 OA
ENDBRANCH   9  13
ENDBRANCH   2   5
BRANCH   1  18
HETATM   18  C   UNL     1       2.915   4.735   0.092  1.00  0.00     0.076 A 
HETATM   19  C   UNL     1       2.530   4.080   1.284  1.00  0.00     0.158 A 
HETATM   20  N   UNL     1       2.490   2.757   1.167  1.00  0.00    -0.183 NA
HETATM   21  N   UNL     1       2.809   2.532  -0.126  1.00  0.00    -0.268 N 
HETATM   22  C   UNL     1       2.999   3.695  -0.837  1.00  0.00     0.052 A 
BRANCH  21  23
HETATM   23  C   UNL     1       2.994   1.142  -0.530  1.00  0.00     0.106 C 
HETATM   24  C   UNL     1       1.657   0.399  -0.531  1.00  0.00     0.034 C 
BRANCH  23  25
HETATM   25  C   UNL     1       4.039   0.400   0.331  1.00  0.00     0.022 C 
HETATM   26  C   UNL     1       5.438   0.989   0.188  1.00  0.00     0.007 C 
ENDBRANCH  23  25
ENDBRANCH  21  23
BRANCH  22  27
HETATM   27  C   UNL     1       3.196   3.935  -2.336  1.00  0.00     0.038 A 
HETATM   28  C   UNL     1       3.204   2.916  -3.442  1.00  0.00     0.011 A 
HETATM   29  C   UNL     1       1.970   3.721  -3.199  1.00  0.00     0.011 A 
ENDBRANCH  22  27
ENDBRANCH   1  18
TORSDOF 7
