REMARK  7 active torsions:
REMARK  status: ('A' for Active; 'I' for Inactive)
REMARK    1  A    between atoms: O_2  and  C_3 
REMARK    2  A    between atoms: C_6  and  C_7 
REMARK    3  A    between atoms: C_7  and  N_8 
REMARK    4  A    between atoms: C_7  and  C_23 
REMARK       I    between atoms: N_8  and  C_9 
REMARK    5  A    between atoms: C_9  and  C_10 
REMARK    6  A    between atoms: C_10  and  S_11 
REMARK    7  A    between atoms: S_11  and  C_12 
ROOT
HETATM    1  N   UNL     1       5.298   3.161  -4.967  1.00  0.00    -0.348 N 
HETATM    2  C   UNL     1       6.007   3.242  -3.790  1.00  0.00     0.228 C 
HETATM    3  O   UNL     1       5.877   2.429  -2.877  1.00  0.00    -0.273 OA
HETATM    4  H   UNL     1       5.462   3.856  -5.681  1.00  0.00     0.163 HD
ENDROOT
BRANCH   1   5
HETATM    5  C   UNL     1       4.415   2.043  -5.251  1.00  0.00     0.151 C 
BRANCH   5   6
HETATM    6  C   UNL     1       3.203   2.464  -6.076  1.00  0.00    -0.031 A 
HETATM    7  C   UNL     1       3.315   3.189  -7.271  1.00  0.00     0.012 A 
HETATM    8  C   UNL     1       2.179   3.503  -8.024  1.00  0.00     0.037 A 
HETATM    9  C   UNL     1       0.912   3.090  -7.610  1.00  0.00     0.068 A 
HETATM   10  C   UNL     1       0.783   2.386  -6.415  1.00  0.00     0.037 A 
HETATM   11  C   UNL     1       1.919   2.074  -5.658  1.00  0.00     0.012 A 
BRANCH   9  12
HETATM   12  O   UNL     1      -0.112   3.440  -8.447  1.00  0.00    -0.356 OA
HETATM   13  C   UNL     1      -1.344   2.755  -8.255  1.00  0.00     0.210 C 
ENDBRANCH   9  12
ENDBRANCH   5   6
BRANCH   5  14
HETATM   14  C   UNL     1       5.172   0.879  -5.882  1.00  0.00    -0.031 A 
HETATM   15  C   UNL     1       4.952  -0.427  -5.411  1.00  0.00     0.009 A 
HETATM   16  C   UNL     1       5.618  -1.515  -5.979  1.00  0.00     0.001 A 
HETATM   17  C   UNL     1       6.510  -1.316  -7.029  1.00  0.00     0.000 A 
HETATM   18  C   UNL     1       6.739  -0.029  -7.511  1.00  0.00     0.001 A 
HETATM   19  C   UNL     1       6.077   1.061  -6.943  1.00  0.00     0.009 A 
ENDBRANCH   5  14
ENDBRANCH   1   5
BRANCH   2  20
HETATM   20  C   UNL     1       7.035   4.357  -3.712  1.00  0.00     0.185 C 
BRANCH  20  21
HETATM   21  S   UNL     1       6.376   5.936  -4.335  1.00  0.00    -0.081 SA
BRANCH  21  22
HETATM   22  C   UNL     1       7.636   7.002  -3.817  1.00  0.00     0.192 A 
HETATM   23  N   UNL     1       7.543   8.370  -3.808  1.00  0.00    -0.311 N 
HETATM   24  C   UNL     1       8.751   8.811  -3.311  1.00  0.00     0.130 A 
HETATM   25  C   UNL     1       6.428   9.173  -4.267  1.00  0.00     0.133 C 
HETATM   26  C   UNL     1       9.149  10.229  -3.081  1.00  0.00     0.081 C 
HETATM   27  N   UNL     1       9.512   7.766  -3.052  1.00  0.00    -0.134 NA
HETATM   28  C   UNL     1       8.661  11.179  -4.166  1.00  0.00     0.008 C 
HETATM   29  C   UNL     1       7.201  11.600  -3.998  1.00  0.00     0.002 C 
HETATM   30  C   UNL     1       6.242  10.502  -3.541  1.00  0.00     0.020 C 
HETATM   31  N   UNL     1       8.813   6.633  -3.374  1.00  0.00    -0.123 NA
ENDBRANCH  21  22
ENDBRANCH  20  21
ENDBRANCH   2  20
TORSDOF 7
