REMARK  6 active torsions:
REMARK  status: ('A' for Active; 'I' for Inactive)
REMARK    1  A    between atoms: C_2  and  O_3 
REMARK    2  A    between atoms: O_3  and  C_4 
REMARK    3  A    between atoms: C_4  and  C_5 
REMARK    4  A    between atoms: C_6  and  O_7 
REMARK    5  A    between atoms: C_12  and  O_13 
REMARK    6  A    between atoms: C_17  and  C_18 
ROOT
HETATM    1  C   UNL     1       1.584  -2.378  -1.192  1.00  0.00     0.133 C 
HETATM    2  C   UNL     1       2.518  -2.297   0.060  1.00  0.00     0.073 C 
HETATM    3  C   UNL     1       2.204  -1.080   0.944  1.00  0.00     0.047 C 
HETATM    4  C   UNL     1       2.544  -3.588   0.932  1.00  0.00     0.097 C 
HETATM    5  C   UNL     1       2.446  -4.796   0.073  1.00  0.00     0.042 A 
HETATM    6  C   UNL     1       2.085  -4.856  -1.257  1.00  0.00     0.030 A 
HETATM    7  C   UNL     1       2.137  -6.228  -1.545  1.00  0.00     0.190 A 
HETATM    8  N   UNL     1       2.485  -6.978  -0.506  1.00  0.00    -0.149 NA
HETATM    9  N   UNL     1       2.687  -6.079   0.473  1.00  0.00    -0.279 N 
HETATM   10  H   UNL     1       2.979  -6.417   1.384  1.00  0.00     0.189 HD
HETATM   11  C   UNL     1       1.711  -3.660  -2.062  1.00  0.00     0.075 C 
ENDROOT
BRANCH  11  12
HETATM   12  C   UNL     1       2.720  -3.525  -3.197  1.00  0.00    -0.045 A 
HETATM   13  C   UNL     1       2.248  -3.170  -4.474  1.00  0.00     0.050 A 
HETATM   14  C   UNL     1       3.133  -3.017  -5.538  1.00  0.00     0.117 A 
HETATM   15  F   UNL     1       2.657  -2.685  -6.745  1.00  0.00    -0.206 F 
HETATM   16  C   UNL     1       4.498  -3.200  -5.368  1.00  0.00     0.042 A 
HETATM   17  C   UNL     1       4.987  -3.538  -4.110  1.00  0.00     0.004 A 
HETATM   18  C   UNL     1       4.107  -3.694  -3.034  1.00  0.00     0.008 A 
ENDBRANCH  11  12
BRANCH   1  19
HETATM   19  C   UNL     1       0.110  -2.214  -0.874  1.00  0.00     0.267 C 
HETATM   20  O   UNL     1      -0.644  -1.566  -1.589  1.00  0.00    -0.265 OA
BRANCH  19  21
HETATM   21  O   UNL     1      -0.263  -2.918   0.220  1.00  0.00    -0.316 OA
BRANCH  21  22
HETATM   22  C   UNL     1      -1.648  -2.956   0.633  1.00  0.00     0.123 C 
HETATM   23  C   UNL     1      -2.520  -3.684  -0.383  1.00  0.00     0.040 C 
HETATM   24  C   UNL     1      -2.181  -1.579   1.010  1.00  0.00     0.040 C 
ENDBRANCH  21  22
ENDBRANCH  19  21
ENDBRANCH   1  19
BRANCH   2  25
HETATM   25  O   UNL     1       3.873  -2.082  -0.395  1.00  0.00    -0.389 OA
HETATM   26  H   UNL     1       3.896  -1.279  -0.945  1.00  0.00     0.210 HD
ENDBRANCH   2  25
BRANCH   7  27
HETATM   27  O   UNL     1       1.901  -6.866  -2.692  1.00  0.00    -0.343 OA
HETATM   28  H   UNL     1       1.827  -6.221  -3.410  1.00  0.00     0.219 HD
ENDBRANCH   7  27
TORSDOF 6
