REMARK  6 active torsions:
REMARK  status: ('A' for Active; 'I' for Inactive)
REMARK    1  A    between atoms: C_2  and  O_3 
REMARK    2  A    between atoms: C_2  and  C_4 
REMARK    3  A    between atoms: C_6  and  N_7 
REMARK       I    between atoms: N_7  and  C_8 
REMARK    4  A    between atoms: C_8  and  C_9 
REMARK    5  A    between atoms: C_12  and  C_13 
REMARK    6  A    between atoms: C_18  and  C_19 
ROOT
HETATM    1  C   UNL     1       2.384   4.262   0.190  1.00  0.00     0.096 A 
HETATM    2  C   UNL     1       3.510   3.974   0.940  1.00  0.00     0.138 A 
HETATM    3  N   UNL     1       3.062   3.280   2.042  1.00  0.00    -0.240 N 
HETATM    4  C   UNL     1       3.910   2.829   3.132  1.00  0.00     0.221 C 
HETATM    5  C   UNL     1       5.395   2.909   2.729  1.00  0.00     0.068 C 
HETATM    6  C   UNL     1       5.701   4.214   1.981  1.00  0.00     0.143 C 
HETATM    7  N   UNL     1       4.831   4.278   0.789  1.00  0.00    -0.363 N 
HETATM    8  N   UNL     1       1.724   3.239   2.135  1.00  0.00    -0.181 NA
HETATM    9  C   UNL     1       1.315   3.810   0.999  1.00  0.00     0.160 A 
HETATM   10  H   UNL     1       5.070   5.080   0.201  1.00  0.00     0.162 HD
ENDROOT
BRANCH   1  11
HETATM   11  C   UNL     1       2.275   4.928  -1.097  1.00  0.00     0.261 C 
HETATM   12  N   UNL     1       3.401   4.783  -1.885  1.00  0.00    -0.323 N 
HETATM   13  H   UNL     1       4.096   4.131  -1.535  1.00  0.00     0.169 HD
HETATM   14  O   UNL     1       1.243   5.510  -1.410  1.00  0.00    -0.267 OA
BRANCH  12  15
HETATM   15  C   UNL     1       3.638   5.338  -3.158  1.00  0.00     0.035 A 
HETATM   16  C   UNL     1       2.820   6.306  -3.746  1.00  0.00     0.039 A 
HETATM   17  C   UNL     1       3.115   6.834  -5.017  1.00  0.00    -0.028 A 
HETATM   18  C   UNL     1       4.241   6.358  -5.700  1.00  0.00     0.010 A 
HETATM   19  C   UNL     1       5.066   5.396  -5.119  1.00  0.00     0.003 A 
HETATM   20  C   UNL     1       4.770   4.895  -3.851  1.00  0.00     0.029 A 
BRANCH  17  21
HETATM   21  C   UNL     1       2.196   7.872  -5.625  1.00  0.00     0.147 C 
HETATM   22  C   UNL     1       1.066   7.225  -6.415  1.00  0.00     0.044 C 
BRANCH  21  23
HETATM   23  O   UNL     1       2.933   8.739  -6.486  1.00  0.00    -0.391 OA
HETATM   24  H   UNL     1       2.318   9.430  -6.784  1.00  0.00     0.210 HD
ENDBRANCH  21  23
ENDBRANCH  17  21
ENDBRANCH  12  15
ENDBRANCH   1  11
BRANCH   4  25
HETATM   25  C   UNL     1       3.576   1.413   3.549  1.00  0.00     0.409 C 
HETATM   26  F   UNL     1       2.344   1.279   4.079  1.00  0.00    -0.169 F 
HETATM   27  F   UNL     1       3.695   0.536   2.525  1.00  0.00    -0.169 F 
HETATM   28  F   UNL     1       4.448   1.002   4.510  1.00  0.00    -0.169 F 
ENDBRANCH   4  25
BRANCH   6  29
HETATM   29  C   UNL     1       5.622   5.405   2.890  1.00  0.00     0.075 A 
HETATM   30  O   UNL     1       6.483   5.413   3.951  1.00  0.00    -0.325 OA
HETATM   31  C   UNL     1       6.242   6.551   4.652  1.00  0.00     0.142 A 
HETATM   32  C   UNL     1       5.240   7.280   4.056  1.00  0.00     0.027 A 
HETATM   33  C   UNL     1       4.840   6.543   2.916  1.00  0.00     0.037 A 
ENDBRANCH   6  29
TORSDOF 6
