REMARK  7 active torsions:
REMARK  status: ('A' for Active; 'I' for Inactive)
REMARK    1  A    between atoms: C_6  and  C_7 
REMARK    2  A    between atoms: C_7  and  S_8 
REMARK    3  A    between atoms: S_8  and  C_9 
REMARK    4  A    between atoms: N_10  and  C_11 
REMARK    5  A    between atoms: C_14  and  C_15 
REMARK    6  A    between atoms: C_15  and  O_16 
REMARK    7  A    between atoms: C_20  and  N_21 
ROOT
HETATM    1  C   UNL     1      -2.105   0.762  -0.484  1.00  0.00     0.001 A 
HETATM    2  C   UNL     1      -1.037   1.386   0.157  1.00  0.00     0.017 A 
HETATM    3  C   UNL     1       0.272   0.851   0.065  1.00  0.00     0.033 A 
HETATM    4  C   UNL     1       0.498  -0.317  -0.669  1.00  0.00     0.072 A 
HETATM    5  N   UNL     1       1.708  -0.878  -0.776  1.00  0.00    -0.232 NA
HETATM    6  C   UNL     1       2.731  -0.287  -0.130  1.00  0.00     0.138 A 
HETATM    7  N   UNL     1       2.621   0.837   0.603  1.00  0.00    -0.220 NA
HETATM    8  C   UNL     1       1.407   1.397   0.672  1.00  0.00     0.115 A 
HETATM    9  C   UNL     1      -0.583  -0.919  -1.303  1.00  0.00     0.032 A 
HETATM   10  C   UNL     1      -1.876  -0.393  -1.219  1.00  0.00     0.002 A 
ENDROOT
BRANCH   6  11
HETATM   11  C   UNL     1       4.080  -0.962  -0.194  1.00  0.00     0.163 C 
BRANCH  11  12
HETATM   12  S   UNL     1       5.338   0.065  -1.023  1.00  0.00    -0.082 SA
BRANCH  12  13
HETATM   13  C   UNL     1       6.736  -0.926  -0.788  1.00  0.00     0.192 A 
HETATM   14  N   UNL     1       8.054  -0.534  -0.861  1.00  0.00    -0.305 N 
HETATM   15  C   UNL     1       8.784  -1.684  -0.632  1.00  0.00     0.154 A 
HETATM   16  N   UNL     1       7.956  -2.686  -0.402  1.00  0.00    -0.132 NA
HETATM   17  N   UNL     1       6.678  -2.209  -0.504  1.00  0.00    -0.123 NA
BRANCH  14  18
HETATM   18  C   UNL     1       8.665   0.768  -1.086  1.00  0.00     0.094 A 
HETATM   19  C   UNL     1       8.121   1.799  -2.055  1.00  0.00     0.028 A 
HETATM   20  C   UNL     1       8.079   2.076  -0.590  1.00  0.00     0.028 A 
ENDBRANCH  14  18
BRANCH  15  21
HETATM   21  C   UNL     1      10.265  -1.779  -0.618  1.00  0.00     0.244 C 
BRANCH  21  22
HETATM   22  O   UNL     1      10.635  -3.153  -0.711  1.00  0.00    -0.393 OA
HETATM   23  H   UNL     1       9.861  -3.674  -0.417  1.00  0.00     0.209 HD
ENDBRANCH  21  22
ENDBRANCH  15  21
ENDBRANCH  12  13
ENDBRANCH  11  12
ENDBRANCH   6  11
BRANCH   8  24
HETATM   24  N   UNL     1       1.347   2.577   1.424  1.00  0.00    -0.286 NA
HETATM   25  H   UNL     1       2.298   2.782   1.721  1.00  0.00     0.125 HD
HETATM   26  H   UNL     1       0.960   3.336   0.875  1.00  0.00     0.125 HD
ENDBRANCH   8  24
TORSDOF 7
