REMARK  7 active torsions:
REMARK  status: ('A' for Active; 'I' for Inactive)
REMARK    1  A    between atoms: C_6  and  O_7 
REMARK    2  A    between atoms: O_7  and  C_8 
REMARK    3  A    between atoms: C_11  and  C_12 
REMARK       I    between atoms: C_12  and  N_13 
REMARK    4  A    between atoms: N_13  and  C_14 
REMARK    5  A    between atoms: N_22  and  C_23 
REMARK    6  A    between atoms: C_23  and  C_24 
REMARK    7  A    between atoms: C_24  and  O_25 
ROOT
HETATM    1  C           1       1.011   2.057  -2.016  0.00  0.00     0.113 A 
HETATM    2  C           1       0.824   2.849  -3.099  0.00  0.00     0.102 A 
HETATM    3  C           1       2.130   2.187  -1.273  0.00  0.00     0.002 A 
HETATM    4  C           1       2.325   1.332  -0.045  0.00  0.00     0.138 C 
HETATM    5  C           1       1.441   0.080  -0.120  0.00  0.00     0.161 C 
HETATM    6  C           1       0.021   0.623  -0.388  0.00  0.00     0.155 C 
HETATM    7  C           1      -0.982  -0.542  -0.426  0.00  0.00     0.072 C 
HETATM    8  N           1      -0.364   1.658   0.598  0.00  0.00    -0.323 N 
HETATM    9  C           1       0.574   2.267   1.421  0.00  0.00     0.172 C 
HETATM   10  S           1       0.218   3.221   2.630  0.00  0.00    -0.041 SA
HETATM   11  N           1       1.902   2.129   1.101  0.00  0.00    -0.357 N 
HETATM   12  O           1       0.018   1.168  -1.686  0.00  0.00    -0.316 OA
HETATM   13  C           1       3.073   3.081  -1.606  0.00  0.00     0.012 A 
HETATM   14  C           1       2.906   3.858  -2.682  0.00  0.00     0.003 A 
HETATM   15  C           1       1.788   3.738  -3.412  0.00  0.00     0.040 A 
HETATM   16  H           1       2.602   2.646   1.633  0.00  0.00     0.162 HD
ENDROOT
BRANCH   5  17
HETATM   17  C           1       1.627  -0.839   1.095  0.00  0.00     0.233 C 
HETATM   18  N           1       1.107  -2.090   0.932  0.00  0.00    -0.326 N 
HETATM   19  H           1       0.701  -2.296   0.032  0.00  0.00     0.169 HD
HETATM   20  O           1       2.223  -0.479   2.079  0.00  0.00    -0.273 OA
BRANCH  18  21
HETATM   21  C           1       1.018  -3.176   1.730  0.00  0.00     0.040 A 
HETATM   22  C           1       0.465  -4.283   1.189  0.00  0.00    -0.035 A 
HETATM   23  C           1      -0.023  -4.312  -0.246  0.00  0.00     0.050 C 
HETATM   24  C           1       0.346  -5.397   1.935  0.00  0.00     0.015 A 
HETATM   25  C           1       0.755  -5.453   3.212  0.00  0.00    -0.061 A 
HETATM   26  C           1       0.604  -6.724   4.014  0.00  0.00     0.048 C 
HETATM   27  C           1       1.302  -4.347   3.741  0.00  0.00     0.009 A 
HETATM   28  C           1       1.428  -3.230   3.010  0.00  0.00     0.030 A 
ENDBRANCH  18  21
ENDBRANCH   5  17
BRANCH   8  29
HETATM   29  C           1      -1.755   2.125   0.538  0.00  0.00     0.154 C 
BRANCH  29  30
HETATM   30  C           1      -2.636   1.530   1.641  0.00  0.00     0.187 C 
BRANCH  30  31
HETATM   31  O           1      -3.957   1.977   1.452  0.00  0.00    -0.394 OA
HETATM   32  C           1      -4.832   1.496   2.450  0.00  0.00     0.201 C 
ENDBRANCH  30  31
ENDBRANCH  29  30
ENDBRANCH   8  29
BRANCH   2  33
HETATM   33  O           1      -0.346   2.691  -3.808  0.00  0.00    -0.349 OA
BRANCH  33  34
HETATM   34  C           1      -0.600   3.515  -4.915  0.00  0.00     0.171 C 
HETATM   35  C           1      -1.964   3.143  -5.492  0.00  0.00     0.034 C 
ENDBRANCH  33  34
ENDBRANCH   2  33
TORSDOF 7
