REMARK  7 active torsions:
REMARK  status: ('A' for Active; 'I' for Inactive)
REMARK    1  A    between atoms: C_2  and  N_3 
REMARK    2  A    between atoms: C_2  and  C_19 
REMARK       I    between atoms: N_3  and  C_4 
REMARK       I    between atoms: C_4  and  N_5 
REMARK    3  A    between atoms: N_5  and  C_6 
REMARK    4  A    between atoms: N_8  and  C_9 
REMARK    5  A    between atoms: C_9  and  C_10 
REMARK    6  A    between atoms: C_19  and  C_20 
REMARK    7  A    between atoms: C_23  and  O_24 
ROOT
HETATM    1  N   UNL     1       2.767  -0.078  -1.406  1.00  0.00    -0.338 N 
HETATM    2  C   UNL     1       2.885  -1.301  -1.985  1.00  0.00     0.322 C 
HETATM    3  N   UNL     1       2.040  -2.274  -1.541  1.00  0.00    -0.292 N 
HETATM    4  O   UNL     1       3.700  -1.562  -2.868  1.00  0.00    -0.247 OA
HETATM    5  H   UNL     1       2.058  -0.016  -0.678  1.00  0.00     0.164 HD
HETATM    6  H   UNL     1       2.180  -3.167  -1.988  1.00  0.00     0.172 HD
ENDROOT
BRANCH   1   7
HETATM    7  C   UNL     1       3.701   1.018  -1.607  1.00  0.00     0.086 C 
HETATM    8  C   UNL     1       2.957   2.206  -2.214  1.00  0.00     0.032 C 
BRANCH   7   9
HETATM    9  C   UNL     1       4.368   1.424  -0.277  1.00  0.00     0.063 C 
BRANCH   9  10
HETATM   10  C   UNL     1       5.274   0.357   0.296  1.00  0.00    -0.056 A 
HETATM   11  C   UNL     1       6.613   0.268  -0.113  1.00  0.00     0.010 A 
HETATM   12  C   UNL     1       7.448  -0.725   0.404  1.00  0.00     0.037 A 
HETATM   13  C   UNL     1       6.942  -1.633   1.328  1.00  0.00     0.065 A 
HETATM   14  C   UNL     1       5.617  -1.565   1.740  1.00  0.00     0.037 A 
HETATM   15  C   UNL     1       4.783  -0.574   1.222  1.00  0.00     0.010 A 
BRANCH  13  16
HETATM   16  O   UNL     1       7.722  -2.619   1.855  1.00  0.00    -0.361 OA
HETATM   17  H   UNL     1       8.597  -2.572   1.436  1.00  0.00     0.217 HD
ENDBRANCH  13  16
ENDBRANCH   9  10
ENDBRANCH   7   9
ENDBRANCH   1   7
BRANCH   3  18
HETATM   18  C   UNL     1       1.090  -2.202  -0.547  1.00  0.00     0.153 A 
HETATM   19  N   UNL     1       0.789  -1.095   0.144  1.00  0.00    -0.154 NA
HETATM   20  N   UNL     1      -0.173  -1.490   1.006  1.00  0.00    -0.275 N 
HETATM   21  C   UNL     1      -0.506  -2.808   0.872  1.00  0.00     0.116 A 
HETATM   22  C   UNL     1       0.301  -3.298  -0.127  1.00  0.00     0.071 A 
BRANCH  20  23
HETATM   23  C   UNL     1      -0.794  -0.525   1.904  1.00  0.00     0.189 C 
BRANCH  23  24
HETATM   24  C   UNL     1      -0.180  -0.566   3.280  1.00  0.00    -0.038 A 
HETATM   25  C   UNL     1       1.102  -0.038   3.501  1.00  0.00     0.009 A 
HETATM   26  C   UNL     1       1.676  -0.079   4.772  1.00  0.00     0.001 A 
HETATM   27  C   UNL     1       0.975  -0.642   5.836  1.00  0.00     0.000 A 
HETATM   28  C   UNL     1      -0.299  -1.168   5.630  1.00  0.00     0.001 A 
HETATM   29  C   UNL     1      -0.874  -1.133   4.359  1.00  0.00     0.009 A 
ENDBRANCH  23  24
ENDBRANCH  20  23
ENDBRANCH   3  18
TORSDOF 7
