REMARK  7 active torsions:
REMARK  status: ('A' for Active; 'I' for Inactive)
REMARK    1  A    between atoms: O_2  and  C_3 
REMARK    2  A    between atoms: C_5  and  C_6 
REMARK    3  A    between atoms: C_8  and  C_9 
REMARK    4  A    between atoms: C_9  and  N_10 
REMARK    5  A    between atoms: N_10  and  C_13 
REMARK    6  A    between atoms: C_13  and  C_14 
REMARK    7  A    between atoms: C_24  and  O_25 
ROOT
HETATM    1  C   UNL     1       7.290   1.988  -0.804  1.00  0.00    -0.007 A 
HETATM    2  C   UNL     1       8.024   3.178  -0.979  1.00  0.00     0.025 A 
HETATM    3  C   UNL     1       8.923   3.653  -0.007  1.00  0.00     0.001 A 
HETATM    4  C   UNL     1       9.098   2.905   1.157  1.00  0.00     0.073 A 
HETATM    5  C   UNL     1       8.408   1.714   1.353  1.00  0.00     0.038 A 
HETATM    6  C   UNL     1       7.508   1.265   0.380  1.00  0.00     0.016 A 
ENDROOT
BRANCH   3   7
HETATM    7  C   UNL     1       9.623   4.963  -0.214  1.00  0.00     0.274 C 
BRANCH   7   8
HETATM    8  N   UNL     1       8.700   6.127  -0.115  1.00  0.00    -0.067 N 
HETATM    9  H   UNL     1       9.177   6.973  -0.445  1.00  0.00     0.277 HD
HETATM   10  H   UNL     1       7.907   5.988  -0.753  1.00  0.00     0.277 HD
BRANCH   8  11
HETATM   11  C   UNL     1       8.159   6.398   1.249  1.00  0.00     0.272 C 
BRANCH  11  12
HETATM   12  C   UNL     1       7.205   7.564   1.201  1.00  0.00    -0.022 A 
HETATM   13  C   UNL     1       5.859   7.420   0.750  1.00  0.00    -0.018 A 
HETATM   14  C   UNL     1       5.056   8.585   0.643  1.00  0.00    -0.025 A 
HETATM   15  C   UNL     1       5.262   6.184   0.395  1.00  0.00     0.013 A 
HETATM   16  C   UNL     1       3.731   8.491   0.191  1.00  0.00     0.012 A 
HETATM   17  C   UNL     1       5.584   9.836   0.990  1.00  0.00     0.012 A 
HETATM   18  C   UNL     1       3.176   7.261  -0.156  1.00  0.00     0.001 A 
HETATM   19  C   UNL     1       3.940   6.108  -0.049  1.00  0.00     0.001 A 
HETATM   20  C   UNL     1       6.895   9.962   1.439  1.00  0.00     0.002 A 
HETATM   21  C   UNL     1       7.703   8.837   1.539  1.00  0.00     0.010 A 
ENDBRANCH  11  12
ENDBRANCH   8  11
ENDBRANCH   7   8
ENDBRANCH   3   7
BRANCH   4  22
HETATM   22  O   UNL     1       9.936   3.387   2.119  1.00  0.00    -0.360 OA
HETATM   23  H   UNL     1      10.054   2.701   2.806  1.00  0.00     0.217 HD
ENDBRANCH   4  22
BRANCH   1  24
HETATM   24  C   UNL     1       6.312   1.564  -1.828  1.00  0.00     0.070 A 
HETATM   25  N   UNL     1       5.722   2.583  -2.510  1.00  0.00    -0.224 NA
HETATM   26  C   UNL     1       4.808   2.254  -3.453  1.00  0.00     0.164 A 
HETATM   27  C   UNL     1       4.449   0.953  -3.759  1.00  0.00     0.058 A 
HETATM   28  C   UNL     1       5.064  -0.078  -3.064  1.00  0.00     0.007 A 
HETATM   29  C   UNL     1       6.008   0.228  -2.087  1.00  0.00     0.032 A 
BRANCH  26  30
HETATM   30  O   UNL     1       4.174   3.242  -4.177  1.00  0.00    -0.339 OA
HETATM   31  C   UNL     1       4.592   4.557  -3.834  1.00  0.00     0.211 C 
ENDBRANCH  26  30
ENDBRANCH   1  24
TORSDOF 7
