REMARK  7 active torsions:
REMARK  status: ('A' for Active; 'I' for Inactive)
REMARK    1  A    between atoms: C_2  and  C_3 
REMARK    2  A    between atoms: C_3  and  N_4 
REMARK       I    between atoms: N_4  and  C_5 
REMARK    3  A    between atoms: C_5  and  C_6 
REMARK    4  A    between atoms: C_9  and  N_10 
REMARK       I    between atoms: N_10  and  C_11 
REMARK    5  A    between atoms: C_11  and  C_12 
REMARK    6  A    between atoms: C_14  and  O_15 
REMARK    7  A    between atoms: O_15  and  C_16 
ROOT
HETATM    1  N   UNL     1       2.610   7.682   0.693  1.00  0.00    -0.323 N 
HETATM    2  C   UNL     1       3.272   8.874   0.456  1.00  0.00     0.256 C 
HETATM    3  O   UNL     1       4.482   9.059   0.509  1.00  0.00    -0.267 OA
HETATM    4  H   UNL     1       1.631   7.638   0.447  1.00  0.00     0.169 HD
ENDROOT
BRANCH   1   5
HETATM    5  C   UNL     1       3.149   6.501   1.244  1.00  0.00     0.035 A 
HETATM    6  C   UNL     1       4.477   6.361   1.652  1.00  0.00     0.030 A 
HETATM    7  C   UNL     1       4.919   5.177   2.260  1.00  0.00     0.019 A 
HETATM    8  C   UNL     1       4.029   4.121   2.479  1.00  0.00     0.032 A 
HETATM    9  C   UNL     1       2.707   4.245   2.036  1.00  0.00     0.019 A 
HETATM   10  C   UNL     1       2.272   5.425   1.424  1.00  0.00     0.030 A 
BRANCH   8  11
HETATM   11  C   UNL     1       4.419   2.860   3.175  1.00  0.00     0.251 C 
HETATM   12  N   UNL     1       5.517   2.922   4.011  1.00  0.00    -0.357 N 
HETATM   13  H   UNL     1       5.926   3.820   4.229  1.00  0.00     0.162 HD
HETATM   14  O   UNL     1       3.744   1.847   3.026  1.00  0.00    -0.268 OA
BRANCH  12  15
HETATM   15  C   UNL     1       5.893   1.799   4.848  1.00  0.00     0.122 C 
BRANCH  15  16
HETATM   16  C   UNL     1       6.570   0.667   4.078  1.00  0.00     0.015 C 
HETATM   17  C   UNL     1       7.902   1.081   3.472  1.00  0.00     0.006 C 
ENDBRANCH  15  16
ENDBRANCH  12  15
ENDBRANCH   8  11
ENDBRANCH   1   5
BRANCH   2  18
HETATM   18  C   UNL     1       2.399  10.031   0.103  1.00  0.00     0.037 A 
HETATM   19  C   UNL     1       2.936  11.061  -0.668  1.00  0.00     0.075 A 
HETATM   20  C   UNL     1       2.141  12.162  -0.918  1.00  0.00     0.165 A 
HETATM   21  N   UNL     1       0.873  12.293  -0.475  1.00  0.00    -0.237 NA
HETATM   22  C   UNL     1       0.380  11.286   0.272  1.00  0.00     0.120 A 
HETATM   23  C   UNL     1       1.096  10.147   0.595  1.00  0.00     0.036 A 
BRANCH  20  24
HETATM   24  O   UNL     1       2.702  13.186  -1.656  1.00  0.00    -0.329 OA
BRANCH  24  25
HETATM   25  C   UNL     1       2.010  14.452  -1.603  1.00  0.00     0.130 C 
HETATM   26  C   UNL     1       2.665  15.587  -2.432  1.00  0.00     0.032 C 
HETATM   27  C   UNL     1       1.244  16.070  -2.774  1.00  0.00     0.005 C 
HETATM   28  C   UNL     1       0.770  14.627  -2.521  1.00  0.00     0.032 C 
ENDBRANCH  24  25
ENDBRANCH  20  24
ENDBRANCH   2  18
TORSDOF 7
