REMARK  5 active torsions:
REMARK  status: ('A' for Active; 'I' for Inactive)
REMARK    1  A    between atoms: C_4  and  S_5 
REMARK    2  A    between atoms: S_5  and  C_6 
REMARK    3  A    between atoms: C_6  and  C_7 
REMARK       I    between atoms: C_7  and  N_8 
REMARK    4  A    between atoms: N_8  and  C_9 
REMARK    5  A    between atoms: C_11  and  C_12 
ROOT
HETATM    1  C   UNL     1       5.111   1.030  -0.576  1.00  0.00     0.035 A 
HETATM    2  C   UNL     1       3.742   1.146  -0.837  1.00  0.00     0.042 A 
HETATM    3  C   UNL     1       3.147   2.396  -1.084  1.00  0.00    -0.021 A 
HETATM    4  C   UNL     1       3.957   3.538  -1.071  1.00  0.00     0.012 A 
HETATM    5  C   UNL     1       5.326   3.434  -0.822  1.00  0.00     0.003 A 
HETATM    6  C   UNL     1       5.899   2.185  -0.577  1.00  0.00     0.029 A 
ENDROOT
BRANCH   1   7
HETATM    7  N   UNL     1       5.761  -0.193  -0.311  1.00  0.00    -0.327 N 
HETATM    8  C   UNL     1       5.191  -1.444  -0.166  1.00  0.00     0.231 C 
HETATM    9  O   UNL     1       3.992  -1.702  -0.262  1.00  0.00    -0.272 OA
HETATM   10  H   UNL     1       6.758  -0.148  -0.126  1.00  0.00     0.169 HD
BRANCH   8  11
HETATM   11  C   UNL     1       6.182  -2.581   0.050  1.00  0.00     0.182 C 
BRANCH  11  12
HETATM   12  S   UNL     1       7.678  -2.069   0.963  1.00  0.00    -0.121 SA
BRANCH  12  13
HETATM   13  C   UNL     1       8.422  -3.674   1.190  1.00  0.00     0.001 A 
HETATM   14  C   UNL     1       9.622  -3.981   0.542  1.00  0.00     0.018 A 
HETATM   15  C   UNL     1      10.207  -5.239   0.706  1.00  0.00     0.001 A 
HETATM   16  C   UNL     1       9.600  -6.191   1.525  1.00  0.00     0.000 A 
HETATM   17  C   UNL     1       8.412  -5.884   2.186  1.00  0.00     0.001 A 
HETATM   18  C   UNL     1       7.827  -4.627   2.023  1.00  0.00     0.018 A 
ENDBRANCH  12  13
ENDBRANCH  11  12
ENDBRANCH   8  11
ENDBRANCH   1   7
BRANCH   3  19
HETATM   19  C   UNL     1       1.714   2.481  -1.335  1.00  0.00     0.010 A 
HETATM   20  C   UNL     1       0.670   1.566  -1.048  1.00  0.00     0.152 A 
HETATM   21  N   UNL     1      -0.529   2.002  -1.443  1.00  0.00    -0.187 NA
HETATM   22  N   UNL     1      -0.261   3.195  -1.993  1.00  0.00    -0.289 N 
HETATM   23  H   UNL     1      -1.031   3.730  -2.379  1.00  0.00     0.188 HD
HETATM   24  C   UNL     1       1.063   3.528  -1.954  1.00  0.00     0.123 A 
ENDBRANCH   3  19
TORSDOF 5
