REMARK  4 active torsions:
REMARK  status: ('A' for Active; 'I' for Inactive)
REMARK    1  A    between atoms: C_8  and  N_9 
REMARK    2  A    between atoms: C_11  and  C_12 
REMARK    3  A    between atoms: C_13  and  O_14 
REMARK    4  A    between atoms: O_14  and  C_15 
ROOT
HETATM    1  C   UNL     1      -3.363   0.172  -0.467  1.00  0.00     0.002 A 
HETATM    2  C   UNL     1      -2.431   1.216  -0.433  1.00  0.00     0.034 A 
HETATM    3  C   UNL     1      -1.077   0.903  -0.250  1.00  0.00     0.103 A 
HETATM    4  C   UNL     1      -0.696  -0.428  -0.106  1.00  0.00     0.083 A 
HETATM    5  N   UNL     1       0.658  -0.346   0.073  1.00  0.00    -0.151 N 
HETATM    6  C   UNL     1       1.062   0.962  -0.016  1.00  0.00     0.734 A 
HETATM    7  N   UNL     1       2.359   1.335   0.059  1.00  0.00    -0.033 NA
HETATM    8  C   UNL     1       3.263   0.426   0.125  1.00  0.00     0.193 C 
HETATM    9  N   UNL     1       3.006  -0.947   0.179  1.00  0.00    -0.338 N 
HETATM   10  C   UNL     1       1.622  -1.408   0.268  1.00  0.00     0.246 C 
HETATM   11  N   UNL     1       0.012   1.735  -0.187  1.00  0.00    -0.060 NA
HETATM   12  C   UNL     1      -1.607  -1.489  -0.140  1.00  0.00     0.033 A 
HETATM   13  C   UNL     1      -2.954  -1.156  -0.324  1.00  0.00     0.002 A 
HETATM   14  H   UNL     1       3.751  -1.617   0.277  1.00  0.00     0.164 HD
ENDROOT
BRANCH  10  15
HETATM   15  C   UNL     1       1.474  -2.144   1.598  1.00  0.00     0.020 A 
HETATM   16  C   UNL     1       2.009  -3.447   1.733  1.00  0.00     0.085 A 
HETATM   17  C   UNL     1       1.845  -4.153   2.930  1.00  0.00     0.039 A 
HETATM   18  C   UNL     1       1.185  -3.565   4.011  1.00  0.00     0.022 A 
HETATM   19  C   UNL     1       0.699  -2.268   3.904  1.00  0.00     0.011 A 
HETATM   20 BR   UNL     1      -0.178  -1.470   5.375  1.00  0.00    -0.051 Br
HETATM   21  C   UNL     1       0.846  -1.555   2.716  1.00  0.00     0.033 A 
BRANCH  16  22
HETATM   22  O   UNL     1       2.693  -3.915   0.642  1.00  0.00    -0.289 OA
BRANCH  22  23
HETATM   23  C   UNL     1       3.229  -5.233   0.706  1.00  0.00     0.505 C 
HETATM   24  F   UNL     1       2.207  -6.119   0.714  1.00  0.00    -0.184 F 
HETATM   25  F   UNL     1       3.913  -5.424  -0.448  1.00  0.00    -0.184 F 
ENDBRANCH  22  23
ENDBRANCH  16  22
ENDBRANCH  10  15
BRANCH   8  26
HETATM   26  N   UNL     1       4.582   0.705   0.160  1.00  0.00    -0.272 NA
HETATM   27  H   UNL     1       4.744   1.696  -0.012  1.00  0.00     0.127 HD
HETATM   28  H   UNL     1       5.174   0.140  -0.435  1.00  0.00     0.127 HD
ENDBRANCH   8  26
TORSDOF 4
