REMARK  6 active torsions:
REMARK  status: ('A' for Active; 'I' for Inactive)
REMARK    1  A    between atoms: C_4  and  C_5 
REMARK    2  A    between atoms: C_8  and  C_9 
REMARK    3  A    between atoms: C_9  and  C_10 
REMARK       I    between atoms: C_10  and  N_11 
REMARK    4  A    between atoms: N_11  and  C_12 
REMARK    5  A    between atoms: N_13  and  C_14 
REMARK    6  A    between atoms: C_25  and  C_26 
ROOT
HETATM    1  C   UNL     1       5.909  -2.066   0.598  1.00  0.00     0.152 A 
HETATM    2  N   UNL     1       4.978  -3.095   0.565  1.00  0.00    -0.044 N 
HETATM    3  N   UNL     1       3.783  -2.737   1.127  1.00  0.00    -0.148 NA
HETATM    4  C   UNL     1       3.976  -1.468   1.510  1.00  0.00     0.115 A 
HETATM    5  C   UNL     1       5.283  -1.019   1.235  1.00  0.00     0.087 A 
ENDROOT
BRANCH   1   6
HETATM    6  N   UNL     1       7.172  -2.184   0.034  1.00  0.00    -0.311 N 
HETATM    7  C   UNL     1       8.126  -1.184   0.111  1.00  0.00     0.227 C 
HETATM    8  O   UNL     1       8.062  -0.186   0.826  1.00  0.00    -0.273 OA
HETATM    9  H   UNL     1       7.375  -3.038  -0.487  1.00  0.00     0.170 HD
BRANCH   7  10
HETATM   10  C   UNL     1       9.291  -1.394  -0.846  1.00  0.00     0.141 C 
BRANCH  10  11
HETATM   11  C   UNL     1       8.997  -0.880  -2.237  1.00  0.00    -0.049 A 
HETATM   12  C   UNL     1       8.376   0.361  -2.430  1.00  0.00     0.008 A 
HETATM   13  C   UNL     1       8.093   0.828  -3.716  1.00  0.00     0.013 A 
HETATM   14  C   UNL     1       8.443   0.086  -4.855  1.00  0.00    -0.026 A 
HETATM   15  C   UNL     1       9.099  -1.140  -4.653  1.00  0.00     0.013 A 
HETATM   16  C   UNL     1       9.375  -1.617  -3.364  1.00  0.00     0.008 A 
BRANCH  14  17
HETATM   17  C   UNL     1       8.123   0.580  -6.209  1.00  0.00    -0.026 A 
HETATM   18  C   UNL     1       8.349   1.921  -6.568  1.00  0.00     0.012 A 
HETATM   19  C   UNL     1       8.022   2.398  -7.841  1.00  0.00     0.001 A 
HETATM   20  C   UNL     1       7.466   1.539  -8.784  1.00  0.00     0.000 A 
HETATM   21  C   UNL     1       7.238   0.206  -8.455  1.00  0.00     0.001 A 
HETATM   22  C   UNL     1       7.563  -0.267  -7.180  1.00  0.00     0.012 A 
ENDBRANCH  14  17
ENDBRANCH  10  11
ENDBRANCH   7  10
ENDBRANCH   1   6
BRANCH   2  23
HETATM   23  C   UNL     1       5.140  -4.396   0.049  1.00  0.00     0.732 A 
HETATM   24  N   UNL     1       6.234  -4.811  -0.520  1.00  0.00    -0.067 NA
HETATM   25  C   UNL     1       6.185  -6.114  -0.932  1.00  0.00     0.065 A 
HETATM   26  C   UNL     1       5.149  -6.944  -0.793  1.00  0.00     0.036 A 
HETATM   27  C   UNL     1       7.331  -6.795  -1.603  1.00  0.00     0.061 C 
HETATM   28  C   UNL     1       5.403  -8.303  -1.320  1.00  0.00     0.047 C 
HETATM   29  C   UNL     1       3.928  -6.460  -0.152  1.00  0.00     0.268 A 
HETATM   30  C   UNL     1       6.922  -8.273  -1.530  1.00  0.00     0.011 C 
HETATM   31  O   UNL     1       2.944  -7.166   0.013  1.00  0.00    -0.267 OA
HETATM   32  N   UNL     1       4.005  -5.153   0.238  1.00  0.00    -0.152 N 
HETATM   33  H   UNL     1       3.204  -4.731   0.698  1.00  0.00     0.188 HD
ENDBRANCH   2  23
BRANCH   4  34
HETATM   34  C   UNL     1       2.906  -0.636   2.132  1.00  0.00     0.105 A 
HETATM   35  O   UNL     1       3.068   0.668   2.515  1.00  0.00    -0.320 OA
HETATM   36  C   UNL     1       1.879   1.094   3.013  1.00  0.00     0.142 A 
HETATM   37  C   UNL     1       0.946   0.087   2.961  1.00  0.00     0.027 A 
HETATM   38  C   UNL     1       1.608  -1.031   2.395  1.00  0.00     0.041 A 
ENDBRANCH   4  34
TORSDOF 6
