REMARK  7 active torsions:
REMARK  status: ('A' for Active; 'I' for Inactive)
REMARK    1  A    between atoms: C_2  and  N_3 
REMARK    2  A    between atoms: C_2  and  C_17 
REMARK       I    between atoms: N_3  and  C_4 
REMARK    3  A    between atoms: C_4  and  C_5 
REMARK    4  A    between atoms: C_6  and  N_7 
REMARK    5  A    between atoms: C_17  and  O_18 
REMARK    6  A    between atoms: C_17  and  C_19 
REMARK    7  A    between atoms: C_22  and  O_23 
ROOT
HETATM    1  N   UNL     1       2.755   0.514   1.132  1.00  0.00    -0.350 N 
HETATM    2  C   UNL     1       3.823   0.590   1.997  1.00  0.00     0.255 C 
HETATM    3  O   UNL     1       4.921   0.102   1.764  1.00  0.00    -0.268 OA
HETATM    4  H   UNL     1       1.890   0.978   1.383  1.00  0.00     0.163 HD
ENDROOT
BRANCH   1   5
HETATM    5  C   UNL     1       2.801  -0.102  -0.203  1.00  0.00     0.114 C 
HETATM    6  C   UNL     1       3.581   0.789  -1.171  1.00  0.00     0.035 C 
BRANCH   5   7
HETATM    7  C   UNL     1       3.302  -1.583  -0.253  1.00  0.00     0.173 C 
BRANCH   7   8
HETATM    8  O   UNL     1       4.718  -1.700  -0.124  1.00  0.00    -0.389 OA
HETATM    9  H   UNL     1       4.993  -1.069   0.577  1.00  0.00     0.210 HD
ENDBRANCH   7   8
BRANCH   7  10
HETATM   10  C   UNL     1       2.582  -2.506   0.714  1.00  0.00    -0.028 A 
HETATM   11  C   UNL     1       1.301  -2.983   0.403  1.00  0.00     0.012 A 
HETATM   12  C   UNL     1       0.627  -3.838   1.279  1.00  0.00     0.037 A 
HETATM   13  C   UNL     1       1.216  -4.237   2.480  1.00  0.00     0.068 A 
HETATM   14  C   UNL     1       2.482  -3.757   2.808  1.00  0.00     0.037 A 
HETATM   15  C   UNL     1       3.159  -2.902   1.930  1.00  0.00     0.012 A 
BRANCH  13  16
HETATM   16  O   UNL     1       0.456  -5.083   3.240  1.00  0.00    -0.356 OA
HETATM   17  C   UNL     1       1.099  -5.683   4.359  1.00  0.00     0.210 C 
ENDBRANCH  13  16
ENDBRANCH   7  10
ENDBRANCH   5   7
ENDBRANCH   1   5
BRANCH   2  18
HETATM   18  C   UNL     1       3.568   1.279   3.276  1.00  0.00     0.079 A 
HETATM   19  C   UNL     1       4.440   2.197   3.867  1.00  0.00     0.165 A 
HETATM   20  N   UNL     1       4.221   2.658   5.141  1.00  0.00    -0.241 NA
HETATM   21  C   UNL     1       3.134   2.232   5.815  1.00  0.00     0.119 A 
HETATM   22  C   UNL     1       2.220   1.341   5.293  1.00  0.00     0.020 A 
HETATM   23  C   UNL     1       2.448   0.848   4.013  1.00  0.00     0.022 A 
BRANCH  19  24
HETATM   24  N   UNL     1       5.576   2.760   3.186  1.00  0.00    -0.226 N 
HETATM   25  N   UNL     1       6.558   3.389   3.901  1.00  0.00    -0.179 NA
HETATM   26  C   UNL     1       7.459   3.767   2.997  1.00  0.00     0.141 A 
HETATM   27  C   UNL     1       7.058   3.479   1.689  1.00  0.00     0.040 A 
HETATM   28  C   UNL     1       5.831   2.876   1.831  1.00  0.00     0.122 A 
ENDBRANCH  19  24
ENDBRANCH   2  18
TORSDOF 7
