REMARK  10 active torsions:
REMARK  status: ('A' for Active; 'I' for Inactive)
REMARK    1  A    between atoms: O_2  and  C_3 
REMARK    2  A    between atoms: C_3  and  C_4 
REMARK    3  A    between atoms: C_8  and  N_9 
REMARK       I    between atoms: N_9  and  C_10 
REMARK    4  A    between atoms: C_10  and  C_11 
REMARK    5  A    between atoms: C_12  and  C_13 
REMARK    6  A    between atoms: C_22  and  C_23 
REMARK    7  A    between atoms: C_23  and  N_24 
REMARK    8  A    between atoms: C_26  and  C_27 
REMARK    9  A    between atoms: C_27  and  C_28 
REMARK   10  A    between atoms: C_28  and  O_29 
ROOT
HETATM    1  C   UNL     1       2.078   2.141   1.563  1.00  0.00     0.110 C 
HETATM    2  S   UNL     1       0.663   1.840   2.479  1.00  0.00    -0.061 SA
HETATM    3  C   UNL     1       0.528   3.465   2.945  1.00  0.00     0.111 A 
HETATM    4  C   UNL     1       1.555   4.257   2.441  1.00  0.00     0.028 A 
HETATM    5  C   UNL     1       2.404   3.496   1.545  1.00  0.00     0.071 C 
HETATM    6  N   UNL     1      -0.487   3.855   3.754  1.00  0.00    -0.243 NA
HETATM    7  C   UNL     1      -0.443   5.160   4.118  1.00  0.00     0.061 A 
HETATM    8  C   UNL     1       0.554   6.045   3.740  1.00  0.00     0.030 A 
HETATM    9  C   UNL     1       1.573   5.590   2.910  1.00  0.00     0.019 A 
ENDROOT
BRANCH   5  10
HETATM   10  N   UNL     1       3.470   3.956   0.755  1.00  0.00    -0.321 N 
HETATM   11  C   UNL     1       3.622   5.240   0.278  1.00  0.00     0.245 C 
HETATM   12  O   UNL     1       2.827   6.162   0.412  1.00  0.00    -0.268 OA
HETATM   13  H   UNL     1       4.052   3.230   0.336  1.00  0.00     0.169 HD
BRANCH  11  14
HETATM   14  C   UNL     1       4.876   5.415  -0.510  1.00  0.00     0.075 C 
HETATM   15  C   UNL     1       5.190   6.641  -0.960  1.00  0.00     0.017 C 
BRANCH  15  16
HETATM   16  C   UNL     1       6.381   7.017  -1.743  1.00  0.00    -0.036 A 
HETATM   17  C   UNL     1       7.477   6.166  -1.947  1.00  0.00     0.014 A 
HETATM   18  C   UNL     1       8.585   6.597  -2.685  1.00  0.00     0.043 A 
HETATM   19  C   UNL     1       8.603   7.881  -3.215  1.00  0.00     0.116 A 
HETATM   20  F   UNL     1       9.667   8.291  -3.917  1.00  0.00    -0.206 F 
HETATM   21  C   UNL     1       7.535   8.744  -3.021  1.00  0.00     0.043 A 
HETATM   22  C   UNL     1       6.428   8.313  -2.286  1.00  0.00     0.014 A 
ENDBRANCH  15  16
ENDBRANCH  11  14
ENDBRANCH   5  10
BRANCH   1  23
HETATM   23  C   UNL     1       2.785   1.076   0.866  1.00  0.00     0.302 C 
HETATM   24  O   UNL     1       3.785   1.264   0.180  1.00  0.00    -0.259 OA
BRANCH  23  25
HETATM   25  O   UNL     1       2.220  -0.145   1.080  1.00  0.00    -0.322 OA
HETATM   26  C   UNL     1       2.889  -1.227   0.427  1.00  0.00     0.213 C 
ENDBRANCH  23  25
ENDBRANCH   1  23
BRANCH   7  27
HETATM   27  C   UNL     1      -1.605   5.675   4.939  1.00  0.00     0.294 C 
BRANCH  27  28
HETATM   28  N   UNL     1      -2.334   4.611   5.754  1.00  0.00    -0.061 N 
HETATM   29  H   UNL     1      -2.521   3.885   5.043  1.00  0.00     0.280 HD
HETATM   30  C   UNL     1      -1.485   3.900   6.815  1.00  0.00     0.190 C 
HETATM   31  C   UNL     1      -2.346   2.785   7.427  1.00  0.00     0.033 C 
HETATM   32  C   UNL     1      -3.668   3.299   7.986  1.00  0.00     0.004 C 
HETATM   33  C   UNL     1      -4.459   4.021   6.905  1.00  0.00     0.028 C 
HETATM   34  C   UNL     1      -3.656   5.134   6.255  1.00  0.00     0.235 C 
BRANCH  30  35
HETATM   35  C   UNL     1      -0.904   4.894   7.829  1.00  0.00     0.059 C 
BRANCH  35  36
HETATM   36  C   UNL     1      -0.037   4.235   8.897  1.00  0.00     0.166 C 
BRANCH  36  37
HETATM   37  O   UNL     1       0.586   5.271   9.638  1.00  0.00    -0.401 OA
HETATM   38  H   UNL     1       1.144   4.857  10.323  1.00  0.00     0.209 HD
ENDBRANCH  36  37
ENDBRANCH  35  36
ENDBRANCH  30  35
ENDBRANCH  27  28
ENDBRANCH   7  27
TORSDOF 10
