REMARK  7 active torsions:
REMARK  status: ('A' for Active; 'I' for Inactive)
REMARK    1  A    between atoms: N_7  and  C_8 
REMARK    2  A    between atoms: C_8  and  C_9 
REMARK       I    between atoms: C_9  and  N_10 
REMARK    3  A    between atoms: N_10  and  C_11 
REMARK    4  A    between atoms: C_11  and  C_12 
REMARK    5  A    between atoms: C_12  and  C_13 
REMARK    6  A    between atoms: C_12  and  C_23 
REMARK    7  A    between atoms: C_26  and  O_27 
ROOT
HETATM    1  C   UNL     1      -0.615   4.607  -3.806  1.00  0.00     0.136 C 
ENDROOT
BRANCH   1   2
HETATM    2  N   UNL     1      -1.327   4.555  -5.080  1.00  0.00    -0.359 N 
HETATM    3  C   UNL     1      -2.609   5.088  -5.103  1.00  0.00     0.236 C 
HETATM    4  O   UNL     1      -3.217   5.366  -4.069  1.00  0.00    -0.272 OA
HETATM    5  H   UNL     1      -0.780   4.620  -5.938  1.00  0.00     0.162 HD
BRANCH   3   6
HETATM    6  C   UNL     1      -3.134   5.533  -6.460  1.00  0.00     0.239 C 
BRANCH   6   7
HETATM    7  N   UNL     1      -3.146   4.517  -7.484  1.00  0.00    -0.259 N 
HETATM    8  C   UNL     1      -4.270   3.864  -7.888  1.00  0.00     0.326 C 
HETATM    9  N   UNL     1      -3.958   3.100  -8.990  1.00  0.00    -0.324 N 
HETATM   10  O   UNL     1      -5.390   3.941  -7.416  1.00  0.00    -0.247 OA
HETATM   11  C   UNL     1      -2.643   3.413  -9.510  1.00  0.00     0.119 C 
HETATM   12  H   UNL     1      -4.702   2.644  -9.504  1.00  0.00     0.165 HD
HETATM   13  C   UNL     1      -1.807   2.168  -9.857  1.00  0.00     0.019 C 
HETATM   14  C   UNL     1      -2.102   4.235  -8.318  1.00  0.00     0.257 C 
HETATM   15  C   UNL     1      -2.755   4.377 -10.709  1.00  0.00     0.041 C 
HETATM   16  C   UNL     1      -1.747   1.142  -8.721  1.00  0.00     0.013 C 
HETATM   17  C   UNL     1      -2.332   1.490 -11.138  1.00  0.00     0.007 C 
HETATM   18  C   UNL     1      -2.424   2.463 -12.311  1.00  0.00     0.001 C 
HETATM   19  C   UNL     1      -3.267   3.684 -11.968  1.00  0.00     0.003 C 
HETATM   20  O   UNL     1      -0.960   4.655  -8.186  1.00  0.00    -0.270 OA
ENDBRANCH   6   7
ENDBRANCH   3   6
ENDBRANCH   1   2
BRANCH   1  21
HETATM   21  C   UNL     1       0.757   3.902  -3.745  1.00  0.00     0.071 C 
BRANCH  21  22
HETATM   22  C   UNL     1       1.427   4.115  -2.397  1.00  0.00    -0.020 A 
HETATM   23  C   UNL     1       2.011   3.109  -1.551  1.00  0.00    -0.001 A 
HETATM   24  C   UNL     1       2.500   3.748  -0.409  1.00  0.00     0.042 A 
HETATM   25  C   UNL     1       2.175   1.711  -1.649  1.00  0.00     0.014 A 
HETATM   26  C   UNL     1       3.141   3.066   0.632  1.00  0.00     0.030 A 
HETATM   27  N   UNL     1       2.227   5.086  -0.544  1.00  0.00    -0.365 N 
HETATM   28  C   UNL     1       3.292   1.683   0.506  1.00  0.00     0.002 A 
HETATM   29  C   UNL     1       2.817   1.013  -0.618  1.00  0.00     0.001 A 
HETATM   30  H   UNL     1       2.470   5.792   0.137  1.00  0.00     0.165 HD
HETATM   31  C   UNL     1       1.585   5.320  -1.728  1.00  0.00     0.097 A 
ENDBRANCH  21  22
BRANCH  21  32
HETATM   32  C   UNL     1       1.809   4.345  -4.756  1.00  0.00    -0.048 A 
HETATM   33  C   UNL     1       2.768   3.416  -5.194  1.00  0.00     0.011 A 
HETATM   34  C   UNL     1       3.776   3.791  -6.086  1.00  0.00     0.037 A 
HETATM   35  C   UNL     1       3.853   5.099  -6.563  1.00  0.00     0.068 A 
HETATM   36  C   UNL     1       2.906   6.030  -6.140  1.00  0.00     0.037 A 
HETATM   37  C   UNL     1       1.896   5.658  -5.243  1.00  0.00     0.011 A 
BRANCH  35  38
HETATM   38  O   UNL     1       4.892   5.335  -7.420  1.00  0.00    -0.356 OA
HETATM   39  C   UNL     1       5.046   6.667  -7.891  1.00  0.00     0.210 C 
ENDBRANCH  35  38
ENDBRANCH  21  32
ENDBRANCH   1  21
TORSDOF 7
