REMARK  6 active torsions:
REMARK  status: ('A' for Active; 'I' for Inactive)
REMARK    1  A    between atoms: C_2  and  O_3 
REMARK    2  A    between atoms: C_2  and  C_4 
REMARK    3  A    between atoms: C_6  and  N_7 
REMARK       I    between atoms: N_7  and  C_8 
REMARK    4  A    between atoms: C_8  and  C_9 
REMARK    5  A    between atoms: C_14  and  C_15 
REMARK    6  A    between atoms: C_23  and  C_24 
ROOT
HETATM    1  C   UNL     1       5.110  -0.207  -3.404  1.00  0.00     0.148 A 
HETATM    2  N   UNL     1       5.020   0.849  -4.249  1.00  0.00    -0.165 NA
HETATM    3  N   UNL     1       5.115   1.909  -3.424  1.00  0.00    -0.240 N 
HETATM    4  C   UNL     1       5.179   1.582  -2.099  1.00  0.00     0.123 A 
HETATM    5  N   UNL     1       5.146   2.533  -1.144  1.00  0.00    -0.366 N 
HETATM    6  C   UNL     1       4.740   3.911  -1.424  1.00  0.00     0.118 C 
HETATM    7  C   UNL     1       4.177   4.070  -2.853  1.00  0.00     0.066 C 
HETATM    8  C   UNL     1       4.985   3.275  -3.890  1.00  0.00     0.221 C 
HETATM    9  C   UNL     1       5.248   0.217  -2.053  1.00  0.00     0.089 A 
HETATM   10  H   UNL     1       5.207   2.287  -0.156  1.00  0.00     0.161 HD
ENDROOT
BRANCH   1  11
HETATM   11  C   UNL     1       5.019  -1.601  -3.874  1.00  0.00     0.276 C 
HETATM   12  N   UNL     1       4.864  -1.676  -5.245  1.00  0.00    -0.322 N 
HETATM   13  H   UNL     1       4.887  -0.768  -5.704  1.00  0.00     0.169 HD
HETATM   14  O   UNL     1       5.070  -2.541  -3.088  1.00  0.00    -0.266 OA
BRANCH  12  15
HETATM   15  C   UNL     1       4.685  -2.820  -6.039  1.00  0.00     0.035 A 
HETATM   16  C   UNL     1       4.571  -4.113  -5.521  1.00  0.00     0.039 A 
HETATM   17  C   UNL     1       4.389  -5.221  -6.367  1.00  0.00    -0.028 A 
HETATM   18  C   UNL     1       4.343  -5.015  -7.752  1.00  0.00     0.010 A 
HETATM   19  C   UNL     1       4.445  -3.728  -8.277  1.00  0.00     0.003 A 
HETATM   20  C   UNL     1       4.610  -2.636  -7.423  1.00  0.00     0.029 A 
BRANCH  17  21
HETATM   21  C   UNL     1       4.288  -6.608  -5.767  1.00  0.00     0.147 C 
HETATM   22  C   UNL     1       5.636  -7.314  -5.739  1.00  0.00     0.044 C 
BRANCH  21  23
HETATM   23  O   UNL     1       3.361  -7.408  -6.499  1.00  0.00    -0.391 OA
HETATM   24  H   UNL     1       2.582  -6.849  -6.663  1.00  0.00     0.210 HD
ENDBRANCH  21  23
ENDBRANCH  17  21
ENDBRANCH  12  15
ENDBRANCH   1  11
BRANCH   8  25
HETATM   25  C   UNL     1       6.349   3.869  -4.153  1.00  0.00     0.409 C 
HETATM   26  F   UNL     1       7.020   3.204  -5.120  1.00  0.00    -0.169 F 
HETATM   27  F   UNL     1       6.211   5.149  -4.590  1.00  0.00    -0.169 F 
HETATM   28  F   UNL     1       7.139   3.919  -3.062  1.00  0.00    -0.169 F 
ENDBRANCH   8  25
BRANCH   6  29
HETATM   29  C   UNL     1       3.706   4.342  -0.394  1.00  0.00    -0.035 A 
HETATM   30  C   UNL     1       3.839   5.569   0.276  1.00  0.00     0.012 A 
HETATM   31  C   UNL     1       2.886   5.967   1.217  1.00  0.00     0.043 A 
HETATM   32  C   UNL     1       1.799   5.144   1.490  1.00  0.00     0.116 A 
HETATM   33  F   UNL     1       0.890   5.530   2.394  1.00  0.00    -0.206 F 
HETATM   34  C   UNL     1       1.643   3.928   0.839  1.00  0.00     0.043 A 
HETATM   35  C   UNL     1       2.592   3.529  -0.103  1.00  0.00     0.012 A 
ENDBRANCH   6  29
TORSDOF 6
