REMARK  6 active torsions:
REMARK  status: ('A' for Active; 'I' for Inactive)
REMARK    1  A    between atoms: C_2  and  O_3 
REMARK    2  A    between atoms: O_3  and  C_4 
REMARK    3  A    between atoms: C_8  and  C_9 
REMARK    4  A    between atoms: C_9  and  N_10 
REMARK       I    between atoms: N_10  and  C_11 
REMARK       I    between atoms: C_11  and  N_12 
REMARK    5  A    between atoms: N_12  and  C_13 
REMARK    6  A    between atoms: C_14  and  C_15 
ROOT
HETATM    1  N   UNL     1      -0.215  -1.813   3.858  1.00  0.00    -0.339 N 
HETATM    2  C   UNL     1      -1.351  -1.417   3.196  1.00  0.00     0.316 C 
HETATM    3  N   UNL     1      -1.637  -0.092   3.429  1.00  0.00    -0.338 N 
HETATM    4  O   UNL     1      -2.012  -2.151   2.472  1.00  0.00    -0.247 OA
HETATM    5  H   UNL     1       0.451  -1.084   4.063  1.00  0.00     0.164 HD
HETATM    6  H   UNL     1      -1.295   0.288   4.300  1.00  0.00     0.164 HD
ENDROOT
BRANCH   1   7
HETATM    7  C   UNL     1       0.324  -3.143   3.673  1.00  0.00     0.163 C 
BRANCH   7   8
HETATM    8  C   UNL     1       1.377  -3.180   2.597  1.00  0.00    -0.035 A 
HETATM    9  C   UNL     1       1.050  -2.937   1.260  1.00  0.00     0.028 A 
HETATM   10  C   UNL     1       2.052  -2.994   0.306  1.00  0.00     0.120 A 
HETATM   11  N   UNL     1       3.339  -3.289   0.585  1.00  0.00    -0.237 NA
HETATM   12  C   UNL     1       3.637  -3.542   1.871  1.00  0.00     0.165 A 
HETATM   13  C   UNL     1       2.708  -3.480   2.902  1.00  0.00     0.066 A 
BRANCH  12  14
HETATM   14  O   UNL     1       4.925  -3.855   2.242  1.00  0.00    -0.324 OA
BRANCH  14  15
HETATM   15  C   UNL     1       5.856  -4.320   1.246  1.00  0.00     0.058 C 
HETATM   16  C   UNL     1       6.310  -3.203   0.296  1.00  0.00     0.045 C 
HETATM   17  C   UNL     1       5.355  -5.561   0.490  1.00  0.00     0.045 C 
HETATM   18  C   UNL     1       7.086  -4.751   2.071  1.00  0.00     0.045 C 
ENDBRANCH  14  15
ENDBRANCH  12  14
ENDBRANCH   7   8
ENDBRANCH   1   7
BRANCH   3  19
HETATM   19  C   UNL     1      -2.733   0.575   2.789  1.00  0.00     0.095 A 
HETATM   20  C   UNL     1      -3.260   1.903   3.295  1.00  0.00     0.043 A 
HETATM   21  C   UNL     1      -2.474   1.829   2.008  1.00  0.00     0.037 A 
BRANCH  20  22
HETATM   22  C   UNL     1      -4.742   2.198   3.243  1.00  0.00    -0.052 A 
HETATM   23  C   UNL     1      -5.681   1.341   3.841  1.00  0.00     0.007 A 
HETATM   24  C   UNL     1      -7.051   1.613   3.791  1.00  0.00     0.001 A 
HETATM   25  C   UNL     1      -7.511   2.757   3.145  1.00  0.00     0.000 A 
HETATM   26  C   UNL     1      -6.601   3.629   2.555  1.00  0.00     0.001 A 
HETATM   27  C   UNL     1      -5.233   3.352   2.609  1.00  0.00     0.007 A 
ENDBRANCH  20  22
ENDBRANCH   3  19
TORSDOF 6
