REMARK  5 active torsions:
REMARK  status: ('A' for Active; 'I' for Inactive)
REMARK    1  A    between atoms: C_6  and  C_7 
REMARK    2  A    between atoms: C_12  and  C_13 
REMARK    3  A    between atoms: C_13  and  N_14 
REMARK    4  A    between atoms: C_17  and  O_18 
REMARK    5  A    between atoms: C_17  and  C_19 
ROOT
HETATM    1  C   UNL     1      -2.162  -3.646  -0.893  1.00  0.00     0.096 A 
HETATM    2  N   UNL     1      -1.402  -4.448  -0.139  1.00  0.00    -0.174 NA
HETATM    3  N   UNL     1      -1.570  -4.014   1.115  1.00  0.00    -0.288 N 
HETATM    4  H   UNL     1      -1.112  -4.523   1.868  1.00  0.00     0.188 HD
HETATM    5  C   UNL     1      -2.343  -2.893   1.190  1.00  0.00     0.120 A 
HETATM    6  C   UNL     1      -2.747  -2.607  -0.101  1.00  0.00     0.016 A 
ENDROOT
BRANCH   6   7
HETATM    7  C   UNL     1      -3.583  -1.464  -0.549  1.00  0.00     0.277 C 
BRANCH   7   8
HETATM    8  N   UNL     1      -2.816  -0.488  -1.410  1.00  0.00    -0.064 N 
HETATM    9  H   UNL     1      -2.309  -1.046  -2.111  1.00  0.00     0.280 HD
HETATM   10  C   UNL     1      -1.791   0.350  -0.637  1.00  0.00     0.282 C 
HETATM   11  C   UNL     1      -2.376   1.760  -0.647  1.00  0.00     0.180 C 
HETATM   12  C   UNL     1      -3.018   1.832  -2.024  1.00  0.00     0.076 C 
HETATM   13  C   UNL     1      -3.720   0.487  -2.139  1.00  0.00     0.238 C 
BRANCH  11  14
HETATM   14  O   UNL     1      -3.435   1.836   0.335  1.00  0.00    -0.379 OA
HETATM   15  H   UNL     1      -3.546   2.775   0.599  1.00  0.00     0.211 HD
ENDBRANCH  11  14
BRANCH  11  16
HETATM   16  C   UNL     1      -1.267   2.782  -0.423  1.00  0.00     0.419 C 
HETATM   17  F   UNL     1      -0.324   2.691  -1.381  1.00  0.00    -0.168 F 
HETATM   18  F   UNL     1      -1.775   4.031  -0.440  1.00  0.00    -0.168 F 
HETATM   19  F   UNL     1      -0.673   2.584   0.770  1.00  0.00    -0.168 F 
ENDBRANCH  11  16
ENDBRANCH   7   8
ENDBRANCH   6   7
BRANCH   1  20
HETATM   20  C   UNL     1      -2.248  -3.852  -2.337  1.00  0.00    -0.003 A 
HETATM   21  C   UNL     1      -3.485  -3.856  -2.990  1.00  0.00     0.037 A 
HETATM   22  C   UNL     1      -3.541  -4.015  -4.375  1.00  0.00     0.035 A 
HETATM   23  C   UNL     1      -2.377  -4.188  -5.119  1.00  0.00     0.024 A 
HETATM   24 CL   UNL     1      -5.067  -3.975  -5.168  1.00  0.00    -0.084 Cl
HETATM   25  C   UNL     1      -1.142  -4.212  -4.471  1.00  0.00     0.003 A 
HETATM   26  C   UNL     1      -1.078  -4.045  -3.086  1.00  0.00     0.014 A 
ENDBRANCH   1  20
TORSDOF 5
