REMARK  4 active torsions:
REMARK  status: ('A' for Active; 'I' for Inactive)
REMARK    1  A    between atoms: C_9  and  C_10 
REMARK    2  A    between atoms: C_19  and  C_20 
REMARK    3  A    between atoms: C_20  and  C_21 
REMARK    4  A    between atoms: C_21  and  O_22 
ROOT
HETATM    1  C   UNL     1       0.933   0.061   0.326  1.00  0.00     0.069 C 
HETATM    2  C   UNL     1       2.430  -0.037   0.164  1.00  0.00     0.018 A 
HETATM    3  N   UNL     1       3.111   1.173   0.113  1.00  0.00    -0.343 N 
HETATM    4  C   UNL     1       4.455   1.238  -0.024  1.00  0.00     0.146 A 
HETATM    5  N   UNL     1       5.161   0.057  -0.098  1.00  0.00    -0.179 N 
HETATM    6  N   UNL     1       6.501   0.263  -0.198  1.00  0.00    -0.167 NA
HETATM    7  C   UNL     1       6.629   1.597  -0.212  1.00  0.00     0.066 A 
HETATM    8  C   UNL     1       7.980   2.202  -0.336  1.00  0.00     0.073 C 
HETATM    9  C   UNL     1       5.373   2.260  -0.109  1.00  0.00     0.046 A 
HETATM   10  C   UNL     1       4.581  -1.221  -0.057  1.00  0.00     0.278 A 
HETATM   11  O   UNL     1       5.258  -2.240  -0.124  1.00  0.00    -0.265 OA
HETATM   12  C   UNL     1       3.081  -1.224   0.085  1.00  0.00     0.036 A 
HETATM   13  H   UNL     1       2.552   2.020   0.209  1.00  0.00     0.167 HD
ENDROOT
BRANCH   9  14
HETATM   14  C   UNL     1       5.047   3.672  -0.084  1.00  0.00    -0.020 A 
HETATM   15  C   UNL     1       4.126   4.205  -0.997  1.00  0.00     0.014 A 
HETATM   16  C   UNL     1       3.822   5.568  -0.980  1.00  0.00     0.020 A 
HETATM   17  C   UNL     1       4.441   6.402  -0.051  1.00  0.00     0.011 A 
HETATM   18 BR   UNL     1       4.033   8.247  -0.030  1.00  0.00    -0.051 Br
HETATM   19  C   UNL     1       5.360   5.886   0.860  1.00  0.00     0.020 A 
HETATM   20  C   UNL     1       5.663   4.522   0.843  1.00  0.00     0.014 A 
ENDBRANCH   9  14
BRANCH  12  21
HETATM   21  C   UNL     1       2.447  -2.595   0.074  1.00  0.00     0.072 C 
BRANCH  21  22
HETATM   22  C   UNL     1       2.641  -3.357   1.385  1.00  0.00     0.169 C 
BRANCH  22  23
HETATM   23  O   UNL     1       1.913  -2.734   2.440  1.00  0.00    -0.401 OA
HETATM   24  H   UNL     1       2.446  -1.983   2.753  1.00  0.00     0.209 HD
ENDBRANCH  22  23
ENDBRANCH  21  22
ENDBRANCH  12  21
TORSDOF 4
