REMARK  3 active torsions:
REMARK  status: ('A' for Active; 'I' for Inactive)
REMARK    1  A    between atoms: C_4  and  C_5 
REMARK    2  A    between atoms: C_9  and  C_10 
REMARK       I    between atoms: C_10  and  N_11 
REMARK    3  A    between atoms: N_11  and  N_12 
ROOT
HETATM    1  C   UNL     1       9.316   2.404   0.061  1.00  0.00     0.289 C 
HETATM    2  N   UNL     1      10.106   1.266   0.066  1.00  0.00    -0.241 N 
HETATM    3  O   UNL     1       9.762   3.549   0.064  1.00  0.00    -0.264 OA
HETATM    4  H   UNL     1       9.688   0.337   0.063  1.00  0.00     0.192 HD
ENDROOT
BRANCH   1   5
HETATM    5  C   UNL     1       7.895   2.165   0.052  1.00  0.00     0.121 A 
HETATM    6  N   UNL     1       7.014   3.214   0.046  1.00  0.00    -0.272 N 
HETATM    7  N   UNL     1       5.722   2.851   0.038  1.00  0.00    -0.172 NA
HETATM    8  H   UNL     1       7.251   4.202   0.047  1.00  0.00     0.189 HD
HETATM    9  C   UNL     1       5.769   1.513   0.039  1.00  0.00     0.113 A 
HETATM   10  C   UNL     1       7.101   1.034   0.047  1.00  0.00     0.073 A 
BRANCH   9  11
HETATM   11  C   UNL     1       4.541   0.666   0.032  1.00  0.00     0.106 A 
HETATM   12  O   UNL     1       4.535  -0.703   0.033  1.00  0.00    -0.313 OA
HETATM   13  C   UNL     1       3.232  -1.104   0.025  1.00  0.00     0.050 A 
HETATM   14  C   UNL     1       2.984  -2.559   0.025  1.00  0.00     0.076 C 
HETATM   15  C   UNL     1       2.397  -0.009   0.020  1.00  0.00     0.035 A 
HETATM   16  C   UNL     1       3.239   1.129   0.024  1.00  0.00     0.042 A 
ENDBRANCH   9  11
ENDBRANCH   1   5
BRANCH   2  17
HETATM   17  N   UNL     1      11.470   1.382   0.076  1.00  0.00    -0.165 NA
HETATM   18  C   UNL     1      12.153   0.283   0.080  1.00  0.00     0.157 A 
HETATM   19  C   UNL     1      11.642  -1.160   0.075  1.00  0.00     0.277 A 
HETATM   20  C   UNL     1      13.607   0.191   0.091  1.00  0.00     0.027 A 
HETATM   21  O   UNL     1      10.471  -1.476   0.066  1.00  0.00    -0.266 OA
HETATM   22  N   UNL     1      12.769  -1.952   0.083  1.00  0.00    -0.321 N 
HETATM   23  C   UNL     1      13.921  -1.167   0.092  1.00  0.00     0.048 A 
HETATM   24  H   UNL     1      12.741  -2.961   0.082  1.00  0.00     0.169 HD
HETATM   25  C   UNL     1      15.230  -1.597   0.102  1.00  0.00     0.030 A 
HETATM   26  C   UNL     1      16.229  -0.615   0.111  1.00  0.00     0.002 A 
HETATM   27  C   UNL     1      15.904   0.758   0.110  1.00  0.00     0.001 A 
HETATM   28  C   UNL     1      14.572   1.177   0.100  1.00  0.00     0.016 A 
ENDBRANCH   2  17
TORSDOF 3
