REMARK  6 active torsions:
REMARK  status: ('A' for Active; 'I' for Inactive)
REMARK    1  A    between atoms: C_2  and  O_3 
REMARK    2  A    between atoms: O_3  and  C_4 
REMARK    3  A    between atoms: C_5  and  C_6 
REMARK       I    between atoms: C_6  and  N_7 
REMARK    4  A    between atoms: N_7  and  C_8 
REMARK    5  A    between atoms: N_9  and  C_10 
REMARK    6  A    between atoms: C_22  and  C_23 
ROOT
HETATM    1  C   UNL     1       6.416   4.166  -1.117  1.00  0.00     0.152 A 
HETATM    2  N   UNL     1       7.070   5.343  -1.449  1.00  0.00    -0.044 N 
HETATM    3  N   UNL     1       8.414   5.164  -1.622  1.00  0.00    -0.148 NA
HETATM    4  C   UNL     1       8.596   3.859  -1.379  1.00  0.00     0.115 A 
HETATM    5  C   UNL     1       7.395   3.204  -1.034  1.00  0.00     0.087 A 
ENDROOT
BRANCH   1   6
HETATM    6  N   UNL     1       5.040   4.109  -0.966  1.00  0.00    -0.307 N 
HETATM    7  C   UNL     1       4.358   2.958  -0.633  1.00  0.00     0.261 C 
HETATM    8  O   UNL     1       4.826   1.904  -0.225  1.00  0.00    -0.267 OA
HETATM    9  H   UNL     1       4.509   4.954  -1.181  1.00  0.00     0.170 HD
BRANCH   7  10
HETATM   10  C   UNL     1       2.892   3.095  -0.796  1.00  0.00     0.076 A 
HETATM   11  C   UNL     1       2.366   2.934  -2.093  1.00  0.00     0.085 A 
HETATM   12  C   UNL     1       0.995   3.083  -2.282  1.00  0.00     0.039 A 
HETATM   13  C   UNL     1       0.168   3.399  -1.200  1.00  0.00     0.015 A 
HETATM   14  C   UNL     1       0.688   3.572   0.093  1.00  0.00    -0.025 A 
HETATM   15  C   UNL     1       2.076   3.414   0.318  1.00  0.00    -0.007 A 
HETATM   16  C   UNL     1      -0.160   3.907   1.161  1.00  0.00     0.012 A 
HETATM   17  C   UNL     1       2.561   3.596   1.634  1.00  0.00     0.013 A 
HETATM   18  C   UNL     1       1.705   3.932   2.685  1.00  0.00     0.001 A 
HETATM   19  C   UNL     1       0.346   4.089   2.448  1.00  0.00     0.001 A 
BRANCH  11  20
HETATM   20  O   UNL     1       3.265   2.663  -3.089  1.00  0.00    -0.350 OA
BRANCH  20  21
HETATM   21  C   UNL     1       2.765   2.367  -4.390  1.00  0.00     0.171 C 
HETATM   22  C   UNL     1       3.953   2.020  -5.269  1.00  0.00     0.034 C 
ENDBRANCH  20  21
ENDBRANCH  11  20
ENDBRANCH   7  10
ENDBRANCH   1   6
BRANCH   2  23
HETATM   23  C   UNL     1       6.509   6.626  -1.608  1.00  0.00     0.732 A 
HETATM   24  N   UNL     1       5.243   6.869  -1.467  1.00  0.00    -0.067 NA
HETATM   25  C   UNL     1       4.855   8.181  -1.623  1.00  0.00     0.065 A 
HETATM   26  C   UNL     1       5.697   9.189  -1.920  1.00  0.00     0.036 A 
HETATM   27  C   UNL     1       3.381   8.437  -1.400  1.00  0.00     0.060 C 
HETATM   28  C   UNL     1       5.281  10.621  -2.088  1.00  0.00     0.046 C 
HETATM   29  C   UNL     1       7.136   8.868  -2.089  1.00  0.00     0.268 A 
HETATM   30  C   UNL     1       3.764  10.798  -2.179  1.00  0.00     0.005 C 
HETATM   31  C   UNL     1       3.045   9.911  -1.169  1.00  0.00     0.006 C 
HETATM   32  O   UNL     1       7.971   9.723  -2.359  1.00  0.00    -0.267 OA
HETATM   33  N   UNL     1       7.457   7.559  -1.914  1.00  0.00    -0.152 N 
HETATM   34  H   UNL     1       8.426   7.271  -2.004  1.00  0.00     0.188 HD
ENDBRANCH   2  23
BRANCH   4  35
HETATM   35  C   UNL     1       9.927   3.195  -1.493  1.00  0.00     0.105 A 
HETATM   36  O   UNL     1      10.153   1.866  -1.258  1.00  0.00    -0.320 OA
HETATM   37  C   UNL     1      11.472   1.634  -1.478  1.00  0.00     0.142 A 
HETATM   38  C   UNL     1      12.109   2.793  -1.853  1.00  0.00     0.027 A 
HETATM   39  C   UNL     1      11.114   3.801  -1.861  1.00  0.00     0.041 A 
ENDBRANCH   4  35
TORSDOF 6
