REMARK  3 active torsions:
REMARK  status: ('A' for Active; 'I' for Inactive)
REMARK    1  A    between atoms: C_6  and  C_7 
REMARK       I    between atoms: C_7  and  N_8 
REMARK    2  A    between atoms: N_8  and  C_9 
REMARK    3  A    between atoms: C_12  and  C_13 
REMARK       I    between atoms: C_13  and  N_14 
ROOT
HETATM    1  C   UNL     1       6.810   0.299  -0.126  1.00  0.00     0.257 C 
HETATM    2  N   UNL     1       7.629  -0.557   0.585  1.00  0.00    -0.322 N 
HETATM    3  O   UNL     1       7.157   1.233  -0.834  1.00  0.00    -0.267 OA
HETATM    4  H   UNL     1       7.172  -1.277   1.132  1.00  0.00     0.169 HD
ENDROOT
BRANCH   2   5
HETATM    5  C   UNL     1       9.037  -0.522   0.626  1.00  0.00     0.052 A 
HETATM    6  C   UNL     1       9.832   0.437  -0.004  1.00  0.00     0.147 A 
HETATM    7  N   UNL     1      11.189   0.465   0.053  1.00  0.00    -0.253 NA
HETATM    8  C   UNL     1      11.785  -0.524   0.772  1.00  0.00     0.124 A 
HETATM    9  C   UNL     1      11.086  -1.527   1.429  1.00  0.00     0.039 A 
HETATM   10  C   UNL     1       9.693  -1.518   1.355  1.00  0.00     0.033 A 
BRANCH   8  11
HETATM   11  C   UNL     1      13.280  -0.490   0.837  1.00  0.00     0.268 C 
HETATM   12  N   UNL     1      13.867   0.558   0.181  1.00  0.00    -0.365 N 
HETATM   13  H   UNL     1      13.281   1.233  -0.300  1.00  0.00     0.159 HD
HETATM   14  H   UNL     1      14.871   0.655   0.181  1.00  0.00     0.159 HD
HETATM   15  O   UNL     1      13.936  -1.332   1.437  1.00  0.00    -0.266 OA
ENDBRANCH   8  11
ENDBRANCH   2   5
BRANCH   1  16
HETATM   16  C   UNL     1       5.358   0.024   0.042  1.00  0.00     0.044 A 
HETATM   17  C   UNL     1       4.554   0.992   0.679  1.00  0.00    -0.045 A 
HETATM   18  C   UNL     1       3.180   0.745   0.820  1.00  0.00     0.014 A 
HETATM   19  C   UNL     1       5.121   2.294   1.179  1.00  0.00     0.049 C 
HETATM   20  C   UNL     1       2.608  -0.441   0.346  1.00  0.00    -0.061 A 
HETATM   21  C   UNL     1       1.140  -0.697   0.531  1.00  0.00     0.048 C 
HETATM   22  C   UNL     1       3.424  -1.401  -0.263  1.00  0.00     0.014 A 
HETATM   23  C   UNL     1       4.798  -1.175  -0.447  1.00  0.00    -0.045 A 
HETATM   24  C   UNL     1       5.617  -2.224  -1.148  1.00  0.00     0.049 C 
ENDBRANCH   1  16
TORSDOF 3
