REMARK  6 active torsions:
REMARK  status: ('A' for Active; 'I' for Inactive)
REMARK    1  A    between atoms: C_7  and  C_8 
REMARK    2  A    between atoms: N_9  and  N_10 
REMARK       I    between atoms: N_10  and  C_11 
REMARK    3  A    between atoms: C_11  and  C_12 
REMARK    4  A    between atoms: C_12  and  N_13 
REMARK       I    between atoms: N_13  and  C_14 
REMARK    5  A    between atoms: C_14  and  C_15 
REMARK    6  A    between atoms: C_16  and  O_17 
ROOT
HETATM    1  N   UNL     1       3.203  -4.626  -0.460  1.00  0.00    -0.246 N 
HETATM    2  C   UNL     1       3.854  -5.778  -0.051  1.00  0.00     0.255 C 
HETATM    3  O   UNL     1       3.295  -6.768   0.424  1.00  0.00    -0.270 OA
HETATM    4  H   UNL     1       3.725  -3.824  -0.804  1.00  0.00     0.192 HD
ENDROOT
BRANCH   1   5
HETATM    5  N   UNL     1       1.850  -4.546  -0.310  1.00  0.00    -0.184 NA
HETATM    6  C   UNL     1       1.318  -3.378  -0.468  1.00  0.00     0.153 C 
BRANCH   6   7
HETATM    7  C   UNL     1      -0.114  -3.215  -0.285  1.00  0.00     0.018 A 
HETATM    8  C   UNL     1      -1.059  -4.228  -0.159  1.00  0.00     0.018 A 
HETATM    9  C   UNL     1      -0.917  -5.710  -0.184  1.00  0.00     0.069 C 
HETATM   10  N   UNL     1      -2.285  -3.638   0.018  1.00  0.00    -0.358 N 
HETATM   11  H   UNL     1      -3.154  -4.136   0.143  1.00  0.00     0.166 HD
HETATM   12  C   UNL     1      -2.169  -2.269   0.019  1.00  0.00     0.043 A 
HETATM   13  C   UNL     1      -0.820  -1.971  -0.176  1.00  0.00     0.004 A 
HETATM   14  C   UNL     1      -3.151  -1.286   0.185  1.00  0.00     0.030 A 
HETATM   15  C   UNL     1      -0.436  -0.612  -0.204  1.00  0.00     0.014 A 
HETATM   16  C   UNL     1      -1.405   0.385  -0.037  1.00  0.00     0.001 A 
HETATM   17  C   UNL     1      -2.743   0.050   0.154  1.00  0.00     0.002 A 
ENDBRANCH   6   7
ENDBRANCH   1   5
BRANCH   2  18
HETATM   18  C   UNL     1       5.379  -5.675  -0.032  1.00  0.00     0.227 C 
BRANCH  18  19
HETATM   19  N   UNL     1       5.991  -4.842  -1.060  1.00  0.00    -0.348 N 
HETATM   20  C   UNL     1       6.415  -3.541  -1.013  1.00  0.00     0.254 C 
HETATM   21  O   UNL     1       6.993  -3.048  -1.976  1.00  0.00    -0.268 OA
HETATM   22  H   UNL     1       6.198  -5.290  -1.947  1.00  0.00     0.163 HD
BRANCH  20  23
HETATM   23  C   UNL     1       6.129  -2.714   0.173  1.00  0.00     0.065 A 
HETATM   24  C   UNL     1       5.248  -1.632   0.061  1.00  0.00     0.084 A 
HETATM   25  C   UNL     1       4.956  -0.844   1.174  1.00  0.00     0.038 A 
HETATM   26  C   UNL     1       5.580  -1.115   2.393  1.00  0.00     0.003 A 
HETATM   27  C   UNL     1       6.490  -2.170   2.498  1.00  0.00     0.001 A 
HETATM   28  C   UNL     1       6.773  -2.967   1.387  1.00  0.00     0.020 A 
BRANCH  24  29
HETATM   29  O   UNL     1       4.587  -1.383  -1.115  1.00  0.00    -0.355 OA
HETATM   30  C   UNL     1       5.267  -0.349  -1.839  1.00  0.00     0.210 C 
ENDBRANCH  24  29
ENDBRANCH  20  23
ENDBRANCH  18  19
ENDBRANCH   2  18
TORSDOF 6
