REMARK  9 active torsions:
REMARK  status: ('A' for Active; 'I' for Inactive)
REMARK    1  A    between atoms: C_5  and  C_6 
REMARK    2  A    between atoms: C_6  and  N_7 
REMARK       I    between atoms: N_7  and  C_8 
REMARK    3  A    between atoms: C_8  and  C_9 
REMARK    4  A    between atoms: C_9  and  N_10 
REMARK    5  A    between atoms: N_14  and  C_15 
REMARK    6  A    between atoms: C_17  and  N_18 
REMARK    7  A    between atoms: N_18  and  C_19 
REMARK    8  A    between atoms: C_26  and  N_27 
REMARK    9  A    between atoms: N_27  and  C_28 
ROOT
HETATM    1  C   UNL     1       8.901   4.596   1.048  1.00  0.00     0.756 A 
HETATM    2  N   UNL     1       9.777   5.472   0.591  1.00  0.00     0.131 NA
HETATM    3  C   UNL     1      10.019   6.532   1.356  1.00  0.00     0.758 A 
HETATM    4  N   UNL     1       9.422   6.752   2.519  1.00  0.00     0.131 NA
HETATM    5  C   UNL     1       8.623   5.786   2.949  1.00  0.00     0.758 A 
HETATM    6  N   UNL     1       8.358   4.689   2.249  1.00  0.00     0.131 NA
ENDROOT
BRANCH   1   7
HETATM    7  N   UNL     1       8.511   3.554   0.232  1.00  0.00    -0.210 N 
HETATM    8  C   UNL     1       7.868   2.380   0.821  1.00  0.00     0.169 C 
HETATM    9  C   UNL     1       8.791   1.148   0.692  1.00  0.00     0.256 C 
HETATM   10  N   UNL     1       9.191   0.971  -0.776  1.00  0.00    -0.060 N 
HETATM   11  H   UNL     1       8.313   0.948  -1.308  1.00  0.00     0.280 HD
HETATM   12  C   UNL     1       9.950   2.214  -1.264  1.00  0.00     0.256 C 
HETATM   13  C   UNL     1       9.039   3.452  -1.130  1.00  0.00     0.169 C 
BRANCH  10  14
HETATM   14  C   UNL     1       9.898  -0.345  -1.065  1.00  0.00     0.337 C 
BRANCH  14  15
HETATM   15  C   UNL     1      11.297  -0.525  -0.467  1.00  0.00     0.243 C 
HETATM   16  N   UNL     1      11.910  -1.704  -0.827  1.00  0.00    -0.355 N 
HETATM   17  H   UNL     1      11.390  -2.448  -1.275  1.00  0.00     0.162 HD
HETATM   18  O   UNL     1      11.821   0.329   0.241  1.00  0.00    -0.272 OA
BRANCH  16  19
HETATM   19  C   UNL     1      13.236  -2.054  -0.354  1.00  0.00     0.161 C 
BRANCH  19  20
HETATM   20  C   UNL     1      13.175  -2.912   0.881  1.00  0.00    -0.041 A 
HETATM   21  C   UNL     1      12.682  -4.223   0.825  1.00  0.00     0.009 A 
HETATM   22  C   UNL     1      12.669  -5.027   1.968  1.00  0.00     0.007 A 
HETATM   23  C   UNL     1      13.144  -4.535   3.188  1.00  0.00    -0.062 A 
HETATM   24  C   UNL     1      13.200  -5.423   4.397  1.00  0.00     0.048 C 
HETATM   25  C   UNL     1      13.640  -3.229   3.246  1.00  0.00     0.007 A 
HETATM   26  C   UNL     1      13.646  -2.421   2.106  1.00  0.00     0.009 A 
ENDBRANCH  19  20
ENDBRANCH  16  19
ENDBRANCH  14  15
ENDBRANCH  10  14
ENDBRANCH   1   7
BRANCH   3  27
HETATM   27  N   UNL     1      10.901   7.522   0.925  1.00  0.00    -0.187 N 
HETATM   28  H   UNL     1      10.889   8.299   1.574  1.00  0.00     0.184 HD
BRANCH  27  29
HETATM   29  C   UNL     1      12.069   7.432   0.152  1.00  0.00     0.049 A 
HETATM   30  C   UNL     1      12.633   8.614  -0.352  1.00  0.00     0.030 A 
HETATM   31  C   UNL     1      13.784   8.584  -1.145  1.00  0.00     0.002 A 
HETATM   32  C   UNL     1      14.388   7.368  -1.450  1.00  0.00     0.000 A 
HETATM   33  C   UNL     1      13.833   6.184  -0.972  1.00  0.00     0.002 A 
HETATM   34  C   UNL     1      12.675   6.217  -0.190  1.00  0.00     0.030 A 
ENDBRANCH  27  29
ENDBRANCH   3  27
BRANCH   5  35
HETATM   35  N   UNL     1       8.009   6.006   4.179  1.00  0.00    -0.187 N 
HETATM   36  H   UNL     1       8.197   6.940   4.515  1.00  0.00     0.184 HD
BRANCH  35  37
HETATM   37  C   UNL     1       7.335   5.152   5.060  1.00  0.00     0.049 A 
HETATM   38  C   UNL     1       7.447   3.757   5.012  1.00  0.00     0.030 A 
HETATM   39  C   UNL     1       6.721   2.941   5.885  1.00  0.00     0.002 A 
HETATM   40  C   UNL     1       5.849   3.510   6.808  1.00  0.00     0.000 A 
HETATM   41  C   UNL     1       5.707   4.894   6.859  1.00  0.00     0.002 A 
HETATM   42  C   UNL     1       6.444   5.705   5.991  1.00  0.00     0.030 A 
ENDBRANCH  35  37
ENDBRANCH   5  35
TORSDOF 9
