REMARK  5 active torsions:
REMARK  status: ('A' for Active; 'I' for Inactive)
REMARK    1  A    between atoms: C_5  and  C_6 
REMARK    2  A    between atoms: C_10  and  C_11 
REMARK       I    between atoms: C_11  and  N_12 
REMARK    3  A    between atoms: N_12  and  N_13 
REMARK       I    between atoms: N_13  and  C_14 
REMARK       I    between atoms: C_14  and  N_15 
REMARK    4  A    between atoms: N_15  and  C_16 
REMARK    5  A    between atoms: C_16  and  C_17 
ROOT
HETATM    1  C   UNL     1       7.891  -1.568  -0.826  1.00  0.00     0.288 C 
HETATM    2  N   UNL     1       7.728  -2.916  -0.599  1.00  0.00    -0.261 N 
HETATM    3  O   UNL     1       8.885  -1.111  -1.387  1.00  0.00    -0.264 OA
HETATM    4  H   UNL     1       6.931  -3.319  -0.113  1.00  0.00     0.190 HD
ENDROOT
BRANCH   2   5
HETATM    5  N   UNL     1       8.732  -3.817  -0.983  1.00  0.00    -0.249 N 
HETATM    6  C   UNL     1       8.417  -5.155  -0.878  1.00  0.00     0.334 C 
HETATM    7  N   UNL     1       9.387  -5.962  -1.414  1.00  0.00    -0.341 N 
HETATM    8  O   UNL     1       7.383  -5.555  -0.350  1.00  0.00    -0.246 OA
HETATM    9  H   UNL     1      10.316  -5.564  -1.428  1.00  0.00     0.164 HD
HETATM   10  H   UNL     1       9.320  -3.508  -1.751  1.00  0.00     0.192 HD
BRANCH   7  11
HETATM   11  C   UNL     1       9.294  -7.406  -1.310  1.00  0.00     0.129 C 
BRANCH  11  12
HETATM   12  C   UNL     1       8.246  -8.019  -2.261  1.00  0.00     0.004 C 
HETATM   13  C   UNL     1       8.575  -7.782  -3.746  1.00  0.00     0.010 C 
HETATM   14  C   UNL     1       9.765  -8.617  -4.243  1.00  0.00    -0.018 C 
HETATM   15  C   UNL     1       9.987  -8.393  -5.739  1.00  0.00     0.010 C 
HETATM   16  C   UNL     1       9.548 -10.107  -3.949  1.00  0.00     0.004 C 
HETATM   17  C   UNL     1       9.248 -10.360  -2.475  1.00  0.00     0.001 C 
HETATM   18  C   UNL     1       8.067  -9.522  -1.989  1.00  0.00     0.006 C 
ENDBRANCH  11  12
ENDBRANCH   7  11
ENDBRANCH   2   5
BRANCH   1  19
HETATM   19  C   UNL     1       6.815  -0.740  -0.355  1.00  0.00     0.121 A 
HETATM   20  N   UNL     1       6.887   0.624  -0.367  1.00  0.00    -0.272 N 
HETATM   21  N   UNL     1       5.807   1.237   0.140  1.00  0.00    -0.174 NA
HETATM   22  H   UNL     1       7.663   1.191  -0.697  1.00  0.00     0.189 HD
HETATM   23  C   UNL     1       4.969   0.238   0.460  1.00  0.00     0.089 A 
HETATM   24  C   UNL     1       5.569  -1.019   0.170  1.00  0.00     0.071 A 
BRANCH  23  25
HETATM   25  C   UNL     1       3.647   0.486   1.038  1.00  0.00    -0.006 A 
HETATM   26  C   UNL     1       2.606  -0.439   0.876  1.00  0.00     0.014 A 
HETATM   27  C   UNL     1       1.351  -0.208   1.449  1.00  0.00     0.007 A 
HETATM   28  C   UNL     1       1.111   0.955   2.187  1.00  0.00    -0.062 A 
HETATM   29  C   UNL     1      -0.221   1.190   2.836  1.00  0.00     0.048 C 
HETATM   30  C   UNL     1       2.149   1.878   2.356  1.00  0.00     0.007 A 
HETATM   31  C   UNL     1       3.402   1.649   1.779  1.00  0.00     0.014 A 
ENDBRANCH  23  25
ENDBRANCH   1  19
TORSDOF 5
