REMARK  9 active torsions:
REMARK  status: ('A' for Active; 'I' for Inactive)
REMARK    1  A    between atoms: C_2  and  C_3 
REMARK    2  A    between atoms: C_3  and  O_4 
REMARK    3  A    between atoms: O_4  and  C_5 
REMARK    4  A    between atoms: C_8  and  C_9 
REMARK       I    between atoms: C_9  and  N_10 
REMARK    5  A    between atoms: N_10  and  C_11 
REMARK    6  A    between atoms: C_11  and  N_12 
REMARK    7  A    between atoms: N_12  and  C_13 
REMARK    8  A    between atoms: C_15  and  C_16 
REMARK    9  A    between atoms: C_27  and  O_28 
ROOT
HETATM    1  C   UNL     1       8.103  -2.304   3.021  1.00  0.00     0.035 A 
HETATM    2  C   UNL     1       7.941  -3.657   2.701  1.00  0.00     0.048 A 
HETATM    3  C   UNL     1       6.706  -4.148   2.231  1.00  0.00     0.052 A 
HETATM    4  C   UNL     1       5.637  -3.248   2.092  1.00  0.00     0.080 A 
HETATM    5  C   UNL     1       5.787  -1.903   2.407  1.00  0.00     0.040 A 
HETATM    6  C   UNL     1       7.013  -1.436   2.877  1.00  0.00     0.032 A 
ENDROOT
BRANCH   1   7
HETATM    7  N   UNL     1       9.272  -1.749   3.579  1.00  0.00    -0.333 N 
HETATM    8  H   UNL     1       9.139  -0.868   4.069  1.00  0.00     0.168 HD
BRANCH   7   9
HETATM    9  C   UNL     1      10.520  -2.270   3.788  1.00  0.00     0.179 C 
HETATM   10  S   UNL     1      11.455  -1.522   4.961  1.00  0.00    -0.040 SA
BRANCH   9  11
HETATM   11  N   UNL     1      10.925  -3.282   2.951  1.00  0.00    -0.299 N 
HETATM   12  C   UNL     1      12.100  -3.993   3.132  1.00  0.00     0.257 C 
HETATM   13  O   UNL     1      12.308  -4.661   4.143  1.00  0.00    -0.267 OA
HETATM   14  H   UNL     1      10.613  -3.125   2.007  1.00  0.00     0.171 HD
BRANCH  12  15
HETATM   15  C   UNL     1      13.095  -4.030   2.016  1.00  0.00     0.032 A 
HETATM   16  C   UNL     1      14.329  -4.644   2.285  1.00  0.00     0.020 A 
HETATM   17  C   UNL     1      15.348  -4.675   1.328  1.00  0.00     0.038 A 
HETATM   18  C   UNL     1      15.149  -4.095   0.079  1.00  0.00     0.068 A 
HETATM   19  C   UNL     1      13.920  -3.490  -0.200  1.00  0.00     0.038 A 
HETATM   20  C   UNL     1      12.897  -3.448   0.760  1.00  0.00     0.020 A 
BRANCH  18  21
HETATM   21  O   UNL     1      16.063  -4.050  -0.939  1.00  0.00    -0.351 OA
BRANCH  21  22
HETATM   22  C   UNL     1      17.345  -4.626  -0.678  1.00  0.00     0.175 C 
BRANCH  22  23
HETATM   23  C   UNL     1      18.206  -4.468  -1.928  1.00  0.00     0.022 C 
HETATM   24  C   UNL     1      19.582  -5.085  -1.742  1.00  0.00     0.007 C 
ENDBRANCH  22  23
ENDBRANCH  21  22
ENDBRANCH  18  21
ENDBRANCH  12  15
ENDBRANCH   9  11
ENDBRANCH   7   9
ENDBRANCH   1   7
BRANCH   3  25
HETATM   25  C   UNL     1       6.514  -5.564   1.928  1.00  0.00     0.183 A 
HETATM   26  O   UNL     1       7.619  -6.375   1.946  1.00  0.00    -0.289 OA
HETATM   27  C   UNL     1       7.122  -7.610   1.646  1.00  0.00     0.107 A 
HETATM   28  C   UNL     1       5.759  -7.485   1.455  1.00  0.00     0.094 A 
HETATM   29  C   UNL     1       7.827  -8.802   1.549  1.00  0.00     0.047 A 
HETATM   30  N   UNL     1       5.381  -6.176   1.621  1.00  0.00    -0.221 NA
HETATM   31  C   UNL     1       5.010  -8.627   1.148  1.00  0.00     0.041 A 
HETATM   32  C   UNL     1       5.674  -9.869   1.035  1.00  0.00    -0.054 A 
HETATM   33  C   UNL     1       7.073  -9.954   1.244  1.00  0.00    -0.053 A 
HETATM   34  C   UNL     1       4.848 -11.095   0.743  1.00  0.00     0.049 C 
HETATM   35  C   UNL     1       7.795 -11.273   1.135  1.00  0.00     0.049 C 
ENDBRANCH   3  25
BRANCH   4  36
HETATM   36  O   UNL     1       4.391  -3.626   1.663  1.00  0.00    -0.360 OA
HETATM   37  H   UNL     1       4.379  -4.601   1.550  1.00  0.00     0.217 HD
ENDBRANCH   4  36
TORSDOF 9
