REMARK  13 active torsions:
REMARK  status: ('A' for Active; 'I' for Inactive)
REMARK    1  A    between atoms: C_2  and  O_3 
REMARK    2  A    between atoms: O_3  and  C_4 
REMARK    3  A    between atoms: C_5  and  O_6 
REMARK    4  A    between atoms: C_9  and  C_10 
REMARK    5  A    between atoms: N_11  and  C_12 
REMARK    6  A    between atoms: C_12  and  C_13 
REMARK    7  A    between atoms: C_13  and  N_14 
REMARK    8  A    between atoms: C_23  and  O_24 
REMARK    9  A    between atoms: C_25  and  C_26 
REMARK   10  A    between atoms: C_26  and  C_27 
REMARK   11  A    between atoms: C_31  and  O_32 
REMARK   12  A    between atoms: O_32  and  C_33 
REMARK   13  A    between atoms: C_33  and  C_34 
ROOT
HETATM    1  C   UNL     1       7.436  -1.387  -2.220  1.00  0.00     0.161 A 
HETATM    2  N   UNL     1       7.647  -2.826  -2.062  1.00  0.00    -0.332 N 
HETATM    3  C   UNL     1       8.684  -3.089  -1.206  1.00  0.00     0.278 A 
HETATM    4  O   UNL     1       9.206  -4.175  -1.018  1.00  0.00    -0.265 OA
HETATM    5  C   UNL     1       9.151  -1.814  -0.645  1.00  0.00     0.146 A 
HETATM    6  C   UNL     1       8.431  -0.846  -1.229  1.00  0.00     0.059 A 
ENDROOT
BRANCH   6   7
HETATM    7  C   UNL     1       8.489   0.611  -0.977  1.00  0.00     0.194 C 
HETATM    8  O   UNL     1       7.728   1.380  -1.549  1.00  0.00    -0.287 OA
BRANCH   7   9
HETATM    9  C   UNL     1       9.470   1.116   0.001  1.00  0.00     0.021 A 
HETATM   10  C   UNL     1      10.753   1.521  -0.398  1.00  0.00    -0.045 A 
HETATM   11  C   UNL     1      11.151   1.624  -1.840  1.00  0.00     0.049 C 
HETATM   12  C   UNL     1      11.673   1.874   0.602  1.00  0.00     0.044 A 
HETATM   13  C   UNL     1      11.333   1.804   1.958  1.00  0.00     0.069 A 
HETATM   14  C   UNL     1      10.034   1.459   2.329  1.00  0.00     0.038 A 
HETATM   15  C   UNL     1       9.098   1.116   1.351  1.00  0.00     0.019 A 
BRANCH  13  16
HETATM   16  O   UNL     1      12.350   2.106   2.821  1.00  0.00    -0.347 OA
BRANCH  16  17
HETATM   17  C   UNL     1      12.211   1.613   4.154  1.00  0.00     0.214 C 
BRANCH  17  18
HETATM   18  C   UNL     1      13.553   1.696   4.836  1.00  0.00    -0.034 A 
HETATM   19  C   UNL     1      14.015   2.919   5.342  1.00  0.00     0.009 A 
HETATM   20  C   UNL     1      15.257   3.001   5.973  1.00  0.00     0.001 A 
HETATM   21  C   UNL     1      16.052   1.863   6.098  1.00  0.00     0.000 A 
HETATM   22  C   UNL     1      15.611   0.645   5.586  1.00  0.00     0.001 A 
HETATM   23  C   UNL     1      14.369   0.562   4.954  1.00  0.00     0.009 A 
ENDBRANCH  17  18
ENDBRANCH  16  17
ENDBRANCH  13  16
ENDBRANCH   7   9
ENDBRANCH   6   7
BRANCH   1  24
HETATM   24  C   UNL     1       7.656  -0.999  -3.672  1.00  0.00    -0.028 A 
HETATM   25  C   UNL     1       6.535  -0.724  -4.479  1.00  0.00     0.012 A 
HETATM   26  C   UNL     1       6.681  -0.479  -5.844  1.00  0.00     0.040 A 
HETATM   27  C   UNL     1       7.948  -0.489  -6.405  1.00  0.00     0.099 A 
HETATM   28  C   UNL     1       9.083  -0.714  -5.626  1.00  0.00     0.102 A 
HETATM   29  C   UNL     1       8.936  -0.993  -4.266  1.00  0.00     0.049 A 
BRANCH  27  30
HETATM   30  O   UNL     1       8.060  -0.263  -7.747  1.00  0.00    -0.358 OA
HETATM   31  H   UNL     1       9.017  -0.214  -7.937  1.00  0.00     0.218 HD
ENDBRANCH  27  30
BRANCH  28  32
HETATM   32  O   UNL     1      10.280  -0.704  -6.291  1.00  0.00    -0.349 OA
BRANCH  32  33
HETATM   33  C   UNL     1      11.380  -0.166  -5.550  1.00  0.00     0.171 C 
HETATM   34  C   UNL     1      12.364   0.432  -6.539  1.00  0.00     0.034 C 
ENDBRANCH  32  33
ENDBRANCH  28  32
ENDBRANCH   1  24
BRANCH   5  35
HETATM   35  O   UNL     1      10.139  -1.727   0.284  1.00  0.00    -0.355 OA
HETATM   36  H   UNL     1      10.389  -2.637   0.540  1.00  0.00     0.218 HD
ENDBRANCH   5  35
BRANCH   2  37
HETATM   37  C   UNL     1       6.833  -3.845  -2.725  1.00  0.00     0.155 C 
BRANCH  37  38
HETATM   38  C   UNL     1       7.505  -4.496  -3.954  1.00  0.00     0.255 C 
BRANCH  38  39
HETATM   39  N   UNL     1       8.831  -5.138  -3.602  1.00  0.00    -0.066 N 
HETATM   40  H   UNL     1       9.255  -4.579  -2.846  1.00  0.00     0.280 HD
HETATM   41  C   UNL     1       8.713  -6.536  -3.005  1.00  0.00     0.261 C 
HETATM   42  C   UNL     1      10.112  -7.031  -2.611  1.00  0.00     0.195 C 
HETATM   43  O   UNL     1      10.992  -7.029  -3.742  1.00  0.00    -0.388 OA
HETATM   44  C   UNL     1      11.155  -5.714  -4.286  1.00  0.00     0.195 C 
HETATM   45  C   UNL     1       9.814  -5.144  -4.762  1.00  0.00     0.261 C 
ENDBRANCH  38  39
ENDBRANCH  37  38
ENDBRANCH   2  37
TORSDOF 13
