REMARK  6 active torsions:
REMARK  status: ('A' for Active; 'I' for Inactive)
REMARK    1  A    between atoms: C_2  and  C_3 
REMARK    2  A    between atoms: C_7  and  C_8 
REMARK       I    between atoms: C_8  and  N_9 
REMARK    3  A    between atoms: N_9  and  C_10 
REMARK    4  A    between atoms: C_12  and  N_13 
REMARK       I    between atoms: N_13  and  C_14 
REMARK    5  A    between atoms: C_14  and  C_15 
REMARK    6  A    between atoms: C_23  and  O_24 
ROOT
HETATM    1  C   UNL     1       6.691   1.858  -0.057  1.00  0.00     0.037 A 
HETATM    2  C   UNL     1       7.288   1.315  -1.202  1.00  0.00     0.062 A 
HETATM    3  C   UNL     1       7.448  -0.067  -1.340  1.00  0.00     0.070 A 
HETATM    4  C   UNL     1       7.034  -0.925  -0.301  1.00  0.00     0.095 A 
HETATM    5  C   UNL     1       6.466  -0.382   0.852  1.00  0.00     0.041 A 
HETATM    6  C   UNL     1       6.290   1.002   0.968  1.00  0.00     0.032 A 
ENDROOT
BRANCH   1   7
HETATM    7  N   UNL     1       6.534   3.259  -0.018  1.00  0.00    -0.322 N 
HETATM    8  C   UNL     1       5.777   3.996   0.870  1.00  0.00     0.274 C 
HETATM    9  O   UNL     1       5.060   3.530   1.749  1.00  0.00    -0.266 OA
HETATM   10  H   UNL     1       6.938   3.766  -0.795  1.00  0.00     0.169 HD
BRANCH   8  11
HETATM   11  C   UNL     1       5.839   5.421   0.654  1.00  0.00     0.120 A 
HETATM   12  N   UNL     1       4.927   6.270   1.221  1.00  0.00    -0.273 N 
HETATM   13  N   UNL     1       5.115   7.563   0.915  1.00  0.00    -0.179 NA
HETATM   14  H   UNL     1       4.147   6.013   1.819  1.00  0.00     0.189 HD
HETATM   15  C   UNL     1       6.214   7.559   0.152  1.00  0.00     0.056 A 
HETATM   16  C   UNL     1       6.702   6.244  -0.044  1.00  0.00     0.065 A 
BRANCH  15  17
HETATM   17  C   UNL     1       6.787   8.838  -0.359  1.00  0.00     0.056 C 
HETATM   18  C   UNL     1       6.640   8.986  -1.865  1.00  0.00     0.011 C 
ENDBRANCH  15  17
ENDBRANCH   8  11
ENDBRANCH   1   7
BRANCH   3  19
HETATM   19  N   UNL     1       7.964  -0.679  -2.506  1.00  0.00    -0.320 N 
HETATM   20  C   UNL     1       8.429  -0.068  -3.652  1.00  0.00     0.256 C 
HETATM   21  O   UNL     1       8.647   1.128  -3.803  1.00  0.00    -0.267 OA
HETATM   22  H   UNL     1       7.980  -1.692  -2.448  1.00  0.00     0.169 HD
BRANCH  20  23
HETATM   23  C   UNL     1       8.696  -0.987  -4.796  1.00  0.00     0.035 A 
HETATM   24  C   UNL     1       7.944  -2.150  -4.995  1.00  0.00     0.059 A 
HETATM   25  C   UNL     1       8.205  -2.949  -6.103  1.00  0.00     0.117 A 
HETATM   26  F   UNL     1       7.481  -4.060  -6.294  1.00  0.00    -0.206 F 
HETATM   27  C   UNL     1       9.193  -2.611  -7.021  1.00  0.00     0.042 A 
HETATM   28  C   UNL     1       9.935  -1.446  -6.835  1.00  0.00     0.004 A 
HETATM   29  C   UNL     1       9.684  -0.633  -5.727  1.00  0.00     0.017 A 
ENDBRANCH  20  23
ENDBRANCH   3  19
BRANCH   4  30
HETATM   30  O   UNL     1       7.226  -2.268  -0.531  1.00  0.00    -0.354 OA
HETATM   31  C   UNL     1       6.786  -3.164   0.484  1.00  0.00     0.210 C 
ENDBRANCH   4  30
TORSDOF 6
