REMARK  6 active torsions:
REMARK  status: ('A' for Active; 'I' for Inactive)
REMARK    1  A    between atoms: C_2  and  C_3 
REMARK    2  A    between atoms: C_3  and  C_4 
REMARK    3  A    between atoms: C_6  and  N_7 
REMARK    4  A    between atoms: C_9  and  C_10 
REMARK    5  A    between atoms: C_16  and  N_17 
REMARK       I    between atoms: N_17  and  C_18 
REMARK    6  A    between atoms: C_18  and  C_19 
ROOT
HETATM    1  N   UNL     1       7.323   0.004  -2.442  1.00  0.00    -0.044 N 
HETATM    2  N   UNL     1       7.276   1.334  -2.735  1.00  0.00    -0.148 NA
HETATM    3  C   UNL     1       8.255   1.497  -3.632  1.00  0.00     0.115 A 
HETATM    4  C   UNL     1       8.896   0.280  -3.952  1.00  0.00     0.087 A 
HETATM    5  C   UNL     1       8.273  -0.679  -3.187  1.00  0.00     0.152 A 
ENDROOT
BRANCH   5   6
HETATM    6  N   UNL     1       8.503  -2.056  -3.137  1.00  0.00    -0.310 N 
HETATM    7  C   UNL     1       9.407  -2.757  -4.015  1.00  0.00     0.236 C 
HETATM    8  O   UNL     1      10.082  -2.135  -4.827  1.00  0.00    -0.272 OA
HETATM    9  H   UNL     1       7.955  -2.586  -2.453  1.00  0.00     0.170 HD
BRANCH   7  10
HETATM   10  C   UNL     1       9.501  -4.272  -3.864  1.00  0.00     0.149 C 
HETATM   11  C   UNL     1       8.147  -4.913  -3.682  1.00  0.00    -0.007 A 
HETATM   12  C   UNL     1       7.848  -5.586  -2.495  1.00  0.00     0.083 A 
HETATM   13  C   UNL     1       7.176  -4.851  -4.695  1.00  0.00     0.011 A 
HETATM   14  C   UNL     1       6.601  -6.187  -2.319  1.00  0.00     0.038 A 
HETATM   15  O   UNL     1       8.724  -5.694  -1.444  1.00  0.00    -0.310 OA
HETATM   16  C   UNL     1       5.638  -6.112  -3.324  1.00  0.00     0.003 A 
HETATM   17  C   UNL     1       5.926  -5.443  -4.512  1.00  0.00     0.001 A 
HETATM   18  C   UNL     1      10.028  -5.312  -1.633  1.00  0.00     0.083 A 
HETATM   19  C   UNL     1      10.475  -4.639  -2.772  1.00  0.00    -0.007 A 
HETATM   20  C   UNL     1      10.919  -5.642  -0.611  1.00  0.00     0.038 A 
HETATM   21  C   UNL     1      11.839  -4.321  -2.885  1.00  0.00     0.011 A 
HETATM   22  C   UNL     1      12.730  -4.660  -1.867  1.00  0.00     0.001 A 
HETATM   23  C   UNL     1      12.270  -5.317  -0.728  1.00  0.00     0.003 A 
ENDBRANCH   7  10
ENDBRANCH   5   6
BRANCH   1  24
HETATM   24  C   UNL     1       6.458  -0.532  -1.477  1.00  0.00     0.732 A 
HETATM   25  N   UNL     1       6.504  -1.775  -1.109  1.00  0.00    -0.067 NA
HETATM   26  C   UNL     1       5.607  -2.133  -0.120  1.00  0.00     0.059 A 
HETATM   27  C   UNL     1       4.683  -1.301   0.389  1.00  0.00     0.102 A 
HETATM   28  C   UNL     1       4.632   0.089  -0.091  1.00  0.00     0.261 A 
HETATM   29  N   UNL     1       5.588   0.408  -1.000  1.00  0.00    -0.152 N 
HETATM   30  O   UNL     1       3.790   0.879   0.312  1.00  0.00    -0.268 OA
HETATM   31  H   UNL     1       5.614   1.357  -1.362  1.00  0.00     0.187 HD
BRANCH  26  32
HETATM   32  C   UNL     1       5.716  -3.550   0.396  1.00  0.00     0.060 C 
BRANCH  32  33
HETATM   33  C   UNL     1       7.031  -3.779   1.146  1.00  0.00     0.002 C 
HETATM   34  C   UNL     1       7.100  -5.176   1.742  1.00  0.00     0.005 C 
ENDBRANCH  32  33
ENDBRANCH  26  32
ENDBRANCH   1  24
BRANCH   3  35
HETATM   35  C   UNL     1       8.613   2.824  -4.210  1.00  0.00     0.105 A 
HETATM   36  O   UNL     1       9.620   3.021  -5.115  1.00  0.00    -0.320 OA
HETATM   37  C   UNL     1       9.655   4.348  -5.398  1.00  0.00     0.142 A 
HETATM   38  C   UNL     1       8.683   5.016  -4.694  1.00  0.00     0.027 A 
HETATM   39  C   UNL     1       8.010   4.034  -3.927  1.00  0.00     0.041 A 
ENDBRANCH   3  35
TORSDOF 6
