REMARK  4 active torsions:
REMARK  status: ('A' for Active; 'I' for Inactive)
REMARK    1  A    between atoms: C_3  and  N_4 
REMARK       I    between atoms: N_4  and  C_5 
REMARK    2  A    between atoms: C_5  and  C_6 
REMARK    3  A    between atoms: C_14  and  C_15 
REMARK       I    between atoms: C_15  and  N_16 
REMARK    4  A    between atoms: N_16  and  C_17 
ROOT
HETATM    1  C   UNL     1      -1.182   1.023   0.137  1.00  0.00     0.003 A 
HETATM    2  C   UNL     1       0.190   1.288   0.070  1.00  0.00     0.029 A 
HETATM    3  C   UNL     1       1.094   0.277  -0.262  1.00  0.00     0.036 A 
HETATM    4  C   UNL     1       0.609  -1.008  -0.529  1.00  0.00     0.046 A 
HETATM    5  C   UNL     1      -0.763  -1.281  -0.443  1.00  0.00     0.034 A 
HETATM    6  C   UNL     1      -1.663  -0.260  -0.119  1.00  0.00     0.017 A 
ENDROOT
BRANCH   5   7
HETATM    7  C   UNL     1      -1.232  -2.663  -0.726  1.00  0.00     0.257 C 
HETATM    8  N   UNL     1      -2.243  -3.103   0.093  1.00  0.00    -0.307 N 
HETATM    9  H   UNL     1      -2.521  -2.545   0.889  1.00  0.00     0.170 HD
HETATM   10  O   UNL     1      -0.677  -3.302  -1.612  1.00  0.00    -0.267 OA
BRANCH   8  11
HETATM   11  C   UNL     1      -2.910  -4.326   0.056  1.00  0.00     0.130 A 
HETATM   12  N   UNL     1      -3.768  -4.498   1.086  1.00  0.00    -0.242 NA
HETATM   13  C   UNL     1      -4.462  -5.663   1.130  1.00  0.00     0.142 A 
HETATM   14  C   UNL     1      -4.350  -6.665   0.181  1.00  0.00     0.051 A 
HETATM   15 CL   UNL     1      -5.267  -8.108   0.304  1.00  0.00    -0.083 Cl
HETATM   16  C   UNL     1      -3.474  -6.466  -0.876  1.00  0.00     0.029 A 
HETATM   17  C   UNL     1      -2.741  -5.279  -0.941  1.00  0.00     0.052 A 
ENDBRANCH   8  11
ENDBRANCH   5   7
BRANCH   3  18
HETATM   18  N   UNL     1       2.484   0.465  -0.336  1.00  0.00    -0.322 N 
HETATM   19  C   UNL     1       3.213   1.618  -0.117  1.00  0.00     0.276 C 
HETATM   20  O   UNL     1       2.768   2.726   0.160  1.00  0.00    -0.266 OA
HETATM   21  H   UNL     1       3.068  -0.337  -0.567  1.00  0.00     0.169 HD
BRANCH  19  22
HETATM   22  C   UNL     1       4.662   1.379  -0.252  1.00  0.00     0.146 A 
HETATM   23  N   UNL     1       5.160   0.154  -0.534  1.00  0.00    -0.170 NA
HETATM   24  N   UNL     1       6.492   0.342  -0.560  1.00  0.00    -0.289 N 
HETATM   25  H   UNL     1       7.088  -0.456  -0.753  1.00  0.00     0.188 HD
HETATM   26  C   UNL     1       6.868   1.628  -0.314  1.00  0.00     0.112 A 
HETATM   27  C   UNL     1       5.705   2.330  -0.110  1.00  0.00     0.058 A 
ENDBRANCH  19  22
ENDBRANCH   3  18
TORSDOF 4
