REMARK  6 active torsions:
REMARK  status: ('A' for Active; 'I' for Inactive)
REMARK    1  A    between atoms: O_2  and  C_3 
REMARK    2  A    between atoms: C_6  and  C_7 
REMARK    3  A    between atoms: C_12  and  C_13 
REMARK       I    between atoms: C_13  and  N_14 
REMARK    4  A    between atoms: N_14  and  C_15 
REMARK    5  A    between atoms: C_15  and  C_16 
REMARK    6  A    between atoms: C_24  and  C_25 
ROOT
HETATM    1  C   UNL     1       4.335   4.551  -3.116  1.00  0.00     0.118 C 
HETATM    2  N   UNL     1       3.096   5.147  -3.597  1.00  0.00    -0.366 N 
HETATM    3  C   UNL     1       2.798   6.447  -3.401  1.00  0.00     0.123 A 
HETATM    4  N   UNL     1       3.577   7.259  -2.624  1.00  0.00    -0.240 N 
HETATM    5  N   UNL     1       3.115   8.520  -2.522  1.00  0.00    -0.165 NA
HETATM    6  C   UNL     1       2.011   8.518  -3.305  1.00  0.00     0.148 A 
HETATM    7  C   UNL     1       1.775   7.231  -3.859  1.00  0.00     0.088 A 
HETATM    8  C   UNL     1       4.773   6.826  -1.928  1.00  0.00     0.221 C 
HETATM    9  C   UNL     1       4.852   5.287  -1.867  1.00  0.00     0.066 C 
HETATM   10  H   UNL     1       2.598   4.600  -4.300  1.00  0.00     0.161 HD
ENDROOT
BRANCH   6  11
HETATM   11  C   UNL     1       1.202   9.724  -3.534  1.00  0.00     0.272 C 
HETATM   12  N   UNL     1       1.736  10.857  -2.971  1.00  0.00    -0.351 N 
HETATM   13  H   UNL     1       2.603  10.741  -2.454  1.00  0.00     0.163 HD
HETATM   14  O   UNL     1       0.164   9.707  -4.188  1.00  0.00    -0.266 OA
BRANCH  12  15
HETATM   15  C   UNL     1       1.146  12.162  -3.120  1.00  0.00     0.161 C 
BRANCH  15  16
HETATM   16  C   UNL     1       2.111  13.181  -3.677  1.00  0.00    -0.041 A 
HETATM   17  C   UNL     1       3.041  12.849  -4.675  1.00  0.00     0.009 A 
HETATM   18  C   UNL     1       3.891  13.819  -5.209  1.00  0.00     0.001 A 
HETATM   19  C   UNL     1       3.810  15.138  -4.767  1.00  0.00     0.000 A 
HETATM   20  C   UNL     1       2.879  15.487  -3.792  1.00  0.00     0.001 A 
HETATM   21  C   UNL     1       2.032  14.516  -3.253  1.00  0.00     0.009 A 
ENDBRANCH  15  16
ENDBRANCH  12  15
ENDBRANCH   6  11
BRANCH   8  22
HETATM   22  C   UNL     1       6.001   7.482  -2.519  1.00  0.00     0.409 C 
HETATM   23  F   UNL     1       6.113   7.334  -3.852  1.00  0.00    -0.169 F 
HETATM   24  F   UNL     1       6.040   8.810  -2.257  1.00  0.00    -0.169 F 
HETATM   25  F   UNL     1       7.124   6.958  -1.963  1.00  0.00    -0.169 F 
ENDBRANCH   8  22
BRANCH   1  26
HETATM   26  C   UNL     1       5.361   4.363  -4.218  1.00  0.00    -0.035 A 
HETATM   27  C   UNL     1       5.395   5.152  -5.377  1.00  0.00     0.012 A 
HETATM   28  C   UNL     1       6.376   4.960  -6.358  1.00  0.00     0.037 A 
HETATM   29  C   UNL     1       7.333   3.960  -6.207  1.00  0.00     0.068 A 
HETATM   30  C   UNL     1       7.287   3.141  -5.080  1.00  0.00     0.037 A 
HETATM   31  C   UNL     1       6.320   3.345  -4.091  1.00  0.00     0.012 A 
BRANCH  29  32
HETATM   32  O   UNL     1       8.339   3.677  -7.089  1.00  0.00    -0.356 OA
HETATM   33  C   UNL     1       8.651   4.694  -8.033  1.00  0.00     0.210 C 
ENDBRANCH  29  32
ENDBRANCH   1  26
TORSDOF 6
