REMARK  3 active torsions:
REMARK  status: ('A' for Active; 'I' for Inactive)
REMARK    1  A    between atoms: C_3  and  N_4 
REMARK       I    between atoms: N_4  and  C_5 
REMARK    2  A    between atoms: C_5  and  C_6 
REMARK    3  A    between atoms: C_7  and  C_8 
ROOT
HETATM    1  C   UNL     1       4.581   3.832  -0.056  1.00  0.00     0.063 C 
HETATM    2  C   UNL     1       5.246   5.170  -0.377  1.00  0.00     0.216 C 
HETATM    3  N   UNL     1       6.697   5.051  -0.344  1.00  0.00    -0.091 N 
HETATM    4  C   UNL     1       7.366   4.037   0.278  1.00  0.00     0.735 A 
HETATM    5  N   UNL     1       6.654   3.033   0.829  1.00  0.00    -0.191 N 
HETATM    6  N   UNL     1       7.561   5.940  -0.854  1.00  0.00     0.012 NA
HETATM    7  N   UNL     1       8.758   5.464  -0.520  1.00  0.00     0.033 NA
HETATM    8  N   UNL     1       8.650   4.282   0.191  1.00  0.00     0.030 NA
HETATM    9  C   UNL     1       5.293   2.853   0.568  1.00  0.00     0.037 C 
HETATM   10  C   UNL     1       4.726   1.525   1.011  1.00  0.00     0.070 C 
HETATM   11  H   UNL     1       7.160   2.223   1.183  1.00  0.00     0.184 HD
ENDROOT
BRANCH   1  12
HETATM   12  C   UNL     1       3.210   3.562  -0.615  1.00  0.00     0.256 C 
HETATM   13  N   UNL     1       2.417   4.669  -0.811  1.00  0.00    -0.323 N 
HETATM   14  H   UNL     1       2.667   5.521  -0.310  1.00  0.00     0.169 HD
HETATM   15  O   UNL     1       2.877   2.407  -0.859  1.00  0.00    -0.267 OA
BRANCH  13  16
HETATM   16  C   UNL     1       1.126   4.703  -1.393  1.00  0.00     0.041 A 
HETATM   17  C   UNL     1       0.671   3.893  -2.448  1.00  0.00    -0.035 A 
HETATM   18  C   UNL     1       1.528   2.927  -3.220  1.00  0.00     0.050 C 
HETATM   19  C   UNL     1      -0.670   4.017  -2.869  1.00  0.00     0.009 A 
HETATM   20  C   UNL     1      -1.524   4.964  -2.308  1.00  0.00     0.001 A 
HETATM   21  C   UNL     1      -1.050   5.813  -1.319  1.00  0.00     0.002 A 
HETATM   22  C   UNL     1       0.266   5.688  -0.873  1.00  0.00     0.030 A 
ENDBRANCH  13  16
ENDBRANCH   1  12
BRANCH   2  23
HETATM   23  C   UNL     1       4.781   6.268   0.583  1.00  0.00     0.064 A 
HETATM   24  N   UNL     1       3.698   6.990   0.176  1.00  0.00    -0.263 NA
HETATM   25  C   UNL     1       3.245   7.971   0.993  1.00  0.00     0.117 A 
HETATM   26  C   UNL     1       3.782   8.244   2.236  1.00  0.00     0.019 A 
HETATM   27  C   UNL     1       4.850   7.472   2.668  1.00  0.00     0.003 A 
HETATM   28  C   UNL     1       5.355   6.471   1.841  1.00  0.00     0.030 A 
ENDBRANCH   2  23
TORSDOF 3
