REMARK  6 active torsions:
REMARK  status: ('A' for Active; 'I' for Inactive)
REMARK    1  A    between atoms: C_5  and  N_6 
REMARK    2  A    between atoms: C_17  and  C_29 
REMARK    3  A    between atoms: C_17  and  N_18 
REMARK       I    between atoms: N_18  and  C_19 
REMARK    4  A    between atoms: C_19  and  C_20 
REMARK    5  A    between atoms: C_20  and  C_21 
REMARK    6  A    between atoms: C_21  and  C_22 
ROOT
HETATM    1  N   UNL     1       6.796   0.374  -0.642  1.00  0.00    -0.248 N 
HETATM    2  C   UNL     1       7.477  -0.799  -1.050  1.00  0.00     0.335 A 
HETATM    3  O   UNL     1       7.004  -1.932  -1.133  1.00  0.00    -0.246 OA
HETATM    4  N   UNL     1       8.789  -0.629  -1.446  1.00  0.00    -0.274 N 
HETATM    5  C   UNL     1       9.464   0.549  -1.575  1.00  0.00     0.262 A 
HETATM    6  O   UNL     1      10.596   0.639  -2.028  1.00  0.00    -0.267 OA
HETATM    7  C   UNL     1       8.733   1.706  -1.110  1.00  0.00     0.101 A 
HETATM    8  C   UNL     1       7.483   1.574  -0.667  1.00  0.00     0.134 A 
HETATM    9  N   UNL     1       7.063   2.782  -0.200  1.00  0.00    -0.309 N 
HETATM   10  C   UNL     1       8.053   3.754  -0.316  1.00  0.00     0.266 A 
HETATM   11  O   UNL     1       7.958   4.897   0.102  1.00  0.00    -0.270 OA
HETATM   12  C   UNL     1       9.253   3.108  -1.033  1.00  0.00     0.249 A 
HETATM   13  H   UNL     1       9.255  -1.464  -1.770  1.00  0.00     0.173 HD
HETATM   14  H   UNL     1       6.213   2.944   0.324  1.00  0.00     0.170 HD
ENDROOT
BRANCH  12  15
HETATM   15  C   UNL     1       9.295   3.781  -2.411  1.00  0.00     0.426 C 
HETATM   16  F   UNL     1       8.123   3.662  -3.081  1.00  0.00    -0.167 F 
HETATM   17  F   UNL     1       9.587   5.099  -2.332  1.00  0.00    -0.167 F 
HETATM   18  F   UNL     1      10.251   3.225  -3.196  1.00  0.00    -0.167 F 
ENDBRANCH  12  15
BRANCH  12  19
HETATM   19  N   UNL     1      10.526   3.199  -0.288  1.00  0.00    -0.332 N 
HETATM   20  C   UNL     1      10.649   2.791   1.014  1.00  0.00     0.219 C 
HETATM   21  O   UNL     1       9.682   2.399   1.665  1.00  0.00    -0.274 OA
HETATM   22  H   UNL     1      11.359   3.130  -0.866  1.00  0.00     0.164 HD
BRANCH  20  23
HETATM   23  C   UNL     1      12.047   2.761   1.607  1.00  0.00     0.107 C 
BRANCH  23  24
HETATM   24  C   UNL     1      13.043   3.802   1.087  1.00  0.00     0.047 C 
BRANCH  24  25
HETATM   25  C   UNL     1      13.677   3.513  -0.257  1.00  0.00    -0.058 A 
HETATM   26  C   UNL     1      13.890   4.568  -1.158  1.00  0.00     0.007 A 
HETATM   27  C   UNL     1      14.481   4.336  -2.402  1.00  0.00     0.001 A 
HETATM   28  C   UNL     1      14.874   3.049  -2.759  1.00  0.00     0.000 A 
HETATM   29  C   UNL     1      14.687   1.997  -1.868  1.00  0.00     0.001 A 
HETATM   30  C   UNL     1      14.104   2.228  -0.620  1.00  0.00     0.007 A 
ENDBRANCH  24  25
ENDBRANCH  23  24
ENDBRANCH  20  23
ENDBRANCH  12  19
BRANCH   1  31
HETATM   31  C   UNL     1       5.403   0.271  -0.283  1.00  0.00     0.045 A 
HETATM   32  C   UNL     1       4.918  -0.830   0.437  1.00  0.00     0.031 A 
HETATM   33  C   UNL     1       3.564  -0.937   0.774  1.00  0.00     0.009 A 
HETATM   34  C   UNL     1       2.655   0.049   0.385  1.00  0.00    -0.062 A 
HETATM   35  C   UNL     1       1.207  -0.055   0.763  1.00  0.00     0.048 C 
HETATM   36  C   UNL     1       3.127   1.156  -0.323  1.00  0.00     0.009 A 
HETATM   37  C   UNL     1       4.482   1.261  -0.660  1.00  0.00     0.031 A 
ENDBRANCH   1  31
TORSDOF 6
