REMARK  10 active torsions:
REMARK  status: ('A' for Active; 'I' for Inactive)
REMARK    1  A    between atoms: C_2  and  C_3 
REMARK    2  A    between atoms: C_3  and  O_4 
REMARK    3  A    between atoms: O_4  and  C_5 
REMARK    4  A    between atoms: C_7  and  C_8 
REMARK       I    between atoms: C_8  and  N_9 
REMARK    5  A    between atoms: N_9  and  C_10 
REMARK    6  A    between atoms: C_10  and  N_11 
REMARK    7  A    between atoms: N_11  and  C_12 
REMARK    8  A    between atoms: C_15  and  N_16 
REMARK    9  A    between atoms: N_19  and  C_21 
REMARK   10  A    between atoms: C_21  and  C_22 
ROOT
HETATM    1  C   UNL     1       7.520  -4.607   2.089  1.00  0.00     0.034 C 
HETATM    2  C   UNL     1       7.308  -4.408   0.738  1.00  0.00     0.032 C 
HETATM    3  C   UNL     1       6.699  -3.240   0.253  1.00  0.00     0.031 C 
HETATM    4  C   UNL     1       6.344  -2.171   1.084  1.00  0.00     0.030 C 
HETATM    5  C   UNL     1       6.483  -2.421   2.457  1.00  0.00     0.031 C 
HETATM    6  C   UNL     1       7.055  -3.611   2.950  1.00  0.00     0.032 C 
ENDROOT
BRANCH   1   7
HETATM    7  N   UNL     1       8.188  -5.700   2.681  1.00  0.00    -0.333 N 
HETATM    8  H   UNL     1       8.199  -5.682   3.696  1.00  0.00     0.168 HD
BRANCH   7   9
HETATM    9  C   UNL     1       9.042  -6.649   2.224  1.00  0.00     0.179 C 
HETATM   10  S   UNL     1      10.026  -7.408   3.349  1.00  0.00    -0.040 SA
BRANCH   9  11
HETATM   11  N   UNL     1       9.258  -6.915   0.915  1.00  0.00    -0.299 N 
HETATM   12  C   UNL     1       8.282  -7.334   0.031  1.00  0.00     0.257 C 
HETATM   13  O   UNL     1       7.143  -7.648   0.358  1.00  0.00    -0.267 OA
HETATM   14  H   UNL     1      10.116  -7.437   0.786  1.00  0.00     0.171 HD
BRANCH  12  15
HETATM   15  C   UNL     1       8.671  -7.324  -1.417  1.00  0.00     0.035 A 
HETATM   16  C   UNL     1       9.925  -6.878  -1.859  1.00  0.00     0.053 A 
HETATM   17  C   UNL     1      10.181  -6.785  -3.229  1.00  0.00     0.069 A 
HETATM   18  C   UNL     1       9.185  -7.072  -4.159  1.00  0.00     0.037 A 
HETATM   19  C   UNL     1       7.941  -7.522  -3.727  1.00  0.00     0.004 A 
HETATM   20  C   UNL     1       7.686  -7.654  -2.361  1.00  0.00     0.017 A 
BRANCH  17  21
HETATM   21  O   UNL     1      11.373  -6.317  -3.710  1.00  0.00    -0.351 OA
BRANCH  21  22
HETATM   22  C   UNL     1      12.479  -7.185  -3.426  1.00  0.00     0.175 C 
BRANCH  22  23
HETATM   23  C   UNL     1      12.508  -8.418  -4.333  1.00  0.00     0.022 C 
HETATM   24  C   UNL     1      12.585  -8.060  -5.809  1.00  0.00     0.007 C 
ENDBRANCH  22  23
ENDBRANCH  21  22
ENDBRANCH  17  21
ENDBRANCH  12  15
ENDBRANCH   9  11
ENDBRANCH   7   9
ENDBRANCH   1   7
BRANCH   4  25
HETATM   25  N   UNL     1       5.861  -0.953   0.572  1.00  0.00    -0.378 N 
HETATM   26  C   UNL     1       6.090  -0.666  -0.866  1.00  0.00     0.150 C 
HETATM   27  C   UNL     1       7.558  -0.234  -1.095  1.00  0.00     0.255 C 
HETATM   28  N   UNL     1       7.890   0.991  -0.228  1.00  0.00    -0.064 N 
HETATM   29  H   UNL     1       7.304   1.760  -0.571  1.00  0.00     0.280 HD
HETATM   30  C   UNL     1       7.521   0.765   1.247  1.00  0.00     0.255 C 
HETATM   31  C   UNL     1       6.063   0.269   1.385  1.00  0.00     0.150 C 
BRANCH  28  32
HETATM   32  C   UNL     1       9.332   1.426  -0.355  1.00  0.00     0.273 C 
BRANCH  32  33
HETATM   33  C   UNL     1       9.765   1.778  -1.753  1.00  0.00    -0.033 A 
HETATM   34  C   UNL     1       9.062   2.717  -2.525  1.00  0.00     0.009 A 
HETATM   35  C   UNL     1       9.489   3.034  -3.816  1.00  0.00     0.001 A 
HETATM   36  C   UNL     1      10.632   2.436  -4.342  1.00  0.00     0.000 A 
HETATM   37  C   UNL     1      11.352   1.521  -3.578  1.00  0.00     0.001 A 
HETATM   38  C   UNL     1      10.922   1.193  -2.292  1.00  0.00     0.009 A 
ENDBRANCH  32  33
ENDBRANCH  28  32
ENDBRANCH   4  25
TORSDOF 10
