REMARK  5 active torsions:
REMARK  status: ('A' for Active; 'I' for Inactive)
REMARK    1  A    between atoms: C_4  and  C_5 
REMARK    2  A    between atoms: C_13  and  C_14 
REMARK       I    between atoms: C_14  and  N_15 
REMARK    3  A    between atoms: N_15  and  C_16 
REMARK    4  A    between atoms: C_17  and  N_18 
REMARK    5  A    between atoms: C_21  and  O_22 
ROOT
HETATM    1  C   UNL     1       2.171  -2.962  -0.094  1.00  0.00     0.258 C 
HETATM    2  N   UNL     1       3.291  -3.606   0.374  1.00  0.00    -0.321 N 
HETATM    3  O   UNL     1       2.133  -1.964  -0.806  1.00  0.00    -0.267 OA
HETATM    4  H   UNL     1       3.236  -4.222   1.180  1.00  0.00     0.169 HD
ENDROOT
BRANCH   2   5
HETATM    5  C   UNL     1       4.601  -3.466  -0.149  1.00  0.00     0.056 A 
HETATM    6  C   UNL     1       5.680  -3.945   0.638  1.00  0.00     0.037 A 
HETATM    7  C   UNL     1       6.965  -3.932   0.065  1.00  0.00     0.026 A 
HETATM    8  C   UNL     1       7.178  -3.448  -1.229  1.00  0.00     0.002 A 
HETATM    9  C   UNL     1       6.113  -2.955  -1.974  1.00  0.00     0.002 A 
HETATM   10  C   UNL     1       4.829  -2.962  -1.434  1.00  0.00     0.031 A 
BRANCH   6  11
HETATM   11  N   UNL     1       5.440  -4.337   1.993  1.00  0.00    -0.281 NA
HETATM   12  C   UNL     1       5.381  -3.117   2.835  1.00  0.00     0.098 C 
HETATM   13  C   UNL     1       4.919  -3.488   4.245  1.00  0.00     0.046 C 
HETATM   14  C   UNL     1       5.809  -4.564   4.861  1.00  0.00     0.120 C 
HETATM   15  C   UNL     1       5.947  -5.765   3.928  1.00  0.00     0.046 C 
HETATM   16  C   UNL     1       6.394  -5.329   2.534  1.00  0.00     0.098 C 
BRANCH  14  17
HETATM   17  O   UNL     1       7.105  -4.031   5.135  1.00  0.00    -0.395 OA
HETATM   18  H   UNL     1       7.002  -3.338   5.811  1.00  0.00     0.210 HD
ENDBRANCH  14  17
ENDBRANCH   6  11
ENDBRANCH   2   5
BRANCH   1  19
HETATM   19  C   UNL     1       0.888  -3.577   0.271  1.00  0.00     0.056 A 
HETATM   20  C   UNL     1       0.021  -3.003   1.192  1.00  0.00     0.047 A 
HETATM   21  C   UNL     1       0.428  -1.833   2.037  1.00  0.00     0.071 C 
HETATM   22  N   UNL     1      -1.255  -3.453   1.354  1.00  0.00    -0.252 NA
HETATM   23  C   UNL     1      -1.709  -4.468   0.566  1.00  0.00     0.067 A 
HETATM   24  C   UNL     1      -0.866  -5.098  -0.350  1.00  0.00     0.033 A 
HETATM   25  C   UNL     1       0.445  -4.650  -0.497  1.00  0.00     0.021 A 
BRANCH  23  26
HETATM   26  C   UNL     1      -3.156  -4.783   0.680  1.00  0.00    -0.007 A 
HETATM   27  C   UNL     1      -4.056  -3.834   1.205  1.00  0.00     0.014 A 
HETATM   28  C   UNL     1      -5.433  -4.076   1.264  1.00  0.00     0.001 A 
HETATM   29  C   UNL     1      -5.948  -5.281   0.801  1.00  0.00     0.000 A 
HETATM   30  C   UNL     1      -5.085  -6.246   0.292  1.00  0.00     0.001 A 
HETATM   31  C   UNL     1      -3.707  -6.001   0.238  1.00  0.00     0.014 A 
ENDBRANCH  23  26
ENDBRANCH   1  19
TORSDOF 5
