REMARK  9 active torsions:
REMARK  status: ('A' for Active; 'I' for Inactive)
REMARK    1  A    between atoms: C_6  and  S_7 
REMARK    2  A    between atoms: S_7  and  C_8 
REMARK    3  A    between atoms: C_8  and  C_9 
REMARK       I    between atoms: C_9  and  N_10 
REMARK    4  A    between atoms: N_10  and  N_11 
REMARK    5  A    between atoms: N_11  and  C_12 
REMARK    6  A    between atoms: C_12  and  N_13 
REMARK    7  A    between atoms: N_13  and  C_14 
REMARK    8  A    between atoms: C_17  and  O_18 
REMARK    9  A    between atoms: O_18  and  C_19 
ROOT
HETATM    1  C   UNL     1      -6.259  -1.935  -0.068  1.00  0.00     0.245 C 
HETATM    2  N   UNL     1      -6.460  -0.687  -0.646  1.00  0.00    -0.267 N 
HETATM    3  O   UNL     1      -6.004  -2.113   1.123  1.00  0.00    -0.271 OA
HETATM    4  H   UNL     1      -7.081  -0.652  -1.454  1.00  0.00     0.190 HD
ENDROOT
BRANCH   2   5
HETATM    5  N   UNL     1      -6.547   0.415   0.214  1.00  0.00    -0.274 N 
HETATM    6  H   UNL     1      -7.457   0.584   0.626  1.00  0.00     0.189 HD
BRANCH   5   7
HETATM    7  C   UNL     1      -5.471   1.212   0.508  1.00  0.00     0.191 C 
HETATM    8  S   UNL     1      -3.999   1.180  -0.295  1.00  0.00    -0.039 SA
BRANCH   7   9
HETATM    9  N   UNL     1      -5.651   2.181   1.459  1.00  0.00    -0.332 N 
HETATM   10  H   UNL     1      -4.935   2.899   1.426  1.00  0.00     0.168 HD
BRANCH   9  11
HETATM   11  C   UNL     1      -6.640   2.331   2.449  1.00  0.00     0.034 A 
HETATM   12  C   UNL     1      -7.397   1.276   2.957  1.00  0.00     0.032 A 
HETATM   13  C   UNL     1      -8.396   1.518   3.906  1.00  0.00     0.039 A 
HETATM   14  C   UNL     1      -8.631   2.808   4.385  1.00  0.00     0.075 A 
HETATM   15  C   UNL     1      -7.835   3.856   3.924  1.00  0.00     0.039 A 
HETATM   16  C   UNL     1      -6.836   3.613   2.972  1.00  0.00     0.032 A 
BRANCH  14  17
HETATM   17  O   UNL     1      -9.656   2.903   5.283  1.00  0.00    -0.290 OA
BRANCH  17  18
HETATM   18  C   UNL     1      -9.860   4.164   5.897  1.00  0.00     0.505 C 
HETATM   19  F   UNL     1     -10.291   5.053   4.968  1.00  0.00    -0.184 F 
HETATM   20  F   UNL     1     -10.870   4.019   6.791  1.00  0.00    -0.184 F 
ENDBRANCH  17  18
ENDBRANCH  14  17
ENDBRANCH   9  11
ENDBRANCH   7   9
ENDBRANCH   5   7
ENDBRANCH   2   5
BRANCH   1  21
HETATM   21  C   UNL     1      -6.405  -3.077  -1.060  1.00  0.00     0.187 C 
BRANCH  21  22
HETATM   22  S   UNL     1      -7.808  -4.142  -0.625  1.00  0.00    -0.083 SA
BRANCH  22  23
HETATM   23  C   UNL     1      -9.093  -2.994  -0.602  1.00  0.00     0.168 A 
HETATM   24  N   UNL     1      -9.114  -1.802  -1.149  1.00  0.00    -0.223 NA
HETATM   25  C   UNL     1     -10.330  -1.275  -0.771  1.00  0.00     0.086 A 
HETATM   26  C   UNL     1     -11.049  -2.178   0.010  1.00  0.00     0.063 A 
HETATM   27  C   UNL     1     -10.888  -0.019  -1.048  1.00  0.00     0.034 A 
HETATM   28  C   UNL     1     -12.309  -1.902   0.543  1.00  0.00     0.032 A 
HETATM   29  N   UNL     1     -10.233  -3.277   0.088  1.00  0.00    -0.333 N 
HETATM   30  C   UNL     1     -12.846  -0.642   0.258  1.00  0.00     0.002 A 
HETATM   31  C   UNL     1     -12.152   0.285  -0.523  1.00  0.00     0.002 A 
HETATM   32  H   UNL     1     -10.414  -4.132   0.592  1.00  0.00     0.168 HD
ENDBRANCH  22  23
ENDBRANCH  21  22
ENDBRANCH   1  21
TORSDOF 9
