REMARK  2 active torsions:
REMARK  status: ('A' for Active; 'I' for Inactive)
REMARK    1  A    between atoms: C_8  and  S_9 
REMARK    2  A    between atoms: S_9  and  C_10 
ROOT
HETATM    1  C   UNL     1      -1.890   0.829   1.880  1.00  0.00     0.002 A 
HETATM    2  C   UNL     1      -0.595   1.317   1.700  1.00  0.00     0.034 A 
HETATM    3  C   UNL     1       0.293   0.704   0.824  1.00  0.00     0.087 A 
HETATM    4  C   UNL     1      -0.138  -0.437   0.097  1.00  0.00     0.087 A 
HETATM    5  N   UNL     1       0.676  -1.058  -0.777  1.00  0.00    -0.232 NA
HETATM    6  C   UNL     1       1.910  -0.537  -0.937  1.00  0.00     0.164 A 
HETATM    7 CL   UNL     1       2.858  -1.362  -2.103  1.00  0.00    -0.059 Cl
HETATM    8  C   UNL     1       2.337   0.569  -0.219  1.00  0.00     0.165 A 
HETATM    9  N   UNL     1       1.542   1.201   0.680  1.00  0.00    -0.234 NA
HETATM   10  C   UNL     1      -1.427  -0.916   0.289  1.00  0.00     0.034 A 
HETATM   11  C   UNL     1      -2.306  -0.293   1.175  1.00  0.00     0.002 A 
ENDROOT
BRANCH   8  12
HETATM   12  S   UNL     1       3.959   1.319  -0.396  1.00  0.00     0.078 S 
HETATM   13  O   UNL     1       4.950   0.236  -0.058  1.00  0.00    -0.251 OA
BRANCH  12  14
HETATM   14  C   UNL     1       3.995   2.471   1.045  1.00  0.00     0.112 C 
HETATM   15  C   UNL     1       4.159   1.679   2.349  1.00  0.00     0.250 C 
HETATM   16  N   UNL     1       5.529   1.063   2.415  1.00  0.00    -0.074 N 
HETATM   17  H   UNL     1       5.619   0.418   1.598  1.00  0.00     0.277 HD
HETATM   18  H   UNL     1       5.615   0.461   3.243  1.00  0.00     0.277 HD
HETATM   19  C   UNL     1       6.643   2.047   2.366  1.00  0.00     0.232 C 
HETATM   20  C   UNL     1       6.542   2.862   1.085  1.00  0.00     0.029 C 
HETATM   21  C   UNL     1       5.152   3.473   0.880  1.00  0.00     0.021 C 
ENDBRANCH  12  14
ENDBRANCH   8  12
TORSDOF 2
