REMARK  7 active torsions:
REMARK  status: ('A' for Active; 'I' for Inactive)
REMARK       I    between atoms: C_2  and  N_3 
REMARK    1  A    between atoms: N_3  and  C_4 
REMARK    2  A    between atoms: C_7  and  C_8 
REMARK    3  A    between atoms: C_13  and  C_14 
REMARK    4  A    between atoms: C_14  and  C_15 
REMARK    5  A    between atoms: C_15  and  C_16 
REMARK    6  A    between atoms: C_16  and  O_17 
REMARK    7  A    between atoms: C_19  and  C_20 
ROOT
HETATM    1  C   UNL     1       0.329   5.448   2.927  1.00  0.00     0.058 A 
HETATM    2  N   UNL     1      -0.647   5.394   3.896  1.00  0.00    -0.188 N 
HETATM    3  C   UNL     1      -1.285   6.490   4.347  1.00  0.00     0.726 A 
HETATM    4  N   UNL     1      -0.946   7.719   3.845  1.00  0.00    -0.084 N 
HETATM    5  N   UNL     1      -1.702   8.698   4.389  1.00  0.00    -0.140 NA
HETATM    6  C   UNL     1      -2.444   7.989   5.253  1.00  0.00     0.166 A 
HETATM    7  N   UNL     1      -2.228   6.631   5.243  1.00  0.00    -0.046 NA
HETATM    8  C   UNL     1       0.088   7.930   2.822  1.00  0.00     0.187 A 
HETATM    9  C   UNL     1       0.707   6.613   2.369  1.00  0.00     0.036 A 
HETATM   10  H   UNL     1      -0.876   4.483   4.283  1.00  0.00     0.184 HD
ENDROOT
BRANCH   1  11
HETATM   11  C   UNL     1       0.975   4.190   2.544  1.00  0.00    -0.009 A 
HETATM   12  C   UNL     1       2.048   3.704   3.297  1.00  0.00     0.016 A 
HETATM   13  C   UNL     1       2.665   2.495   2.958  1.00  0.00     0.030 A 
HETATM   14  C   UNL     1       2.218   1.755   1.863  1.00  0.00     0.034 A 
HETATM   15  C   UNL     1       1.147   2.249   1.105  1.00  0.00     0.030 A 
HETATM   16  C   UNL     1       0.529   3.458   1.442  1.00  0.00     0.016 A 
BRANCH  14  17
HETATM   17  N   UNL     1       2.778   0.524   1.464  1.00  0.00    -0.328 N 
HETATM   18  C   UNL     1       3.817  -0.162   2.066  1.00  0.00     0.218 C 
HETATM   19  C   UNL     1       4.128  -1.464   1.370  1.00  0.00     0.117 C 
HETATM   20  O   UNL     1       4.438   0.171   3.069  1.00  0.00    -0.274 OA
HETATM   21  H   UNL     1       2.356   0.089   0.653  1.00  0.00     0.169 HD
ENDBRANCH  14  17
ENDBRANCH   1  11
BRANCH   8  22
HETATM   22  C   UNL     1       1.173   8.893   3.291  1.00  0.00    -0.028 A 
HETATM   23  C   UNL     1       1.644   9.888   2.415  1.00  0.00     0.028 A 
HETATM   24  C   UNL     1       2.672  10.745   2.810  1.00  0.00     0.011 A 
HETATM   25 BR   UNL     1       3.296  12.069   1.613  1.00  0.00    -0.051 Br
HETATM   26  C   UNL     1       3.248  10.629   4.072  1.00  0.00     0.019 A 
HETATM   27  C   UNL     1       2.796   9.643   4.947  1.00  0.00     0.002 A 
HETATM   28  C   UNL     1       1.773   8.776   4.558  1.00  0.00     0.010 A 
ENDBRANCH   8  22
BRANCH   6  29
HETATM   29  C   UNL     1      -3.401   8.623   6.194  1.00  0.00     0.085 C 
BRANCH  29  30
HETATM   30  C   UNL     1      -3.079   8.334   7.660  1.00  0.00     0.034 C 
BRANCH  30  31
HETATM   31  C   UNL     1      -1.728   8.894   8.094  1.00  0.00     0.164 C 
BRANCH  31  32
HETATM   32  O   UNL     1      -1.526   8.643   9.481  1.00  0.00    -0.401 OA
HETATM   33  H   UNL     1      -2.248   9.076   9.967  1.00  0.00     0.209 HD
ENDBRANCH  31  32
ENDBRANCH  30  31
ENDBRANCH  29  30
ENDBRANCH   6  29
TORSDOF 7
