REMARK  2 active torsions:
REMARK  status: ('A' for Active; 'I' for Inactive)
REMARK    1  A    between atoms: C_2  and  C_3 
REMARK    2  A    between atoms: C_3  and  N_4 
ROOT
HETATM    1  N   UNL     1       0.594   3.808  -0.320  1.00  0.00    -0.203 NA
HETATM    2  S   UNL     1       0.132   4.111  -1.930  1.00  0.00     0.219 S 
HETATM    3  O   UNL     1      -1.131   3.486  -2.219  1.00  0.00    -0.211 OA
HETATM    4  O   UNL     1       1.309   3.938  -2.754  1.00  0.00    -0.211 OA
HETATM    5  C   UNL     1      -0.057   5.867  -1.736  1.00  0.00     0.164 C 
HETATM    6  C   UNL     1       0.500   6.192  -0.347  1.00  0.00     0.116 C 
HETATM    7  O   UNL     1      -0.675   6.427   0.471  1.00  0.00    -0.369 OA
HETATM    8  C   UNL     1      -1.554   7.174  -0.390  1.00  0.00     0.149 C 
HETATM    9  C   UNL     1      -1.004   8.617  -0.459  1.00  0.00     0.264 C 
HETATM   10  N   UNL     1       0.440   8.628  -0.937  1.00  0.00    -0.070 N 
HETATM   11  H   UNL     1       0.463   8.599  -1.966  1.00  0.00     0.277 HD
HETATM   12  H   UNL     1       0.859   9.537  -0.687  1.00  0.00     0.277 HD
HETATM   13  C   UNL     1       1.292   7.512  -0.345  1.00  0.00     0.273 C 
HETATM   14  C   UNL     1       1.306   5.002   0.193  1.00  0.00     0.148 C 
HETATM   15  C   UNL     1      -1.481   6.403  -1.704  1.00  0.00     0.058 C 
ENDROOT
BRANCH   1  16
HETATM   16  C   UNL     1       1.320   2.536  -0.079  1.00  0.00     0.145 C 
BRANCH  16  17
HETATM   17  C   UNL     1       0.543   1.296  -0.440  1.00  0.00    -0.044 A 
HETATM   18  C   UNL     1       0.951   0.488  -1.513  1.00  0.00     0.010 A 
HETATM   19  C   UNL     1       0.232  -0.661  -1.849  1.00  0.00     0.024 A 
HETATM   20  C   UNL     1      -0.901  -1.007  -1.117  1.00  0.00     0.034 A 
HETATM   21  C   UNL     1      -1.323  -0.212  -0.053  1.00  0.00     0.024 A 
HETATM   22 CL   UNL     1      -1.785  -2.424  -1.530  1.00  0.00    -0.084 Cl
HETATM   23  C   UNL     1      -0.604   0.937   0.284  1.00  0.00     0.010 A 
ENDBRANCH  16  17
ENDBRANCH   1  16
TORSDOF 2
