REMARK  9 active torsions:
REMARK  status: ('A' for Active; 'I' for Inactive)
REMARK    1  A    between atoms: C_11  and  S_12 
REMARK    2  A    between atoms: S_12  and  C_13 
REMARK    3  A    between atoms: C_13  and  C_14 
REMARK       I    between atoms: C_14  and  N_15 
REMARK    4  A    between atoms: N_15  and  N_16 
REMARK    5  A    between atoms: N_16  and  C_17 
REMARK    6  A    between atoms: C_17  and  N_18 
REMARK    7  A    between atoms: N_18  and  C_19 
REMARK    8  A    between atoms: C_22  and  O_23 
REMARK    9  A    between atoms: O_23  and  C_24 
ROOT
HETATM    1  C   UNL     1       7.232   0.533  -0.811  1.00  0.00     0.245 C 
HETATM    2  N   UNL     1       7.717  -0.766  -0.713  1.00  0.00    -0.267 N 
HETATM    3  O   UNL     1       7.873   1.442  -1.331  1.00  0.00    -0.271 OA
HETATM    4  H   UNL     1       7.315  -1.467  -0.098  1.00  0.00     0.190 HD
ENDROOT
BRANCH   2   5
HETATM    5  N   UNL     1       8.926  -1.079  -1.343  1.00  0.00    -0.274 N 
HETATM    6  H   UNL     1       8.874  -1.152  -2.353  1.00  0.00     0.189 HD
BRANCH   5   7
HETATM    7  C   UNL     1      10.140  -0.837  -0.749  1.00  0.00     0.191 C 
HETATM    8  S   UNL     1      10.384  -0.760   0.908  1.00  0.00    -0.039 SA
BRANCH   7   9
HETATM    9  N   UNL     1      11.238  -0.805  -1.569  1.00  0.00    -0.332 N 
HETATM   10  H   UNL     1      12.112  -0.942  -1.071  1.00  0.00     0.168 HD
BRANCH   9  11
HETATM   11  C   UNL     1      11.343  -0.575  -2.955  1.00  0.00     0.034 A 
HETATM   12  C   UNL     1      10.390   0.119  -3.702  1.00  0.00     0.032 A 
HETATM   13  C   UNL     1      10.548   0.273  -5.084  1.00  0.00     0.039 A 
HETATM   14  C   UNL     1      11.672  -0.237  -5.737  1.00  0.00     0.078 A 
HETATM   15  C   UNL     1      12.658  -0.871  -4.983  1.00  0.00     0.039 A 
HETATM   16  C   UNL     1      12.498  -1.027  -3.599  1.00  0.00     0.032 A 
BRANCH  14  17
HETATM   17  O   UNL     1      11.682  -0.036  -7.087  1.00  0.00    -0.255 OA
BRANCH  17  18
HETATM   18  C   UNL     1      12.753  -0.591  -7.830  1.00  0.00     0.530 C 
HETATM   19  F   UNL     1      13.930  -0.034  -7.474  1.00  0.00    -0.144 F 
HETATM   20  F   UNL     1      12.820  -1.930  -7.668  1.00  0.00    -0.144 F 
HETATM   21  F   UNL     1      12.548  -0.338  -9.142  1.00  0.00    -0.144 F 
ENDBRANCH  17  18
ENDBRANCH  14  17
ENDBRANCH   9  11
ENDBRANCH   7   9
ENDBRANCH   5   7
ENDBRANCH   2   5
BRANCH   1  22
HETATM   22  C   UNL     1       5.815   0.656  -0.268  1.00  0.00     0.187 C 
BRANCH  22  23
HETATM   23  S   UNL     1       5.091   2.315  -0.415  1.00  0.00    -0.079 SA
BRANCH  23  24
HETATM   24  C   UNL     1       5.409   2.651  -2.137  1.00  0.00     0.211 A 
HETATM   25  N   UNL     1       5.368   1.607  -3.016  1.00  0.00    -0.122 NA
HETATM   26  N   UNL     1       5.723   1.773  -4.294  1.00  0.00    -0.143 NA
HETATM   27  C   UNL     1       6.106   3.026  -4.650  1.00  0.00     0.137 A 
HETATM   28  C   UNL     1       6.595   3.567  -5.868  1.00  0.00     0.025 A 
HETATM   29  C   UNL     1       6.066   4.048  -3.719  1.00  0.00     0.162 A 
HETATM   30  C   UNL     1       6.881   3.035  -7.142  1.00  0.00     0.016 A 
HETATM   31  C   UNL     1       6.822   4.931  -5.644  1.00  0.00     0.046 A 
HETATM   32  C   UNL     1       7.381   3.879  -8.140  1.00  0.00     0.001 A 
HETATM   33  C   UNL     1       7.591   5.234  -7.888  1.00  0.00     0.002 A 
HETATM   34  C   UNL     1       7.314   5.787  -6.635  1.00  0.00     0.030 A 
HETATM   35  N   UNL     1       6.481   5.192  -4.334  1.00  0.00    -0.338 N 
HETATM   36  H   UNL     1       6.550   6.087  -3.872  1.00  0.00     0.167 HD
HETATM   37  N   UNL     1       5.704   3.935  -2.432  1.00  0.00    -0.201 NA
ENDBRANCH  23  24
ENDBRANCH  22  23
ENDBRANCH   1  22
TORSDOF 9
