REMARK  8 active torsions:
REMARK  status: ('A' for Active; 'I' for Inactive)
REMARK    1  A    between atoms: C_4  and  C_5 
REMARK    2  A    between atoms: C_5  and  N_6 
REMARK       I    between atoms: N_6  and  C_7 
REMARK    3  A    between atoms: C_7  and  C_8 
REMARK    4  A    between atoms: C_11  and  C_12 
REMARK    5  A    between atoms: C_12  and  O_13 
REMARK    6  A    between atoms: O_13  and  C_14 
REMARK    7  A    between atoms: C_25  and  C_26 
REMARK    8  A    between atoms: C_26  and  O_27 
ROOT
HETATM    1  N   UNL     1       3.709  -4.316  -6.227  1.00  0.00    -0.351 N 
HETATM    2  C   UNL     1       3.978  -4.792  -7.487  1.00  0.00     0.251 C 
HETATM    3  O   UNL     1       4.559  -4.125  -8.337  1.00  0.00    -0.268 OA
HETATM    4  H   UNL     1       3.107  -4.804  -5.574  1.00  0.00     0.163 HD
ENDROOT
BRANCH   2   5
HETATM    5  C   UNL     1       3.489  -6.161  -7.813  1.00  0.00     0.032 A 
HETATM    6  C   UNL     1       3.275  -6.479  -9.160  1.00  0.00     0.017 A 
HETATM    7  C   UNL     1       2.796  -7.739  -9.522  1.00  0.00     0.010 A 
HETATM    8  C   UNL     1       2.523  -8.703  -8.543  1.00  0.00    -0.034 A 
HETATM    9  C   UNL     1       2.778  -8.396  -7.198  1.00  0.00     0.010 A 
HETATM   10  C   UNL     1       3.256  -7.132  -6.833  1.00  0.00     0.017 A 
BRANCH   8  11
HETATM   11  C   UNL     1       1.987 -10.058  -8.941  1.00  0.00     0.214 C 
BRANCH  11  12
HETATM   12  O   UNL     1       3.080 -10.886  -9.327  1.00  0.00    -0.347 OA
BRANCH  12  13
HETATM   13  C   UNL     1       2.774 -12.140  -9.780  1.00  0.00     0.069 A 
HETATM   14  C   UNL     1       1.494 -12.689  -9.887  1.00  0.00     0.037 A 
HETATM   15  C   UNL     1       1.325 -13.990 -10.372  1.00  0.00     0.003 A 
HETATM   16  C   UNL     1       2.431 -14.748 -10.750  1.00  0.00     0.000 A 
HETATM   17  C   UNL     1       3.710 -14.208 -10.643  1.00  0.00     0.003 A 
HETATM   18  C   UNL     1       3.878 -12.908 -10.160  1.00  0.00     0.037 A 
ENDBRANCH  12  13
ENDBRANCH  11  12
ENDBRANCH   8  11
ENDBRANCH   2   5
BRANCH   1  19
HETATM   19  C   UNL     1       4.041  -2.955  -5.866  1.00  0.00     0.182 C 
BRANCH  19  20
HETATM   20  C   UNL     1       3.601  -2.603  -4.461  1.00  0.00     0.052 A 
HETATM   21  N   UNL     1       2.975  -3.558  -3.719  1.00  0.00    -0.256 NA
HETATM   22  C   UNL     1       2.576  -3.236  -2.459  1.00  0.00     0.040 A 
HETATM   23  C   UNL     1       1.900  -4.344  -1.703  1.00  0.00     0.071 C 
HETATM   24  C   UNL     1       2.771  -1.966  -1.897  1.00  0.00    -0.006 A 
HETATM   25  C   UNL     1       3.420  -1.010  -2.690  1.00  0.00     0.014 A 
HETATM   26  C   UNL     1       3.837  -1.324  -3.978  1.00  0.00     0.029 A 
BRANCH  24  27
HETATM   27  C   UNL     1       2.355  -1.627  -0.484  1.00  0.00     0.149 C 
HETATM   28  C   UNL     1       3.505  -1.824   0.498  1.00  0.00     0.044 C 
BRANCH  27  29
HETATM   29  O   UNL     1       1.923  -0.266  -0.420  1.00  0.00    -0.391 OA
HETATM   30  H   UNL     1       1.630  -0.098   0.492  1.00  0.00     0.210 HD
ENDBRANCH  27  29
ENDBRANCH  24  27
ENDBRANCH  19  20
ENDBRANCH   1  19
TORSDOF 8
