REMARK  3 active torsions:
REMARK  status: ('A' for Active; 'I' for Inactive)
REMARK    1  A    between atoms: C_5  and  C_6 
REMARK       I    between atoms: C_6  and  N_7 
REMARK    2  A    between atoms: N_7  and  C_8 
REMARK    3  A    between atoms: C_13  and  C_14 
ROOT
HETATM    1  C   UNL     1      -1.477   3.258  -0.494  1.00  0.00     0.137 A 
HETATM    2  N   UNL     1      -1.814   2.118  -1.181  1.00  0.00    -0.262 N 
HETATM    3  H   UNL     1      -1.170   1.405  -1.516  1.00  0.00     0.191 HD
HETATM    4  N   UNL     1      -3.140   1.969  -1.369  1.00  0.00    -0.185 NA
HETATM    5  C   UNL     1      -3.655   3.068  -0.811  1.00  0.00     0.155 A 
HETATM    6  C   UNL     1      -2.668   3.919  -0.263  1.00  0.00     0.039 A 
ENDROOT
BRANCH   1   7
HETATM    7  N   UNL     1      -0.181   3.584  -0.133  1.00  0.00    -0.307 N 
HETATM    8  C   UNL     1       0.899   2.794  -0.483  1.00  0.00     0.258 C 
HETATM    9  O   UNL     1       0.814   1.745  -1.119  1.00  0.00    -0.267 OA
HETATM   10  H   UNL     1      -0.049   4.393   0.463  1.00  0.00     0.170 HD
BRANCH   8  11
HETATM   11  C   UNL     1       2.222   3.242   0.018  1.00  0.00     0.044 A 
HETATM   12  C   UNL     1       2.586   4.608   0.130  1.00  0.00     0.008 A 
HETATM   13  C   UNL     1       3.843   4.912   0.666  1.00  0.00     0.043 A 
HETATM   14  C   UNL     1       1.987   5.860  -0.209  1.00  0.00     0.032 A 
HETATM   15  C   UNL     1       4.760   3.930   1.065  1.00  0.00     0.030 A 
HETATM   16  N   UNL     1       3.961   6.284   0.700  1.00  0.00    -0.365 N 
HETATM   17  C   UNL     1       4.395   2.593   0.906  1.00  0.00     0.003 A 
HETATM   18  C   UNL     1       3.148   2.251   0.391  1.00  0.00     0.018 A 
HETATM   19  H   UNL     1       4.771   6.780   1.048  1.00  0.00     0.165 HD
HETATM   20  C   UNL     1       2.845   6.866   0.170  1.00  0.00     0.089 A 
ENDBRANCH   8  11
ENDBRANCH   1   7
BRANCH   6  21
HETATM   21  C   UNL     1      -2.802   5.199   0.399  1.00  0.00    -0.018 A 
HETATM   22  C   UNL     1      -2.119   6.319  -0.097  1.00  0.00     0.052 A 
HETATM   23  C   UNL     1      -2.268   7.515   0.572  1.00  0.00     0.105 A 
HETATM   24  C   UNL     1      -3.067   7.629   1.684  1.00  0.00     0.105 A 
HETATM   25  O   UNL     1      -1.671   8.690   0.237  1.00  0.00    -0.323 OA
HETATM   26  O   UNL     1      -3.075   8.891   2.189  1.00  0.00    -0.323 OA
HETATM   27  C   UNL     1      -3.764   6.553   2.190  1.00  0.00     0.040 A 
HETATM   28  C   UNL     1      -2.193   9.560   1.263  1.00  0.00     0.352 A 
HETATM   29  C   UNL     1      -3.630   5.323   1.535  1.00  0.00     0.015 A 
ENDBRANCH   6  21
TORSDOF 3
