REMARK  5 active torsions:
REMARK  status: ('A' for Active; 'I' for Inactive)
REMARK    1  A    between atoms: O_2  and  C_3 
REMARK    2  A    between atoms: C_7  and  C_9 
REMARK    3  A    between atoms: C_9  and  N_11 
REMARK       I    between atoms: N_11  and  C_12 
REMARK       I    between atoms: C_12  and  N_14 
REMARK    4  A    between atoms: N_14  and  C_15 
REMARK    5  A    between atoms: C_18  and  C_21 
ROOT
HETATM    1  N   UNL     1       5.534   0.310  -4.180  1.00  0.00    -0.335 N 
HETATM    2  C   UNL     1       6.467  -0.118  -5.057  1.00  0.00     0.322 C 
HETATM    3  O   UNL     1       7.425   0.474  -5.516  1.00  0.00    -0.247 OA
HETATM    4  N   UNL     1       6.208  -1.435  -5.442  1.00  0.00    -0.289 N 
HETATM    5  H   UNL     1       4.772  -0.286  -3.889  1.00  0.00     0.165 HD
HETATM    6  H   UNL     1       5.412  -1.969  -5.138  1.00  0.00     0.172 HD
ENDROOT
BRANCH   1   7
HETATM    7  C   UNL     1       5.491   1.681  -3.684  1.00  0.00     0.115 C 
HETATM    8  C   UNL     1       6.683   2.013  -2.783  1.00  0.00     0.037 C 
BRANCH   7   9
HETATM    9  C   UNL     1       4.163   1.887  -2.979  1.00  0.00    -0.033 A 
HETATM   10  C   UNL     1       3.162   2.669  -3.569  1.00  0.00     0.009 A 
HETATM   11  C   UNL     1       1.919   2.809  -2.950  1.00  0.00     0.003 A 
HETATM   12  C   UNL     1       1.653   2.164  -1.739  1.00  0.00     0.037 A 
HETATM   13  C   UNL     1       2.633   1.378  -1.139  1.00  0.00     0.068 A 
HETATM   14  C   UNL     1       3.879   1.247  -1.760  1.00  0.00     0.046 A 
BRANCH  13  15
HETATM   15  O   UNL     1       2.508   0.679   0.029  1.00  0.00    -0.356 OA
HETATM   16  C   UNL     1       1.273   0.803   0.725  1.00  0.00     0.210 C 
ENDBRANCH  13  15
ENDBRANCH   7   9
ENDBRANCH   1   7
BRANCH   4  17
HETATM   17  C   UNL     1       6.998  -2.079  -6.284  1.00  0.00     0.153 A 
HETATM   18  N   UNL     1       8.145  -1.631  -6.800  1.00  0.00    -0.335 N 
HETATM   19  H   UNL     1       8.469  -0.698  -6.535  1.00  0.00     0.168 HD
HETATM   20  C   UNL     1       8.778  -2.524  -7.647  1.00  0.00     0.051 A 
HETATM   21  C   UNL     1       8.053  -3.690  -7.788  1.00  0.00     0.083 A 
HETATM   22  S   UNL     1       6.619  -3.671  -6.834  1.00  0.00    -0.063 SA
BRANCH  20  23
HETATM   23  C   UNL     1      10.054  -2.246  -8.301  1.00  0.00    -0.006 A 
HETATM   24  C   UNL     1      10.853  -3.276  -8.813  1.00  0.00     0.033 A 
HETATM   25  C   UNL     1      12.060  -2.950  -9.412  1.00  0.00     0.117 A 
HETATM   26  N   UNL     1      12.516  -1.689  -9.525  1.00  0.00    -0.273 NA
HETATM   27  C   UNL     1      11.742  -0.707  -9.029  1.00  0.00     0.117 A 
HETATM   28  C   UNL     1      10.518  -0.931  -8.417  1.00  0.00     0.033 A 
ENDBRANCH  20  23
ENDBRANCH   4  17
TORSDOF 5
