REMARK  3 active torsions:
REMARK  status: ('A' for Active; 'I' for Inactive)
REMARK    1  A    between atoms: C_4  and  N_5 
REMARK       I    between atoms: N_5  and  C_6 
REMARK    2  A    between atoms: C_6  and  C_7 
REMARK    3  A    between atoms: C_7  and  C_8 
ROOT
HETATM    1  C   UNL     1       1.735  -1.958  -0.064  1.00  0.00     0.286 C 
HETATM    2  N   UNL     1       1.601  -1.708   1.446  1.00  0.00    -0.056 N 
HETATM    3  H   UNL     1       0.595  -1.688   1.660  1.00  0.00     0.278 HD
HETATM    4  H   UNL     1       1.928  -2.554   1.962  1.00  0.00     0.278 HD
HETATM    5  C   UNL     1       2.227  -0.473   2.016  1.00  0.00     0.209 C 
HETATM    6  C   UNL     1       1.961   0.728   1.081  1.00  0.00     0.115 C 
HETATM    7  N   UNL     1       2.346   0.443  -0.295  1.00  0.00    -0.353 N 
HETATM    8  C   UNL     1       2.151  -0.757  -0.917  1.00  0.00     0.249 C 
HETATM    9  O   UNL     1       2.313  -0.852  -2.129  1.00  0.00    -0.271 OA
HETATM   10  C   UNL     1       3.712  -0.714   2.287  1.00  0.00     0.035 C 
HETATM   11  C   UNL     1       4.386   0.560   2.794  1.00  0.00     0.002 C 
HETATM   12  C   UNL     1       4.165   1.732   1.842  1.00  0.00     0.002 C 
HETATM   13  C   UNL     1       2.678   1.981   1.591  1.00  0.00     0.027 C 
HETATM   14  H   UNL     1       2.519   1.215  -0.937  1.00  0.00     0.163 HD
ENDROOT
BRANCH   1  15
HETATM   15  C   UNL     1       2.653  -3.152  -0.351  1.00  0.00     0.146 C 
BRANCH  15  16
HETATM   16  C   UNL     1       2.018  -4.325   0.337  1.00  0.00     0.224 C 
HETATM   17  N   UNL     1       1.262  -5.125  -0.484  1.00  0.00    -0.327 N 
HETATM   18  H   UNL     1       1.377  -5.033  -1.490  1.00  0.00     0.169 HD
HETATM   19  O   UNL     1       2.061  -4.334   1.568  1.00  0.00    -0.273 OA
BRANCH  17  20
HETATM   20  C   UNL     1       0.270  -6.045  -0.080  1.00  0.00     0.034 A 
HETATM   21  C   UNL     1      -0.002  -6.364   1.253  1.00  0.00     0.029 A 
HETATM   22  C   UNL     1      -1.049  -7.231   1.574  1.00  0.00     0.002 A 
HETATM   23  C   UNL     1      -1.832  -7.788   0.567  1.00  0.00     0.000 A 
HETATM   24  C   UNL     1      -1.560  -7.489  -0.764  1.00  0.00     0.002 A 
HETATM   25  C   UNL     1      -0.510  -6.627  -1.088  1.00  0.00     0.029 A 
ENDBRANCH  17  20
ENDBRANCH  15  16
ENDBRANCH   1  15
TORSDOF 3
