REMARK  4 active torsions:
REMARK  status: ('A' for Active; 'I' for Inactive)
REMARK    1  A    between atoms: C_2  and  C_3 
REMARK    2  A    between atoms: C_5  and  C_6 
REMARK       I    between atoms: C_6  and  N_7 
REMARK    3  A    between atoms: N_7  and  C_8 
REMARK    4  A    between atoms: C_10  and  C_11 
ROOT
HETATM    1  C   UNL     1       3.339   3.834   2.701  1.00  0.00     0.035 A 
HETATM    2  C   UNL     1       3.226   3.200   1.459  1.00  0.00     0.042 A 
HETATM    3  C   UNL     1       2.937   3.930   0.292  1.00  0.00    -0.021 A 
HETATM    4  C   UNL     1       2.743   5.313   0.394  1.00  0.00     0.012 A 
HETATM    5  C   UNL     1       2.844   5.954   1.629  1.00  0.00     0.003 A 
HETATM    6  C   UNL     1       3.145   5.217   2.775  1.00  0.00     0.029 A 
ENDROOT
BRANCH   1   7
HETATM    7  N   UNL     1       3.657   3.167   3.899  1.00  0.00    -0.321 N 
HETATM    8  C   UNL     1       3.870   1.815   4.104  1.00  0.00     0.280 C 
HETATM    9  O   UNL     1       3.756   0.938   3.254  1.00  0.00    -0.265 OA
HETATM   10  H   UNL     1       3.764   3.737   4.732  1.00  0.00     0.169 HD
BRANCH   8  11
HETATM   11  C   UNL     1       4.259   1.514   5.471  1.00  0.00     0.144 A 
HETATM   12  O   UNL     1       4.433   2.537   6.366  1.00  0.00    -0.309 OA
HETATM   13  C   UNL     1       4.827   1.981   7.547  1.00  0.00     0.059 A 
HETATM   14  C   UNL     1       4.896   0.604   7.435  1.00  0.00    -0.029 A 
HETATM   15  C   UNL     1       4.525   0.311   6.094  1.00  0.00     0.052 A 
HETATM   16  C   UNL     1       5.283  -0.367   8.488  1.00  0.00     0.050 C 
BRANCH  13  17
HETATM   17  C   UNL     1       5.104   2.930   8.657  1.00  0.00     0.061 C 
HETATM   18  C   UNL     1       3.920   3.050   9.602  1.00  0.00     0.012 C 
ENDBRANCH  13  17
ENDBRANCH   8  11
ENDBRANCH   1   7
BRANCH   3  19
HETATM   19  C   UNL     1       2.845   3.273  -1.004  1.00  0.00     0.010 A 
HETATM   20  C   UNL     1       2.200   3.668  -2.202  1.00  0.00     0.152 A 
HETATM   21  N   UNL     1       2.364   2.791  -3.197  1.00  0.00    -0.187 NA
HETATM   22  N   UNL     1       3.113   1.826  -2.640  1.00  0.00    -0.289 N 
HETATM   23  H   UNL     1       3.376   1.030  -3.211  1.00  0.00     0.188 HD
HETATM   24  C   UNL     1       3.432   2.069  -1.336  1.00  0.00     0.123 A 
ENDBRANCH   3  19
TORSDOF 4
