REMARK  6 active torsions:
REMARK  status: ('A' for Active; 'I' for Inactive)
REMARK    1  A    between atoms: O_2  and  C_3 
REMARK    2  A    between atoms: C_6  and  C_7 
REMARK    3  A    between atoms: C_7  and  N_8 
REMARK       I    between atoms: N_8  and  C_9 
REMARK    4  A    between atoms: C_9  and  C_10 
REMARK    5  A    between atoms: C_13  and  C_14 
REMARK    6  A    between atoms: C_19  and  C_20 
ROOT
HETATM    1  C   UNL     1       5.013  -6.881  -4.459  1.00  0.00     0.096 A 
HETATM    2  C   UNL     1       5.461  -7.985  -5.161  1.00  0.00     0.138 A 
HETATM    3  N   UNL     1       6.176  -7.490  -6.229  1.00  0.00    -0.240 N 
HETATM    4  C   UNL     1       6.766  -8.310  -7.273  1.00  0.00     0.221 C 
HETATM    5  C   UNL     1       6.847  -9.782  -6.829  1.00  0.00     0.066 C 
HETATM    6  C   UNL     1       5.542 -10.202  -6.145  1.00  0.00     0.118 C 
HETATM    7  N   UNL     1       5.296  -9.326  -4.994  1.00  0.00    -0.365 N 
HETATM    8  N   UNL     1       6.088  -6.157  -6.356  1.00  0.00    -0.181 NA
HETATM    9  C   UNL     1       5.413  -5.786  -5.264  1.00  0.00     0.160 A 
HETATM   10  H   UNL     1       4.496  -9.643  -4.443  1.00  0.00     0.161 HD
ENDROOT
BRANCH   1  11
HETATM   11  C   UNL     1       4.251  -6.806  -3.228  1.00  0.00     0.257 C 
HETATM   12  N   UNL     1       4.316  -7.931  -2.439  1.00  0.00    -0.352 N 
HETATM   13  H   UNL     1       5.017  -8.626  -2.663  1.00  0.00     0.163 HD
HETATM   14  O   UNL     1       3.618  -5.803  -2.920  1.00  0.00    -0.267 OA
BRANCH  12  15
HETATM   15  C   UNL     1       3.614  -8.030  -1.182  1.00  0.00     0.161 C 
BRANCH  15  16
HETATM   16  C   UNL     1       4.538  -7.931   0.005  1.00  0.00    -0.040 A 
HETATM   17  C   UNL     1       5.323  -6.790   0.213  1.00  0.00     0.011 A 
HETATM   18  C   UNL     1       6.130  -6.681   1.348  1.00  0.00     0.037 A 
HETATM   19  C   UNL     1       6.154  -7.696   2.305  1.00  0.00     0.068 A 
HETATM   20  C   UNL     1       5.387  -8.842   2.101  1.00  0.00     0.037 A 
HETATM   21  C   UNL     1       4.583  -8.957   0.960  1.00  0.00     0.011 A 
BRANCH  19  22
HETATM   22  O   UNL     1       6.963  -7.457   3.382  1.00  0.00    -0.356 OA
HETATM   23  C   UNL     1       6.766  -8.288   4.519  1.00  0.00     0.210 C 
ENDBRANCH  19  22
ENDBRANCH  15  16
ENDBRANCH  12  15
ENDBRANCH   1  11
BRANCH   4  24
HETATM   24  C   UNL     1       8.144  -7.821  -7.664  1.00  0.00     0.409 C 
HETATM   25  F   UNL     1       9.001  -7.801  -6.618  1.00  0.00    -0.169 F 
HETATM   26  F   UNL     1       8.680  -8.668  -8.586  1.00  0.00    -0.169 F 
HETATM   27  F   UNL     1       8.144  -6.601  -8.238  1.00  0.00    -0.169 F 
ENDBRANCH   4  24
BRANCH   6  28
HETATM   28  C   UNL     1       5.579 -11.644  -5.681  1.00  0.00    -0.035 A 
HETATM   29  C   UNL     1       6.465 -12.067  -4.676  1.00  0.00     0.009 A 
HETATM   30  C   UNL     1       6.497 -13.401  -4.268  1.00  0.00     0.001 A 
HETATM   31  C   UNL     1       5.642 -14.330  -4.855  1.00  0.00     0.000 A 
HETATM   32  C   UNL     1       4.753 -13.926  -5.849  1.00  0.00     0.001 A 
HETATM   33  C   UNL     1       4.721 -12.592  -6.260  1.00  0.00     0.009 A 
ENDBRANCH   6  28
TORSDOF 6
