REMARK  4 active torsions:
REMARK  status: ('A' for Active; 'I' for Inactive)
REMARK    1  A    between atoms: C_3  and  N_4 
REMARK       I    between atoms: N_4  and  C_5 
REMARK    2  A    between atoms: C_5  and  C_6 
REMARK    3  A    between atoms: C_7  and  C_8 
REMARK    4  A    between atoms: C_11  and  O_12 
ROOT
HETATM    1  C   UNL     1       4.640   3.781  -0.303  1.00  0.00     0.062 A 
HETATM    2  C   UNL     1       5.288   5.116  -0.645  1.00  0.00     0.202 A 
HETATM    3  N   UNL     1       6.648   5.207  -0.096  1.00  0.00    -0.083 N 
HETATM    4  C   UNL     1       7.226   4.240   0.681  1.00  0.00     0.726 A 
HETATM    5  N   UNL     1       6.536   3.120   0.964  1.00  0.00    -0.192 N 
HETATM    6  N   UNL     1       7.443   6.294  -0.195  1.00  0.00    -0.141 NA
HETATM    7  C   UNL     1       8.532   5.870   0.463  1.00  0.00     0.162 A 
HETATM    8  C   UNL     1       9.765   6.676   0.567  1.00  0.00     0.096 C 
HETATM    9  N   UNL     1       8.427   4.621   1.030  1.00  0.00    -0.046 NA
HETATM   10  C   UNL     1       5.267   2.856   0.465  1.00  0.00     0.037 A 
HETATM   11  C   UNL     1       4.677   1.520   0.844  1.00  0.00     0.070 C 
HETATM   12  H   UNL     1       6.993   2.390   1.505  1.00  0.00     0.184 HD
ENDROOT
BRANCH   1  13
HETATM   13  C   UNL     1       3.337   3.467  -0.947  1.00  0.00     0.256 C 
HETATM   14  N   UNL     1       2.340   4.357  -0.609  1.00  0.00    -0.323 N 
HETATM   15  H   UNL     1       2.561   5.055   0.084  1.00  0.00     0.169 HD
HETATM   16  O   UNL     1       3.255   2.483  -1.672  1.00  0.00    -0.267 OA
BRANCH  14  17
HETATM   17  C   UNL     1       1.012   4.385  -1.107  1.00  0.00     0.041 A 
HETATM   18  C   UNL     1       0.118   5.362  -0.613  1.00  0.00    -0.035 A 
HETATM   19  C   UNL     1       0.520   6.379   0.421  1.00  0.00     0.050 C 
HETATM   20  C   UNL     1      -1.198   5.408  -1.109  1.00  0.00     0.009 A 
HETATM   21  C   UNL     1      -1.632   4.504  -2.076  1.00  0.00     0.001 A 
HETATM   22  C   UNL     1      -0.753   3.546  -2.563  1.00  0.00     0.002 A 
HETATM   23  C   UNL     1       0.558   3.489  -2.083  1.00  0.00     0.030 A 
ENDBRANCH  14  17
ENDBRANCH   1  13
BRANCH   2  24
HETATM   24  C   UNL     1       5.286   5.439  -2.134  1.00  0.00    -0.028 A 
HETATM   25  C   UNL     1       4.636   6.593  -2.597  1.00  0.00     0.012 A 
HETATM   26  C   UNL     1       4.619   6.900  -3.959  1.00  0.00     0.037 A 
HETATM   27  C   UNL     1       5.252   6.070  -4.884  1.00  0.00     0.068 A 
HETATM   28  C   UNL     1       5.897   4.918  -4.436  1.00  0.00     0.037 A 
HETATM   29  C   UNL     1       5.915   4.604  -3.071  1.00  0.00     0.012 A 
BRANCH  27  30
HETATM   30  O   UNL     1       5.164   6.492  -6.182  1.00  0.00    -0.356 OA
HETATM   31  C   UNL     1       5.878   5.736  -7.151  1.00  0.00     0.210 C 
ENDBRANCH  27  30
ENDBRANCH   2  24
TORSDOF 4
