REMARK  3 active torsions:
REMARK  status: ('A' for Active; 'I' for Inactive)
REMARK    1  A    between atoms: C_2  and  C_3 
REMARK    2  A    between atoms: C_6  and  N_7 
REMARK    3  A    between atoms: C_14  and  C_15 
REMARK       I    between atoms: C_15  and  N_16 
ROOT
HETATM    1  N   UNL     1       5.503   4.211   2.050  1.00  0.00    -0.252 N 
HETATM    2  C   UNL     1       5.683   5.420   1.428  1.00  0.00     0.238 C 
HETATM    3  O   UNL     1       5.139   5.895   0.441  1.00  0.00    -0.272 OA
HETATM    4  C   UNL     1       6.586   6.269   2.265  1.00  0.00     0.135 C 
HETATM    5  C   UNL     1       7.152   5.328   3.313  1.00  0.00     0.130 C 
HETATM    6  C   UNL     1       6.302   4.090   3.171  1.00  0.00     0.238 C 
HETATM    7  O   UNL     1       6.495   3.093   3.847  1.00  0.00    -0.272 OA
HETATM    8  C   UNL     1       5.810   7.335   3.020  1.00  0.00     0.298 C 
HETATM    9  N   UNL     1       6.655   7.493   4.294  1.00  0.00    -0.028 N 
HETATM   10  H   UNL     1       7.475   8.067   4.051  1.00  0.00     0.287 HD
HETATM   11  C   UNL     1       7.217   6.098   4.647  1.00  0.00     0.242 C 
HETATM   12  C   UNL     1       5.945   8.192   5.325  1.00  0.00     0.203 C 
HETATM   13  C   UNL     1       5.591   7.595   6.465  1.00  0.00     0.037 C 
HETATM   14  C   UNL     1       5.919   6.213   6.790  1.00  0.00    -0.026 A 
HETATM   15  C   UNL     1       6.741   5.478   5.929  1.00  0.00    -0.016 A 
HETATM   16  C   UNL     1       5.463   5.651   7.989  1.00  0.00     0.012 A 
HETATM   17  C   UNL     1       5.853   4.365   8.356  1.00  0.00     0.001 A 
HETATM   18  C   UNL     1       6.728   3.654   7.545  1.00  0.00     0.001 A 
HETATM   19  C   UNL     1       7.187   4.216   6.353  1.00  0.00     0.010 A 
ENDROOT
BRANCH   1  20
HETATM   20  C   UNL     1       4.650   3.170   1.573  1.00  0.00     0.045 A 
HETATM   21  C   UNL     1       4.276   3.085   0.222  1.00  0.00     0.031 A 
HETATM   22  C   UNL     1       3.504   2.014  -0.256  1.00  0.00     0.017 A 
HETATM   23  C   UNL     1       3.076   1.014   0.617  1.00  0.00     0.009 A 
HETATM   24  C   UNL     1       3.385   1.117   1.974  1.00  0.00     0.017 A 
HETATM   25  C   UNL     1       4.169   2.177   2.442  1.00  0.00     0.031 A 
BRANCH  23  26
HETATM   26  C   UNL     1       2.295  -0.168   0.166  1.00  0.00     0.155 C 
HETATM   27  C   UNL     1       2.561  -0.759  -1.194  1.00  0.00     0.096 C 
HETATM   28  O   UNL     1       1.484  -0.676   0.937  1.00  0.00    -0.293 OA
ENDBRANCH  23  26
ENDBRANCH   1  20
BRANCH   8  29
HETATM   29  C   UNL     1       4.332   6.951   3.257  1.00  0.00     0.248 C 
HETATM   30  N   UNL     1       3.409   7.516   2.430  1.00  0.00    -0.368 N 
HETATM   31  H   UNL     1       3.634   7.781   1.474  1.00  0.00     0.159 HD
HETATM   32  H   UNL     1       2.456   7.173   2.541  1.00  0.00     0.159 HD
HETATM   33  O   UNL     1       4.001   6.144   4.118  1.00  0.00    -0.271 OA
ENDBRANCH   8  29
TORSDOF 3
