REMARK  6 active torsions:
REMARK  status: ('A' for Active; 'I' for Inactive)
REMARK    1  A    between atoms: C_2  and  C_3 
REMARK    2  A    between atoms: C_3  and  N_4 
REMARK    3  A    between atoms: C_10  and  S_11 
REMARK    4  A    between atoms: S_11  and  C_12 
REMARK    5  A    between atoms: C_12  and  C_13 
REMARK       I    between atoms: C_13  and  N_14 
REMARK    6  A    between atoms: N_14  and  C_15 
ROOT
HETATM    1  N   UNL     1       4.408   0.059   0.097  1.00  0.00    -0.063 N 
HETATM    2  H   UNL     1       4.735  -0.043  -0.871  1.00  0.00     0.280 HD
HETATM    3  C   UNL     1       4.022   1.524   0.260  1.00  0.00     0.281 C 
HETATM    4  C   UNL     1       5.213   2.416   0.227  1.00  0.00     0.060 A 
HETATM    5  C   UNL     1       6.481   1.997   0.350  1.00  0.00     0.052 A 
HETATM    6  N   UNL     1       7.570   2.819   0.208  1.00  0.00    -0.228 NA
HETATM    7  C   UNL     1       7.344   4.061  -0.063  1.00  0.00     0.169 A 
HETATM    8  N   UNL     1       6.103   4.604  -0.168  1.00  0.00    -0.302 N 
HETATM    9  C   UNL     1       4.980   3.851  -0.020  1.00  0.00     0.257 A 
HETATM   10  O   UNL     1       3.842   4.293  -0.094  1.00  0.00    -0.267 OA
HETATM   11  C   UNL     1       6.794   0.542   0.615  1.00  0.00     0.088 C 
HETATM   12  C   UNL     1       5.566  -0.290   1.001  1.00  0.00     0.241 C 
HETATM   13  H   UNL     1       6.002   5.590  -0.362  1.00  0.00     0.171 HD
ENDROOT
BRANCH   7  14
HETATM   14  S   UNL     1       8.615   5.206  -0.354  1.00  0.00    -0.083 SA
BRANCH  14  15
HETATM   15  C   UNL     1       9.970   4.044  -0.715  1.00  0.00     0.185 C 
BRANCH  15  16
HETATM   16  C   UNL     1      11.182   4.679  -1.379  1.00  0.00     0.231 C 
HETATM   17  N   UNL     1      11.367   6.023  -1.120  1.00  0.00    -0.326 N 
HETATM   18  H   UNL     1      10.623   6.478  -0.600  1.00  0.00     0.169 HD
HETATM   19  O   UNL     1      11.935   3.969  -2.043  1.00  0.00    -0.272 OA
BRANCH  17  20
HETATM   20  C   UNL     1      12.430   6.844  -1.550  1.00  0.00     0.037 A 
HETATM   21  C   UNL     1      13.540   6.377  -2.259  1.00  0.00     0.075 A 
HETATM   22  C   UNL     1      14.548   7.262  -2.637  1.00  0.00     0.157 A 
HETATM   23  F   UNL     1      15.609   6.798  -3.312  1.00  0.00    -0.203 F 
HETATM   24  C   UNL     1      14.463   8.610  -2.318  1.00  0.00     0.155 A 
HETATM   25  F   UNL     1      15.435   9.456  -2.683  1.00  0.00    -0.203 F 
HETATM   26  C   UNL     1      13.367   9.092  -1.614  1.00  0.00     0.048 A 
HETATM   27  C   UNL     1      12.353   8.209  -1.229  1.00  0.00     0.032 A 
ENDBRANCH  17  20
ENDBRANCH  15  16
ENDBRANCH  14  15
ENDBRANCH   7  14
BRANCH   1  28
HETATM   28  C   UNL     1       3.237  -0.883   0.242  1.00  0.00     0.273 C 
BRANCH  28  29
HETATM   29  C   UNL     1       2.233  -0.726  -0.869  1.00  0.00    -0.030 A 
HETATM   30  C   UNL     1       0.936  -0.228  -0.599  1.00  0.00     0.012 A 
HETATM   31  C   UNL     1       0.013  -0.030  -1.632  1.00  0.00     0.040 A 
HETATM   32  C   UNL     1       0.407  -0.331  -2.917  1.00  0.00     0.105 A 
HETATM   33  C   UNL     1       1.658  -0.824  -3.188  1.00  0.00     0.105 A 
HETATM   34  O   UNL     1      -0.347  -0.187  -4.037  1.00  0.00    -0.323 OA
HETATM   35  C   UNL     1       2.589  -1.042  -2.194  1.00  0.00     0.048 A 
HETATM   36  O   UNL     1       1.853  -1.048  -4.514  1.00  0.00    -0.323 OA
HETATM   37  C   UNL     1       0.571  -0.648  -5.051  1.00  0.00     0.352 A 
ENDBRANCH  28  29
ENDBRANCH   1  28
TORSDOF 6
