REMARK  2 active torsions:
REMARK  status: ('A' for Active; 'I' for Inactive)
REMARK    1  A    between atoms: C_5  and  C_7 
REMARK    2  A    between atoms: C_5  and  O_6 
ROOT
HETATM    1  C   UNL     1       1.205  -0.001  -0.197  1.00  0.00     0.050 C 
HETATM    2  C   UNL     1       2.676   0.131   0.046  1.00  0.00    -0.035 A 
HETATM    3  C   UNL     1       3.338   1.347  -0.017  1.00  0.00     0.051 A 
HETATM    4  C   UNL     1       4.720   1.466   0.177  1.00  0.00     0.018 A 
HETATM    5  C   UNL     1       5.122   2.921   0.082  1.00  0.00     0.198 A 
HETATM    6  C   UNL     1       3.753   3.601  -0.274  1.00  0.00     0.266 A 
HETATM    7  O   UNL     1       3.511   4.784  -0.459  1.00  0.00    -0.269 OA
HETATM    8  N   UNL     1       2.787   2.594  -0.281  1.00  0.00    -0.323 N 
HETATM    9  C   UNL     1       5.491   0.346   0.448  1.00  0.00     0.013 A 
HETATM   10  C   UNL     1       4.854  -0.895   0.496  1.00  0.00     0.001 A 
HETATM   11  C   UNL     1       3.466  -1.002   0.294  1.00  0.00     0.009 A 
HETATM   12  H   UNL     1       1.815   2.787  -0.472  1.00  0.00     0.169 HD
ENDROOT
BRANCH   5  13
HETATM   13  C   UNL     1       6.146   3.070  -1.014  1.00  0.00     0.018 A 
HETATM   14  C   UNL     1       6.095   2.617  -2.385  1.00  0.00     0.002 A 
HETATM   15  C   UNL     1       7.280   3.018  -3.007  1.00  0.00     0.043 A 
HETATM   16  C   UNL     1       5.158   1.901  -3.163  1.00  0.00     0.014 A 
HETATM   17  C   UNL     1       7.574   2.740  -4.348  1.00  0.00     0.030 A 
HETATM   18  N   UNL     1       8.021   3.698  -2.072  1.00  0.00    -0.365 N 
HETATM   19  C   UNL     1       6.631   2.023  -5.086  1.00  0.00     0.002 A 
HETATM   20  C   UNL     1       5.438   1.608  -4.504  1.00  0.00     0.001 A 
HETATM   21  H   UNL     1       8.923   4.118  -2.249  1.00  0.00     0.165 HD
HETATM   22  C   UNL     1       7.359   3.731  -0.880  1.00  0.00     0.100 A 
ENDBRANCH   5  13
BRANCH   5  23
HETATM   23  O   UNL     1       5.611   3.346   1.353  1.00  0.00    -0.371 OA
HETATM   24  H   UNL     1       5.039   2.935   2.020  1.00  0.00     0.212 HD
ENDBRANCH   5  23
TORSDOF 2
