REMARK  8 active torsions:
REMARK  status: ('A' for Active; 'I' for Inactive)
REMARK    1  A    between atoms: O_2  and  C_3 
REMARK    2  A    between atoms: C_4  and  O_5 
REMARK    3  A    between atoms: C_8  and  C_9 
REMARK    4  A    between atoms: C_13  and  C_14 
REMARK       I    between atoms: C_14  and  N_15 
REMARK    5  A    between atoms: N_15  and  C_16 
REMARK    6  A    between atoms: C_20  and  C_21 
REMARK    7  A    between atoms: C_21  and  C_22 
REMARK    8  A    between atoms: C_22  and  C_23 
ROOT
HETATM    1  C   UNL     1       4.519  -6.071  -6.509  1.00  0.00     0.290 C 
HETATM    2  N   UNL     1       4.378  -6.074  -7.879  1.00  0.00    -0.149 N 
HETATM    3  O   UNL     1       4.515  -7.067  -5.792  1.00  0.00    -0.265 OA
HETATM    4  H   UNL     1       4.241  -5.223  -8.394  1.00  0.00     0.188 HD
ENDROOT
BRANCH   1   5
HETATM    5  C   UNL     1       4.676  -4.710  -5.936  1.00  0.00     0.147 A 
HETATM    6  N   UNL     1       4.494  -4.478  -4.625  1.00  0.00    -0.169 NA
HETATM    7  N   UNL     1       4.794  -3.186  -4.457  1.00  0.00    -0.277 N 
HETATM    8  C   UNL     1       5.138  -2.527  -5.608  1.00  0.00     0.063 A 
HETATM    9  H   UNL     1       4.771  -2.818  -3.513  1.00  0.00     0.189 HD
HETATM   10  C   UNL     1       5.061  -3.501  -6.589  1.00  0.00     0.071 A 
BRANCH   8  11
HETATM   11  C   UNL     1       5.556  -1.123  -5.650  1.00  0.00    -0.005 A 
HETATM   12  C   UNL     1       5.155  -0.209  -4.661  1.00  0.00     0.053 A 
HETATM   13  C   UNL     1       5.601   1.121  -4.678  1.00  0.00     0.102 A 
HETATM   14  C   UNL     1       6.461   1.550  -5.704  1.00  0.00     0.101 A 
HETATM   15  C   UNL     1       6.835   0.657  -6.710  1.00  0.00     0.040 A 
HETATM   16  C   UNL     1       6.389  -0.668  -6.679  1.00  0.00     0.017 A 
BRANCH  13  17
HETATM   17  O   UNL     1       5.267   2.067  -3.741  1.00  0.00    -0.353 OA
HETATM   18  C   UNL     1       4.482   1.657  -2.631  1.00  0.00     0.210 C 
ENDBRANCH  13  17
BRANCH  14  19
HETATM   19  O   UNL     1       6.859   2.864  -5.666  1.00  0.00    -0.353 OA
HETATM   20  C   UNL     1       8.091   3.167  -6.308  1.00  0.00     0.210 C 
ENDBRANCH  14  19
ENDBRANCH   8  11
ENDBRANCH   1   5
BRANCH   2  21
HETATM   21  C   UNL     1       4.377  -7.191  -8.660  1.00  0.00     0.747 A 
HETATM   22  N   UNL     1       4.601  -8.450  -8.292  1.00  0.00     0.020 NA
HETATM   23  N   UNL     1       4.534  -9.103  -9.454  1.00  0.00    -0.248 N 
HETATM   24  H   UNL     1       4.680 -10.107  -9.466  1.00  0.00     0.191 HD
HETATM   25  C   UNL     1       4.269  -8.250 -10.487  1.00  0.00     0.140 A 
HETATM   26  N   UNL     1       4.175  -7.027 -10.006  1.00  0.00    -0.046 NA
BRANCH  25  27
HETATM   27  C   UNL     1       4.167  -8.690 -11.905  1.00  0.00     0.085 C 
BRANCH  27  28
HETATM   28  C   UNL     1       3.067  -9.735 -12.112  1.00  0.00     0.046 C 
BRANCH  28  29
HETATM   29  C   UNL     1       2.988 -10.196 -13.546  1.00  0.00    -0.058 A 
HETATM   30  C   UNL     1       3.904 -11.134 -14.044  1.00  0.00     0.007 A 
HETATM   31  C   UNL     1       3.837 -11.550 -15.375  1.00  0.00     0.001 A 
HETATM   32  C   UNL     1       2.856 -11.034 -16.219  1.00  0.00     0.000 A 
HETATM   33  C   UNL     1       1.942 -10.100 -15.734  1.00  0.00     0.001 A 
HETATM   34  C   UNL     1       2.009  -9.680 -14.405  1.00  0.00     0.007 A 
ENDBRANCH  28  29
ENDBRANCH  27  28
ENDBRANCH  25  27
ENDBRANCH   2  21
TORSDOF 8
