REMARK  2 active torsions:
REMARK  status: ('A' for Active; 'I' for Inactive)
REMARK    1  A    between atoms: C_2  and  N_3 
REMARK    2  A    between atoms: N_3  and  C_4 
ROOT
HETATM    1  C   UNL     1       3.637  -2.892   0.050  1.00  0.00     0.143 A 
HETATM    2  N   UNL     1       4.853  -3.412  -0.248  1.00  0.00    -0.223 NA
HETATM    3  C   UNL     1       5.010  -4.737  -0.324  1.00  0.00     0.236 A 
HETATM    4  N   UNL     1       4.083  -5.667  -0.122  1.00  0.00    -0.234 NA
HETATM    5  C   UNL     1       2.878  -5.140   0.142  1.00  0.00     0.114 A 
HETATM    6  C   UNL     1       2.547  -3.793   0.212  1.00  0.00     0.053 A 
HETATM    7  S   UNL     1       1.569  -6.169   0.465  1.00  0.00    -0.073 SA
HETATM    8  C   UNL     1       0.495  -4.861   0.656  1.00  0.00    -0.008 C 
HETATM    9  C   UNL     1       1.106  -3.636   0.423  1.00  0.00    -0.028 C 
HETATM   10  C   UNL     1       0.330  -2.345   0.396  1.00  0.00     0.041 C 
HETATM   11  C   UNL     1      -0.847  -2.357  -0.586  1.00  0.00     0.005 C 
HETATM   12  C   UNL     1      -2.076  -3.126  -0.101  1.00  0.00     0.001 C 
HETATM   13  C   UNL     1      -1.907  -4.645  -0.061  1.00  0.00     0.005 C 
HETATM   14  C   UNL     1      -0.937  -5.128   1.015  1.00  0.00     0.047 C 
ENDROOT
BRANCH   1  15
HETATM   15  N   UNL     1       3.502  -1.509   0.269  1.00  0.00    -0.340 N 
HETATM   16  H   UNL     1       2.761  -1.311   0.926  1.00  0.00     0.167 HD
BRANCH  15  17
HETATM   17  C   UNL     1       4.425  -0.452   0.143  1.00  0.00     0.036 A 
HETATM   18  C   UNL     1       5.580  -0.523  -0.645  1.00  0.00     0.032 A 
HETATM   19  C   UNL     1       6.451   0.567  -0.759  1.00  0.00     0.042 A 
HETATM   20  C   UNL     1       6.166   1.757  -0.099  1.00  0.00     0.102 A 
HETATM   21  C   UNL     1       5.019   1.849   0.691  1.00  0.00     0.104 A 
HETATM   22  O   UNL     1       7.052   2.788  -0.266  1.00  0.00    -0.346 OA
HETATM   23  C   UNL     1       4.147   0.764   0.791  1.00  0.00     0.069 A 
HETATM   24  O   UNL     1       4.680   2.979   1.393  1.00  0.00    -0.346 OA
HETATM   25  C   UNL     1       5.794   3.872   1.508  1.00  0.00     0.202 C 
HETATM   26  C   UNL     1       6.492   4.033   0.167  1.00  0.00     0.202 C 
ENDBRANCH  15  17
ENDBRANCH   1  15
TORSDOF 2
