REMARK  7 active torsions:
REMARK  status: ('A' for Active; 'I' for Inactive)
REMARK    1  A    between atoms: C_2  and  O_3 
REMARK    2  A    between atoms: O_3  and  C_4 
REMARK    3  A    between atoms: C_7  and  N_8 
REMARK       I    between atoms: N_8  and  C_9 
REMARK    4  A    between atoms: C_9  and  C_10 
REMARK    5  A    between atoms: C_10  and  S_11 
REMARK    6  A    between atoms: S_11  and  C_12 
REMARK    7  A    between atoms: N_13  and  C_14 
ROOT
HETATM    1  C   UNL     1       7.001  -2.113  -1.320  1.00  0.00     0.178 A 
HETATM    2  N   UNL     1       5.824  -2.344  -0.561  1.00  0.00    -0.255 N 
HETATM    3  C   UNL     1       5.508  -3.630  -0.067  1.00  0.00     0.270 A 
HETATM    4  O   UNL     1       4.538  -3.922   0.625  1.00  0.00    -0.266 OA
HETATM    5  C   UNL     1       6.447  -4.632  -0.481  1.00  0.00     0.099 A 
HETATM    6  C   UNL     1       7.514  -4.272  -1.253  1.00  0.00     0.164 A 
HETATM    7  N   UNL     1       8.221  -5.416  -1.476  1.00  0.00    -0.260 N 
HETATM    8  H   UNL     1       9.084  -5.520  -1.997  1.00  0.00     0.191 HD
HETATM    9  N   UNL     1       7.655  -6.506  -0.911  1.00  0.00    -0.184 NA
HETATM   10  C   UNL     1       6.569  -6.015  -0.298  1.00  0.00     0.159 A 
HETATM   11  N   UNL     1       7.837  -3.043  -1.697  1.00  0.00    -0.204 NA
ENDROOT
BRANCH   1  12
HETATM   12  S   UNL     1       7.382  -0.465  -1.823  1.00  0.00    -0.082 SA
BRANCH  12  13
HETATM   13  C   UNL     1       9.194  -0.476  -1.777  1.00  0.00     0.185 C 
BRANCH  13  14
HETATM   14  C   UNL     1       9.682  -0.190  -0.373  1.00  0.00     0.231 C 
HETATM   15  N   UNL     1      10.253   1.002  -0.028  1.00  0.00    -0.327 N 
HETATM   16  H   UNL     1      10.693   0.932   0.884  1.00  0.00     0.169 HD
HETATM   17  O   UNL     1       9.635  -1.070   0.497  1.00  0.00    -0.272 OA
BRANCH  15  18
HETATM   18  C   UNL     1      10.315   2.269  -0.637  1.00  0.00     0.034 A 
HETATM   19  C   UNL     1       9.489   2.705  -1.669  1.00  0.00     0.032 A 
HETATM   20  C   UNL     1       9.616   4.002  -2.183  1.00  0.00     0.039 A 
HETATM   21  C   UNL     1      10.549   4.895  -1.659  1.00  0.00     0.068 A 
HETATM   22  C   UNL     1      11.369   4.475  -0.617  1.00  0.00     0.039 A 
HETATM   23  C   UNL     1      11.244   3.175  -0.106  1.00  0.00     0.032 A 
BRANCH  21  24
HETATM   24  O   UNL     1      10.554   6.128  -2.246  1.00  0.00    -0.352 OA
BRANCH  24  25
HETATM   25  C   UNL     1      11.295   7.155  -1.589  1.00  0.00     0.171 C 
HETATM   26  C   UNL     1      11.017   8.463  -2.308  1.00  0.00     0.034 C 
ENDBRANCH  24  25
ENDBRANCH  21  24
ENDBRANCH  15  18
ENDBRANCH  13  14
ENDBRANCH  12  13
ENDBRANCH   1  12
BRANCH   2  27
HETATM   27  C   UNL     1       4.893  -1.303  -0.239  1.00  0.00     0.056 A 
HETATM   28  C   UNL     1       4.102  -0.657  -1.234  1.00  0.00     0.002 A 
HETATM   29  C   UNL     1       3.229   0.384  -0.826  1.00  0.00    -0.024 A 
HETATM   30  C   UNL     1       4.103  -1.004  -2.609  1.00  0.00     0.014 A 
HETATM   31  C   UNL     1       2.455   1.068  -1.777  1.00  0.00     0.012 A 
HETATM   32  C   UNL     1       3.126   0.721   0.532  1.00  0.00     0.012 A 
HETATM   33  C   UNL     1       2.511   0.730  -3.128  1.00  0.00     0.001 A 
HETATM   34  C   UNL     1       3.328  -0.313  -3.543  1.00  0.00     0.001 A 
HETATM   35  C   UNL     1       3.866   0.046   1.499  1.00  0.00     0.003 A 
HETATM   36  C   UNL     1       4.745  -0.960   1.116  1.00  0.00     0.031 A 
ENDBRANCH   2  27
TORSDOF 7
