REMARK  5 active torsions:
REMARK  status: ('A' for Active; 'I' for Inactive)
REMARK    1  A    between atoms: C_2  and  O_5 
REMARK    2  A    between atoms: O_5  and  C_6 
REMARK    3  A    between atoms: C_10  and  C_12 
REMARK    4  A    between atoms: C_16  and  C_17 
REMARK       I    between atoms: C_17  and  N_19 
REMARK    5  A    between atoms: N_19  and  C_20 
ROOT
HETATM    1  C   UNL     1       7.165  -2.199   1.604  1.00  0.00     0.061 C 
HETATM    2  C   UNL     1       7.952  -2.500   2.879  1.00  0.00     0.279 C 
HETATM    3  N   UNL     1       8.335  -3.904   2.691  1.00  0.00     0.085 N 
HETATM    4  C   UNL     1       7.119  -4.565   2.211  1.00  0.00     0.284 C 
HETATM    5  C   UNL     1       6.409  -3.518   1.351  1.00  0.00     0.116 C 
HETATM    6  H   UNL     1       8.642  -4.310   3.577  1.00  0.00     0.315 HD
ENDROOT
BRANCH   5   7
HETATM    7  C   UNL     1       6.382  -3.848  -0.133  1.00  0.00     0.228 C 
HETATM    8  O   UNL     1       5.326  -3.759  -0.755  1.00  0.00    -0.273 OA
HETATM    9  N   UNL     1       7.603  -4.189  -0.679  1.00  0.00    -0.325 N 
HETATM   10  H   UNL     1       8.356  -4.434  -0.038  1.00  0.00     0.169 HD
BRANCH   9  11
HETATM   11  C   UNL     1       7.900  -4.351  -2.054  1.00  0.00     0.057 A 
HETATM   12  C   UNL     1       7.075  -3.835  -3.063  1.00  0.00     0.043 A 
HETATM   13  C   UNL     1       7.423  -3.973  -4.411  1.00  0.00    -0.017 A 
HETATM   14  C   UNL     1       6.583  -3.401  -5.466  1.00  0.00     0.029 A 
HETATM   15  C   UNL     1       8.601  -4.652  -4.752  1.00  0.00     0.044 A 
HETATM   16  C   UNL     1       6.948  -3.543  -6.745  1.00  0.00     0.092 A 
HETATM   17  N   UNL     1       8.089  -4.218  -7.089  1.00  0.00    -0.333 N 
HETATM   18  C   UNL     1       8.956  -4.797  -6.187  1.00  0.00     0.256 A 
HETATM   19  H   UNL     1       8.344  -4.320  -8.066  1.00  0.00     0.168 HD
HETATM   20  O   UNL     1       9.966  -5.393  -6.543  1.00  0.00    -0.267 OA
HETATM   21  C   UNL     1       9.438  -5.172  -3.762  1.00  0.00     0.044 A 
HETATM   22  C   UNL     1       9.092  -5.006  -2.421  1.00  0.00     0.061 A 
HETATM   23 CL   UNL     1      10.156  -5.651  -1.217  1.00  0.00    -0.082 Cl
ENDBRANCH   9  11
ENDBRANCH   5   7
BRANCH   1  24
HETATM   24  C   UNL     1       6.374  -0.906   1.679  1.00  0.00    -0.049 A 
HETATM   25  C   UNL     1       7.047   0.298   1.409  1.00  0.00     0.007 A 
HETATM   26  C   UNL     1       6.375   1.519   1.438  1.00  0.00     0.003 A 
HETATM   27  C   UNL     1       5.016   1.554   1.737  1.00  0.00     0.037 A 
HETATM   28  C   UNL     1       4.320   0.376   2.012  1.00  0.00     0.078 A 
HETATM   29  C   UNL     1       5.006  -0.845   1.998  1.00  0.00     0.044 A 
BRANCH  28  30
HETATM   30  O   UNL     1       2.993   0.557   2.282  1.00  0.00    -0.255 OA
BRANCH  30  31
HETATM   31  C   UNL     1       2.175  -0.595   2.390  1.00  0.00     0.530 C 
HETATM   32  F   UNL     1       2.236  -1.349   1.272  1.00  0.00    -0.144 F 
HETATM   33  F   UNL     1       0.893  -0.202   2.561  1.00  0.00    -0.144 F 
HETATM   34  F   UNL     1       2.529  -1.342   3.459  1.00  0.00    -0.144 F 
ENDBRANCH  30  31
ENDBRANCH  28  30
ENDBRANCH   1  24
TORSDOF 5
