REMARK  6 active torsions:
REMARK  status: ('A' for Active; 'I' for Inactive)
REMARK    1  A    between atoms: C_3  and  C_4 
REMARK    2  A    between atoms: C_4  and  C_5 
REMARK    3  A    between atoms: N_8  and  C_10 
REMARK    4  A    between atoms: C_10  and  C_11 
REMARK    5  A    between atoms: N_24  and  C_25 
REMARK    6  A    between atoms: C_25  and  C_26 
ROOT
HETATM    1  C   UNL     1       1.969   2.653  -0.566  1.00  0.00     0.149 C 
HETATM    2  N   UNL     1       1.979   4.105  -0.694  1.00  0.00    -0.220 NA
HETATM    3  C   UNL     1       2.855   4.688   0.188  1.00  0.00     0.304 C 
HETATM    4  O   UNL     1       3.152   5.868   0.143  1.00  0.00    -0.253 OA
HETATM    5  N   UNL     1       3.271   3.755   1.077  1.00  0.00    -0.270 N 
HETATM    6  C   UNL     1       2.877   2.509   0.676  1.00  0.00     0.257 C 
HETATM    7  O   UNL     1       3.146   1.452   1.230  1.00  0.00    -0.270 OA
HETATM    8  H   UNL     1       2.027   4.499  -1.632  1.00  0.00     0.134 HD
ENDROOT
BRANCH   1   9
HETATM    9  C   UNL     1       2.575   2.065  -1.838  1.00  0.00     0.067 A 
HETATM   10  C   UNL     1       3.243   0.844  -1.871  1.00  0.00     0.030 A 
HETATM   11  C   UNL     1       3.749   0.389  -3.086  1.00  0.00     0.003 A 
HETATM   12  C   UNL     1       3.569   1.148  -4.237  1.00  0.00     0.019 A 
HETATM   13  C   UNL     1       2.879   2.340  -4.132  1.00  0.00     0.117 A 
HETATM   14  N   UNL     1       2.372   2.810  -2.969  1.00  0.00    -0.263 NA
ENDBRANCH   1   9
BRANCH   1  15
HETATM   15  C   UNL     1       0.536   2.075  -0.288  1.00  0.00     0.028 C 
HETATM   16  C   UNL     1      -0.521   2.437  -1.345  1.00  0.00     0.035 C 
HETATM   17  C   UNL     1      -0.949   3.897  -1.312  1.00  0.00     0.235 C 
HETATM   18  N   UNL     1      -1.370   4.335   0.073  1.00  0.00    -0.067 N 
HETATM   19  H   UNL     1      -2.307   3.940   0.239  1.00  0.00     0.280 HD
HETATM   20  C   UNL     1      -0.487   3.883   1.216  1.00  0.00     0.235 C 
HETATM   21  C   UNL     1      -0.081   2.427   1.079  1.00  0.00     0.035 C 
BRANCH  18  22
HETATM   22  C   UNL     1      -1.527   5.854   0.166  1.00  0.00     0.278 C 
BRANCH  22  23
HETATM   23  C   UNL     1      -2.387   6.487  -0.887  1.00  0.00     0.028 A 
HETATM   24  C   UNL     1      -1.889   7.332  -1.890  1.00  0.00     0.045 A 
HETATM   25 CL   UNL     1      -0.205   7.678  -2.039  1.00  0.00    -0.084 Cl
HETATM   26  C   UNL     1      -2.751   7.908  -2.829  1.00  0.00     0.024 A 
HETATM   27  C   UNL     1      -4.120   7.647  -2.779  1.00  0.00     0.005 A 
HETATM   28  C   UNL     1      -4.627   6.802  -1.796  1.00  0.00     0.043 A 
HETATM   29  C   UNL     1      -3.761   6.234  -0.868  1.00  0.00     0.126 A 
HETATM   30  F   UNL     1      -4.251   5.398   0.059  1.00  0.00    -0.205 F 
ENDBRANCH  22  23
ENDBRANCH  18  22
ENDBRANCH   1  15
BRANCH   5  31
HETATM   31  C   UNL     1       4.053   4.058   2.264  1.00  0.00     0.168 C 
BRANCH  31  32
HETATM   32  C   UNL     1       3.311   5.041   3.189  1.00  0.00     0.140 C 
HETATM   33  O   UNL     1       2.020   4.485   3.552  1.00  0.00    -0.384 OA
HETATM   34  C   UNL     1       1.935   4.477   4.986  1.00  0.00     0.168 C 
HETATM   35  C   UNL     1       3.358   4.438   5.487  1.00  0.00     0.029 C 
HETATM   36  C   UNL     1       4.065   5.314   4.485  1.00  0.00     0.036 C 
ENDBRANCH  31  32
ENDBRANCH   5  31
TORSDOF 6
