REMARK  7 active torsions:
REMARK  status: ('A' for Active; 'I' for Inactive)
REMARK    1  A    between atoms: C_4  and  O_5 
REMARK    2  A    between atoms: O_5  and  C_6 
REMARK    3  A    between atoms: C_6  and  C_7 
REMARK       I    between atoms: C_7  and  N_8 
REMARK    4  A    between atoms: N_8  and  N_9 
REMARK       I    between atoms: N_9  and  C_10 
REMARK    5  A    between atoms: C_10  and  C_11 
REMARK    6  A    between atoms: C_13  and  C_14 
REMARK    7  A    between atoms: C_21  and  C_22 
ROOT
HETATM    1  N   UNL     1       7.590   3.695  -1.284  1.00  0.00    -0.262 N 
HETATM    2  C   UNL     1       8.755   3.237  -1.877  1.00  0.00     0.291 C 
HETATM    3  O   UNL     1       8.855   2.102  -2.343  1.00  0.00    -0.264 OA
HETATM    4  H   UNL     1       7.649   4.523  -0.693  1.00  0.00     0.190 HD
ENDROOT
BRANCH   2   5
HETATM    5  C   UNL     1       9.814   4.235  -1.905  1.00  0.00     0.159 A 
HETATM    6  N   UNL     1       9.585   5.579  -1.622  1.00  0.00    -0.216 NA
HETATM    7  C   UNL     1      10.756   6.154  -1.824  1.00  0.00     0.180 A 
HETATM    8  O   UNL     1      11.751   5.283  -2.172  1.00  0.00    -0.293 OA
HETATM    9  C   UNL     1      11.147   4.056  -2.218  1.00  0.00     0.094 A 
BRANCH   7  10
HETATM   10  C   UNL     1      11.117   7.569  -1.759  1.00  0.00     0.017 A 
HETATM   11  C   UNL     1      10.147   8.519  -1.406  1.00  0.00     0.016 A 
HETATM   12  C   UNL     1      10.461   9.881  -1.362  1.00  0.00     0.001 A 
HETATM   13  C   UNL     1      11.749  10.310  -1.672  1.00  0.00     0.000 A 
HETATM   14  C   UNL     1      12.725   9.379  -2.023  1.00  0.00     0.001 A 
HETATM   15  C   UNL     1      12.411   8.018  -2.065  1.00  0.00     0.016 A 
ENDBRANCH   7  10
BRANCH   9  16
HETATM   16  C   UNL     1      11.870   2.764  -2.548  1.00  0.00     0.046 A 
HETATM   17  C   UNL     1      13.015   2.823  -3.537  1.00  0.00     0.012 A 
HETATM   18  C   UNL     1      13.308   2.628  -2.090  1.00  0.00     0.012 A 
ENDBRANCH   9  16
ENDBRANCH   2   5
BRANCH   1  19
HETATM   19  N   UNL     1       6.587   2.751  -0.990  1.00  0.00    -0.265 N 
HETATM   20  C   UNL     1       6.594   2.193   0.285  1.00  0.00     0.260 C 
HETATM   21  O   UNL     1       7.263   2.650   1.208  1.00  0.00    -0.269 OA
HETATM   22  H   UNL     1       6.320   2.166  -1.779  1.00  0.00     0.190 HD
BRANCH  20  23
HETATM   23  C   UNL     1       5.681   0.970   0.400  1.00  0.00     0.280 C 
BRANCH  23  24
HETATM   24  O   UNL     1       5.162   0.862   1.717  1.00  0.00    -0.342 OA
BRANCH  24  25
HETATM   25  C   UNL     1       4.213  -0.096   1.941  1.00  0.00     0.069 A 
HETATM   26  C   UNL     1       3.752  -1.036   1.016  1.00  0.00     0.043 A 
HETATM   27  C   UNL     1       2.753  -1.957   1.374  1.00  0.00    -0.059 A 
HETATM   28  C   UNL     1       2.250  -2.973   0.391  1.00  0.00     0.048 C 
HETATM   29  C   UNL     1       2.237  -1.939   2.675  1.00  0.00     0.007 A 
HETATM   30  C   UNL     1       2.702  -1.009   3.603  1.00  0.00     0.003 A 
HETATM   31  C   UNL     1       3.685  -0.092   3.234  1.00  0.00     0.037 A 
ENDBRANCH  24  25
ENDBRANCH  23  24
ENDBRANCH  20  23
ENDBRANCH   1  19
TORSDOF 7
