REMARK  4 active torsions:
REMARK  status: ('A' for Active; 'I' for Inactive)
REMARK    1  A    between atoms: C_2  and  C_3 
REMARK    2  A    between atoms: C_4  and  C_5 
REMARK       I    between atoms: C_5  and  N_6 
REMARK    3  A    between atoms: N_6  and  C_7 
REMARK    4  A    between atoms: C_14  and  C_15 
REMARK       I    between atoms: C_15  and  N_16 
ROOT
HETATM    1  C   UNL     1      -2.038   5.022  -2.160  1.00  0.00     0.035 A 
HETATM    2  C   UNL     1      -2.688   4.211  -3.100  1.00  0.00     0.046 A 
HETATM    3  C   UNL     1      -3.955   4.594  -3.595  1.00  0.00     0.030 A 
HETATM    4  C   UNL     1      -4.530   5.768  -3.129  1.00  0.00     0.063 A 
HETATM    5  N   UNL     1      -5.732   5.864  -3.774  1.00  0.00    -0.277 N 
HETATM    6  H   UNL     1      -6.424   6.598  -3.676  1.00  0.00     0.189 HD
HETATM    7  N   UNL     1      -5.990   4.857  -4.624  1.00  0.00    -0.168 NA
HETATM    8  C   UNL     1      -4.898   4.064  -4.527  1.00  0.00     0.156 A 
HETATM    9  C   UNL     1      -3.914   6.600  -2.193  1.00  0.00     0.034 A 
HETATM   10  C   UNL     1      -2.656   6.202  -1.722  1.00  0.00     0.032 A 
ENDROOT
BRANCH   1  11
HETATM   11  N   UNL     1      -0.770   4.728  -1.614  1.00  0.00    -0.327 N 
HETATM   12  C   UNL     1       0.006   3.615  -1.849  1.00  0.00     0.227 C 
HETATM   13  O   UNL     1      -0.244   2.677  -2.592  1.00  0.00    -0.273 OA
HETATM   14  H   UNL     1      -0.392   5.413  -0.977  1.00  0.00     0.169 HD
BRANCH  12  15
HETATM   15  C   UNL     1       1.325   3.613  -1.154  1.00  0.00     0.087 A 
HETATM   16  C   UNL     1       1.552   2.806   0.115  1.00  0.00     0.032 A 
HETATM   17  C   UNL     1       1.628   4.317   0.139  1.00  0.00     0.025 A 
BRANCH  16  18
HETATM   18  C   UNL     1       0.444   2.126   0.889  1.00  0.00    -0.053 A 
HETATM   19  C   UNL     1      -0.375   1.145   0.306  1.00  0.00     0.009 A 
HETATM   20  C   UNL     1      -1.384   0.505   1.035  1.00  0.00     0.024 A 
HETATM   21  C   UNL     1      -1.578   0.826   2.374  1.00  0.00     0.034 A 
HETATM   22  C   UNL     1      -0.771   1.778   2.988  1.00  0.00     0.024 A 
HETATM   23 CL   UNL     1      -2.812   0.039   3.277  1.00  0.00    -0.084 Cl
HETATM   24  C   UNL     1       0.231   2.416   2.250  1.00  0.00     0.009 A 
ENDBRANCH  16  18
ENDBRANCH  12  15
ENDBRANCH   1  11
BRANCH   8  25
HETATM   25  C   UNL     1      -4.781   2.831  -5.318  1.00  0.00     0.270 C 
HETATM   26  N   UNL     1      -5.866   2.570  -6.110  1.00  0.00    -0.365 N 
HETATM   27  H   UNL     1      -6.645   3.217  -6.095  1.00  0.00     0.159 HD
HETATM   28  H   UNL     1      -5.876   1.743  -6.686  1.00  0.00     0.159 HD
HETATM   29  O   UNL     1      -3.815   2.077  -5.301  1.00  0.00    -0.266 OA
ENDBRANCH   8  25
TORSDOF 4
