REMARK  4 active torsions:
REMARK  status: ('A' for Active; 'I' for Inactive)
REMARK    1  A    between atoms: C_2  and  C_3 
REMARK    2  A    between atoms: C_6  and  C_7 
REMARK       I    between atoms: C_7  and  N_8 
REMARK    3  A    between atoms: N_8  and  N_9 
REMARK       I    between atoms: N_9  and  C_10 
REMARK    4  A    between atoms: C_10  and  C_11 
ROOT
HETATM    1  N   UNL     1       2.562   6.524   0.190  1.00  0.00    -0.263 N 
HETATM    2  C   UNL     1       1.959   7.629  -0.373  1.00  0.00     0.272 C 
HETATM    3  O   UNL     1       1.069   7.541  -1.218  1.00  0.00    -0.266 OA
HETATM    4  H   UNL     1       3.427   6.560   0.727  1.00  0.00     0.190 HD
ENDROOT
BRANCH   1   5
HETATM    5  N   UNL     1       2.202   5.261  -0.287  1.00  0.00    -0.263 N 
HETATM    6  C   UNL     1       2.902   4.170   0.184  1.00  0.00     0.270 C 
HETATM    7  O   UNL     1       3.857   4.281   0.951  1.00  0.00    -0.266 OA
HETATM    8  H   UNL     1       1.329   5.209  -0.806  1.00  0.00     0.190 HD
BRANCH   6   9
HETATM    9  C   UNL     1       2.424   2.830  -0.253  1.00  0.00     0.033 A 
HETATM   10  C   UNL     1       1.710   2.639  -1.442  1.00  0.00     0.017 A 
HETATM   11  C   UNL     1       1.278   1.359  -1.800  1.00  0.00     0.008 A 
HETATM   12  C   UNL     1       1.553   0.257  -0.980  1.00  0.00    -0.059 A 
HETATM   13  C   UNL     1       2.288   0.450   0.197  1.00  0.00     0.008 A 
HETATM   14  C   UNL     1       2.723   1.727   0.556  1.00  0.00     0.017 A 
BRANCH  12  15
HETATM   15  C   UNL     1       1.097  -1.125  -1.375  1.00  0.00     0.034 C 
HETATM   16  C   UNL     1       2.162  -1.868  -2.167  1.00  0.00     0.010 C 
ENDBRANCH  12  15
ENDBRANCH   6   9
ENDBRANCH   1   5
BRANCH   2  17
HETATM   17  C   UNL     1       2.473   8.957   0.061  1.00  0.00     0.061 A 
HETATM   18  C   UNL     1       2.260  10.084  -0.754  1.00  0.00     0.059 A 
HETATM   19  C   UNL     1       2.735  11.354  -0.433  1.00  0.00    -0.001 A 
HETATM   20  N   UNL     1       1.598  10.195  -1.955  1.00  0.00    -0.358 N 
HETATM   21  C   UNL     1       2.357  12.237  -1.498  1.00  0.00    -0.027 A 
HETATM   22  C   UNL     1       3.443  11.518   0.775  1.00  0.00     0.014 A 
HETATM   23  C   UNL     1       2.661  13.691  -1.599  1.00  0.00     0.051 C 
HETATM   24  C   UNL     1       1.657  11.481  -2.426  1.00  0.00     0.012 A 
HETATM   25  C   UNL     1       1.029  11.847  -3.721  1.00  0.00     0.068 C 
HETATM   26  C   UNL     1       3.643  10.419   1.618  1.00  0.00     0.002 A 
HETATM   27  C   UNL     1       3.164   9.157   1.267  1.00  0.00     0.019 A 
HETATM   28  H   UNL     1       1.131   9.414  -2.403  1.00  0.00     0.166 HD
ENDBRANCH   2  17
TORSDOF 4
