REMARK  8 active torsions:
REMARK  status: ('A' for Active; 'I' for Inactive)
REMARK    1  A    between atoms: C_8  and  C_9 
REMARK       I    between atoms: C_9  and  N_10 
REMARK    2  A    between atoms: N_10  and  N_11 
REMARK    3  A    between atoms: N_11  and  C_12 
REMARK    4  A    between atoms: C_12  and  N_13 
REMARK    5  A    between atoms: N_13  and  C_14 
REMARK    6  A    between atoms: C_15  and  O_16 
REMARK    7  A    between atoms: C_19  and  O_20 
REMARK    8  A    between atoms: C_26  and  C_27 
ROOT
HETATM    1  C   UNL     1       5.328  -3.186   0.257  1.00  0.00     0.275 C 
HETATM    2  N   UNL     1       4.153  -3.890   0.097  1.00  0.00    -0.263 N 
HETATM    3  O   UNL     1       5.368  -1.962   0.361  1.00  0.00    -0.266 OA
HETATM    4  H   UNL     1       4.180  -4.867  -0.184  1.00  0.00     0.190 HD
ENDROOT
BRANCH   2   5
HETATM    5  N   UNL     1       2.933  -3.195  -0.035  1.00  0.00    -0.273 N 
HETATM    6  H   UNL     1       2.935  -2.296   0.453  1.00  0.00     0.189 HD
BRANCH   5   7
HETATM    7  C   UNL     1       1.774  -3.908   0.063  1.00  0.00     0.191 C 
HETATM    8  S   UNL     1       0.509  -3.312   0.973  1.00  0.00    -0.039 SA
BRANCH   7   9
HETATM    9  N   UNL     1       1.672  -5.140  -0.505  1.00  0.00    -0.330 N 
HETATM   10  H   UNL     1       0.919  -5.715  -0.136  1.00  0.00     0.168 HD
BRANCH   9  11
HETATM   11  C   UNL     1       2.252  -5.675  -1.681  1.00  0.00     0.068 A 
HETATM   12  C   UNL     1       2.027  -7.042  -1.950  1.00  0.00     0.097 A 
HETATM   13  C   UNL     1       2.552  -7.624  -3.112  1.00  0.00     0.075 A 
HETATM   14  C   UNL     1       3.286  -6.852  -4.015  1.00  0.00     0.070 A 
HETATM   15  C   UNL     1       3.489  -5.497  -3.752  1.00  0.00     0.039 A 
HETATM   16  C   UNL     1       2.967  -4.906  -2.600  1.00  0.00     0.035 A 
BRANCH  12  17
HETATM   17  O   UNL     1       1.291  -7.712  -0.999  1.00  0.00    -0.354 OA
HETATM   18  C   UNL     1       1.003  -9.084  -1.241  1.00  0.00     0.210 C 
ENDBRANCH  12  17
BRANCH  14  19
HETATM   19  O   UNL     1       3.849  -7.292  -5.180  1.00  0.00    -0.356 OA
HETATM   20  C   UNL     1       3.570  -8.630  -5.574  1.00  0.00     0.210 C 
ENDBRANCH  14  19
ENDBRANCH   9  11
ENDBRANCH   7   9
ENDBRANCH   5   7
ENDBRANCH   2   5
BRANCH   1  21
HETATM   21  C   UNL     1       6.515  -4.014   0.257  1.00  0.00     0.098 A 
HETATM   22  C   UNL     1       6.637  -5.368   0.510  1.00  0.00     0.138 A 
HETATM   23  N   UNL     1       5.750  -6.332   0.867  1.00  0.00    -0.370 N 
HETATM   24  N   UNL     1       7.975  -5.657   0.369  1.00  0.00    -0.240 N 
HETATM   25  C   UNL     1       6.140  -7.737   0.921  1.00  0.00     0.081 C 
HETATM   26  H   UNL     1       4.859  -6.107   1.312  1.00  0.00     0.161 HD
HETATM   27  C   UNL     1       5.881  -8.391  -0.434  1.00  0.00     0.032 C 
HETATM   28  C   UNL     1       7.595  -7.858   1.381  1.00  0.00     0.061 C 
HETATM   29  C   UNL     1       8.549  -6.979   0.550  1.00  0.00     0.221 C 
HETATM   30  N   UNL     1       8.714  -4.606  -0.016  1.00  0.00    -0.181 NA
HETATM   31  C   UNL     1       7.835  -3.600  -0.036  1.00  0.00     0.160 A 
BRANCH  29  32
HETATM   32  C   UNL     1       9.905  -6.934   1.224  1.00  0.00     0.409 C 
HETATM   33  F   UNL     1       9.866  -6.332   2.434  1.00  0.00    -0.169 F 
HETATM   34  F   UNL     1      10.339  -8.207   1.444  1.00  0.00    -0.169 F 
HETATM   35  F   UNL     1      10.862  -6.342   0.480  1.00  0.00    -0.169 F 
ENDBRANCH  29  32
ENDBRANCH   1  21
TORSDOF 8
