REMARK  8 active torsions:
REMARK  status: ('A' for Active; 'I' for Inactive)
REMARK    1  A    between atoms: C_8  and  N_9 
REMARK    2  A    between atoms: N_9  and  C_10 
REMARK    3  A    between atoms: N_14  and  C_15 
REMARK    4  A    between atoms: C_15  and  C_16 
REMARK    5  A    between atoms: C_28  and  N_29 
REMARK       I    between atoms: N_29  and  C_30 
REMARK    6  A    between atoms: C_30  and  O_31 
REMARK    7  A    between atoms: O_31  and  C_32 
REMARK    8  A    between atoms: C_32  and  C_33 
ROOT
HETATM    1  C   UNL     1       1.302  -0.674   0.895  1.00  0.00     0.053 C 
HETATM    2  C   UNL     1       2.775  -0.535   0.725  1.00  0.00    -0.002 A 
HETATM    3  C   UNL     1       3.738  -1.538   0.841  1.00  0.00     0.106 A 
HETATM    4  N   UNL     1       4.961  -0.983   0.600  1.00  0.00    -0.238 N 
HETATM    5  N   UNL     1       6.130  -1.633   0.635  1.00  0.00    -0.161 NA
HETATM    6  C   UNL     1       6.014  -2.894   0.903  1.00  0.00     0.257 A 
HETATM    7  N   UNL     1       4.852  -3.580   1.124  1.00  0.00    -0.226 NA
HETATM    8  C   UNL     1       3.707  -2.960   1.094  1.00  0.00     0.138 A 
HETATM    9  C   UNL     1       4.814   0.337   0.285  1.00  0.00     0.149 A 
HETATM   10  C   UNL     1       3.478   0.652   0.333  1.00  0.00     0.062 A 
ENDROOT
BRANCH   8  11
HETATM   11  N   UNL     1       2.524  -3.656   1.293  1.00  0.00    -0.242 NA
HETATM   12  H   UNL     1       1.750  -3.068   1.564  1.00  0.00     0.135 HD
BRANCH  11  13
HETATM   13  C   UNL     1       2.081  -4.623   0.345  1.00  0.00     0.015 A 
HETATM   14  C   UNL     1       2.948  -5.578  -0.209  1.00  0.00     0.039 A 
HETATM   15  C   UNL     1       2.492  -6.423  -1.238  1.00  0.00     0.013 A 
HETATM   16  C   UNL     1       1.178  -6.313  -1.680  1.00  0.00     0.065 A 
HETATM   17  C   UNL     1       3.055  -7.442  -2.034  1.00  0.00     0.152 A 
HETATM   18  N   UNL     1       1.086  -7.179  -2.748  1.00  0.00    -0.265 N 
HETATM   19  C   UNL     1       0.265  -5.428  -1.097  1.00  0.00     0.034 A 
HETATM   20  N   UNL     1       2.206  -7.908  -2.953  1.00  0.00    -0.183 NA
HETATM   21  C   UNL     1       0.742  -4.597  -0.075  1.00  0.00     0.026 A 
BRANCH  18  22
HETATM   22  C   UNL     1      -0.023  -7.296  -3.691  1.00  0.00     0.190 C 
BRANCH  22  23
HETATM   23  C   UNL     1      -0.294  -6.003  -4.434  1.00  0.00    -0.035 A 
HETATM   24  C   UNL     1       0.752  -5.228  -4.965  1.00  0.00     0.051 A 
HETATM   25  C   UNL     1       0.473  -4.033  -5.621  1.00  0.00     0.117 A 
HETATM   26  F   UNL     1       1.481  -3.285  -6.088  1.00  0.00    -0.206 F 
HETATM   27  C   UNL     1      -0.835  -3.599  -5.792  1.00  0.00     0.042 A 
HETATM   28  C   UNL     1      -1.884  -4.374  -5.303  1.00  0.00     0.004 A 
HETATM   29  C   UNL     1      -1.616  -5.571  -4.630  1.00  0.00     0.009 A 
ENDBRANCH  22  23
ENDBRANCH  18  22
ENDBRANCH  11  13
ENDBRANCH   8  11
BRANCH  10  30
HETATM   30  N   UNL     1       2.908   1.878   0.036  1.00  0.00    -0.301 N 
HETATM   31  C   UNL     1       3.531   2.901  -0.615  1.00  0.00     0.365 C 
HETATM   32  O   UNL     1       4.692   2.969  -0.996  1.00  0.00    -0.238 OA
HETATM   33  H   UNL     1       1.911   1.981   0.164  1.00  0.00     0.171 HD
BRANCH  31  34
HETATM   34  O   UNL     1       2.634   3.892  -0.859  1.00  0.00    -0.302 OA
BRANCH  34  35
HETATM   35  C   UNL     1       2.944   4.825  -1.921  1.00  0.00     0.215 C 
BRANCH  35  36
HETATM   36  C   UNL     1       4.097   5.813  -1.616  1.00  0.00     0.233 C 
HETATM   37  N   UNL     1       5.462   5.181  -1.856  1.00  0.00    -0.065 N 
HETATM   38  H   UNL     1       6.197   5.728  -1.393  1.00  0.00     0.277 HD
HETATM   39  H   UNL     1       5.477   4.247  -1.392  1.00  0.00     0.277 HD
HETATM   40  C   UNL     1       5.810   4.959  -3.302  1.00  0.00     0.259 C 
HETATM   41  C   UNL     1       5.559   6.238  -4.102  1.00  0.00     0.195 C 
HETATM   42  O   UNL     1       4.228   6.728  -3.886  1.00  0.00    -0.387 OA
HETATM   43  C   UNL     1       4.007   7.064  -2.510  1.00  0.00     0.202 C 
ENDBRANCH  35  36
ENDBRANCH  34  35
ENDBRANCH  31  34
ENDBRANCH  10  30
TORSDOF 8
