REMARK  1 active torsions:
REMARK  status: ('A' for Active; 'I' for Inactive)
REMARK    1  A    between atoms: C_8  and  C_9 
ROOT
HETATM    1  C   UNL     1       0.991  -0.344   0.065  1.00  0.00     0.073 C 
HETATM    2  C   UNL     1       2.468  -0.185   0.031  1.00  0.00     0.062 C 
HETATM    3  N   UNL     1       3.249  -1.255   0.219  1.00  0.00    -0.178 NA
HETATM    4  N   UNL     1       4.491  -0.773   0.094  1.00  0.00    -0.262 N 
HETATM    5  H   UNL     1       5.266  -1.420   0.191  1.00  0.00     0.191 HD
HETATM    6  C   UNL     1       4.536   0.587  -0.030  1.00  0.00     0.134 C 
HETATM    7  C   UNL     1       3.232   1.004  -0.204  1.00  0.00     0.032 C 
HETATM    8  C   UNL     1       2.701   2.333  -0.625  1.00  0.00     0.119 C 
HETATM    9  S   UNL     1       3.312   3.833   0.185  1.00  0.00    -0.141 SA
HETATM   10  C   UNL     1       4.759   3.298   1.142  1.00  0.00     0.136 C 
HETATM   11  C   UNL     1       4.405   2.619   2.462  1.00  0.00     0.031 C 
HETATM   12  C   UNL     1       5.847   2.590   0.336  1.00  0.00     0.236 C 
HETATM   13  O   UNL     1       6.912   3.156   0.069  1.00  0.00    -0.272 OA
HETATM   14  N   UNL     1       5.720   1.274  -0.011  1.00  0.00    -0.311 N 
HETATM   15  H   UNL     1       6.584   0.820  -0.282  1.00  0.00     0.170 HD
ENDROOT
BRANCH   8  16
HETATM   16  C   UNL     1       2.849   2.364  -2.149  1.00  0.00    -0.040 A 
HETATM   17  C   UNL     1       1.775   1.946  -2.959  1.00  0.00     0.010 A 
HETATM   18  C   UNL     1       1.884   1.924  -4.353  1.00  0.00     0.024 A 
HETATM   19  C   UNL     1       3.068   2.330  -4.962  1.00  0.00     0.034 A 
HETATM   20 CL   UNL     1       3.204   2.300  -6.676  1.00  0.00    -0.084 Cl
HETATM   21  C   UNL     1       4.141   2.758  -4.188  1.00  0.00     0.024 A 
HETATM   22  C   UNL     1       4.033   2.772  -2.794  1.00  0.00     0.010 A 
ENDBRANCH   8  16
TORSDOF 1
