REMARK  10 active torsions:
REMARK  status: ('A' for Active; 'I' for Inactive)
REMARK    1  A    between atoms: N_2  and  C_3 
REMARK    2  A    between atoms: C_3  and  C_4 
REMARK       I    between atoms: C_4  and  N_5 
REMARK    3  A    between atoms: N_5  and  C_6 
REMARK    4  A    between atoms: C_6  and  C_7 
REMARK    5  A    between atoms: C_7  and  C_8 
REMARK    6  A    between atoms: C_8  and  C_9 
REMARK       I    between atoms: C_9  and  N_10 
REMARK    7  A    between atoms: N_10  and  C_11 
REMARK    8  A    between atoms: C_11  and  C_12 
REMARK    9  A    between atoms: C_12  and  C_13 
REMARK   10  A    between atoms: C_13  and  N_14 
ROOT
HETATM    1  C   UNL     1       6.499   0.823  -0.740  1.00  0.00     0.235 C 
HETATM    2  N   UNL     1       5.476   0.488   0.129  1.00  0.00    -0.360 N 
HETATM    3  O   UNL     1       6.629   0.303  -1.844  1.00  0.00    -0.272 OA
HETATM    4  H   UNL     1       5.438   0.912   1.048  1.00  0.00     0.162 HD
ENDROOT
BRANCH   2   5
HETATM    5  C   UNL     1       4.481  -0.508  -0.210  1.00  0.00     0.123 C 
BRANCH   5   6
HETATM    6  C   UNL     1       5.002  -1.927   0.000  1.00  0.00     0.029 C 
BRANCH   6   7
HETATM    7  C   UNL     1       3.920  -2.955  -0.308  1.00  0.00     0.104 C 
BRANCH   7   8
HETATM    8  C   UNL     1       4.412  -4.355  -0.023  1.00  0.00     0.217 C 
HETATM    9  N   UNL     1       5.219  -4.893  -1.001  1.00  0.00    -0.361 N 
HETATM   10  H   UNL     1       5.305  -4.388  -1.878  1.00  0.00     0.162 HD
HETATM   11  O   UNL     1       4.166  -4.941   1.027  1.00  0.00    -0.274 OA
BRANCH   9  12
HETATM   12  C   UNL     1       5.638  -6.281  -0.972  1.00  0.00     0.124 C 
BRANCH  12  13
HETATM   13  C   UNL     1       6.907  -6.521  -0.149  1.00  0.00     0.047 C 
BRANCH  13  14
HETATM   14  C   UNL     1       6.682  -6.307   1.348  1.00  0.00     0.236 C 
BRANCH  14  15
HETATM   15  N   UNL     1       7.850  -6.841   2.187  1.00  0.00    -0.071 N 
HETATM   16  H   UNL     1       7.995  -7.816   1.894  1.00  0.00     0.279 HD
HETATM   17  C   UNL     1       9.127  -6.078   1.921  1.00  0.00     0.235 C 
HETATM   18  C   UNL     1      10.329  -6.640   2.671  1.00  0.00     0.028 C 
HETATM   19  C   UNL     1      10.329  -6.285   4.153  1.00  0.00     0.002 C 
HETATM   20  C   UNL     1       9.553  -7.251   5.038  1.00  0.00     0.002 C 
HETATM   21  C   UNL     1       8.281  -7.846   4.444  1.00  0.00     0.028 C 
HETATM   22  C   UNL     1       7.428  -6.868   3.650  1.00  0.00     0.235 C 
ENDBRANCH  14  15
ENDBRANCH  13  14
ENDBRANCH  12  13
ENDBRANCH   9  12
ENDBRANCH   7   8
ENDBRANCH   6   7
ENDBRANCH   5   6
ENDBRANCH   2   5
BRANCH   1  23
HETATM   23  C   UNL     1       7.403   1.939  -0.213  1.00  0.00     0.235 C 
BRANCH  23  24
HETATM   24  N   UNL     1       8.610   2.059  -1.007  1.00  0.00    -0.299 N 
HETATM   25  C   UNL     1       8.673   2.980  -2.036  1.00  0.00     0.214 A 
HETATM   26  N   UNL     1       9.708   3.216  -2.775  1.00  0.00    -0.235 NA
HETATM   27  C   UNL     1      10.790   2.454  -2.477  1.00  0.00     0.115 A 
HETATM   28  C   UNL     1      10.861   1.461  -1.521  1.00  0.00     0.075 A 
HETATM   29  S   UNL     1      12.275   2.661  -3.291  1.00  0.00    -0.073 SA
HETATM   30  C   UNL     1       9.676   1.211  -0.718  1.00  0.00     0.262 A 
HETATM   31  C   UNL     1      12.148   0.834  -1.481  1.00  0.00    -0.026 A 
HETATM   32  O   UNL     1       9.629   0.342   0.152  1.00  0.00    -0.267 OA
HETATM   33  C   UNL     1      13.015   1.429  -2.380  1.00  0.00    -0.008 A 
HETATM   34  C   UNL     1      12.587  -0.283  -0.582  1.00  0.00     0.041 C 
HETATM   35  C   UNL     1      14.446   1.043  -2.591  1.00  0.00     0.047 C 
HETATM   36  C   UNL     1      14.941   0.164  -1.432  1.00  0.00     0.005 C 
HETATM   37  C   UNL     1      13.910  -0.908  -1.053  1.00  0.00     0.005 C 
ENDBRANCH  23  24
ENDBRANCH   1  23
TORSDOF 10
