REMARK  7 active torsions:
REMARK  status: ('A' for Active; 'I' for Inactive)
REMARK    1  A    between atoms: C_5  and  S_6 
REMARK    2  A    between atoms: S_6  and  C_7 
REMARK    3  A    between atoms: C_7  and  C_8 
REMARK       I    between atoms: C_8  and  N_9 
REMARK    4  A    between atoms: N_9  and  C_10 
REMARK    5  A    between atoms: C_10  and  C_11 
REMARK    6  A    between atoms: C_11  and  C_12 
REMARK    7  A    between atoms: C_26  and  O_27 
ROOT
HETATM    1  C   UNL     1       0.769   0.033  -0.201  1.00  0.00     0.052 C 
HETATM    2  C   UNL     1       2.275   0.020  -0.102  1.00  0.00    -0.013 A 
HETATM    3  C   UNL     1       3.031  -1.189  -0.178  1.00  0.00     0.165 A 
HETATM    4  N   UNL     1       4.422  -1.174  -0.058  1.00  0.00    -0.271 N 
HETATM    5  C   UNL     1       4.769  -2.510  -0.175  1.00  0.00     0.197 A 
HETATM    6  N   UNL     1       3.694  -3.244  -0.365  1.00  0.00    -0.122 NA
HETATM    7  N   UNL     1       2.608  -2.423  -0.362  1.00  0.00    -0.128 NA
HETATM    8  C   UNL     1       5.160   0.032   0.111  1.00  0.00     0.053 A 
HETATM    9  C   UNL     1       4.407   1.219   0.160  1.00  0.00    -0.005 A 
HETATM   10  C   UNL     1       2.943   1.177   0.062  1.00  0.00     0.024 A 
HETATM   11  C   UNL     1       6.551   0.103   0.211  1.00  0.00     0.034 A 
HETATM   12  C   UNL     1       7.188   1.346   0.348  1.00  0.00     0.039 A 
HETATM   13  C   UNL     1       6.446   2.524   0.387  1.00  0.00     0.069 A 
HETATM   14  C   UNL     1       5.055   2.453   0.299  1.00  0.00     0.050 A 
ENDROOT
BRANCH   5  15
HETATM   15  S   UNL     1       6.353  -3.203  -0.087  1.00  0.00    -0.080 SA
BRANCH  15  16
HETATM   16  C   UNL     1       6.153  -4.692  -1.103  1.00  0.00     0.185 C 
BRANCH  16  17
HETATM   17  C   UNL     1       5.657  -5.865  -0.276  1.00  0.00     0.227 C 
HETATM   18  N   UNL     1       4.284  -5.967  -0.195  1.00  0.00    -0.360 N 
HETATM   19  H   UNL     1       3.761  -5.100  -0.331  1.00  0.00     0.162 HD
HETATM   20  O   UNL     1       6.425  -6.671   0.244  1.00  0.00    -0.273 OA
BRANCH  18  21
HETATM   21  C   UNL     1       3.658  -7.010   0.594  1.00  0.00     0.127 C 
BRANCH  21  22
HETATM   22  C   UNL     1       2.143  -7.029   0.398  1.00  0.00     0.058 C 
BRANCH  22  23
HETATM   23  C   UNL     1       1.494  -8.215   1.066  1.00  0.00    -0.057 A 
HETATM   24  C   UNL     1       1.273  -8.224   2.449  1.00  0.00     0.007 A 
HETATM   25  C   UNL     1       0.685  -9.332   3.063  1.00  0.00     0.001 A 
HETATM   26  C   UNL     1       0.313 -10.438   2.301  1.00  0.00     0.000 A 
HETATM   27  C   UNL     1       0.531 -10.440   0.925  1.00  0.00     0.001 A 
HETATM   28  C   UNL     1       1.121  -9.335   0.310  1.00  0.00     0.007 A 
ENDBRANCH  22  23
ENDBRANCH  21  22
ENDBRANCH  18  21
ENDBRANCH  16  17
ENDBRANCH  15  16
ENDBRANCH   5  15
BRANCH  13  29
HETATM   29  O   UNL     1       6.948   3.789   0.507  1.00  0.00    -0.356 OA
HETATM   30  C   UNL     1       8.364   3.922   0.527  1.00  0.00     0.210 C 
ENDBRANCH  13  29
TORSDOF 7
