REMARK  6 active torsions:
REMARK  status: ('A' for Active; 'I' for Inactive)
REMARK    1  A    between atoms: C_2  and  S_3 
REMARK    2  A    between atoms: C_2  and  C_18 
REMARK    3  A    between atoms: S_3  and  C_4 
REMARK    4  A    between atoms: C_4  and  C_5 
REMARK       I    between atoms: C_5  and  N_6 
REMARK    5  A    between atoms: N_6  and  C_7 
REMARK    6  A    between atoms: C_10  and  C_11 
REMARK       I    between atoms: C_11  and  N_12 
ROOT
HETATM    1  C   UNL     1       3.023  -3.780  -1.979  1.00  0.00     0.231 C 
HETATM    2  N   UNL     1       2.538  -3.668  -3.275  1.00  0.00    -0.327 N 
HETATM    3  O   UNL     1       3.815  -4.626  -1.572  1.00  0.00    -0.272 OA
HETATM    4  H   UNL     1       1.882  -2.917  -3.452  1.00  0.00     0.169 HD
ENDROOT
BRANCH   1   5
HETATM    5  C   UNL     1       2.461  -2.724  -1.038  1.00  0.00     0.177 C 
BRANCH   5   6
HETATM    6  S   UNL     1       3.599  -1.299  -0.971  1.00  0.00    -0.147 SA
BRANCH   6   7
HETATM    7  C   UNL     1       2.872  -0.452   0.482  1.00  0.00     0.113 C 
HETATM    8  C   UNL     1       3.850   0.594   1.009  1.00  0.00     0.029 C 
BRANCH   7   9
HETATM    9  C   UNL     1       1.545   0.141   0.123  1.00  0.00     0.118 A 
HETATM   10  N   UNL     1       0.365  -0.289   0.526  1.00  0.00    -0.232 NA
HETATM   11  C   UNL     1      -0.556   0.539  -0.067  1.00  0.00     0.085 A 
HETATM   12  C   UNL     1       0.071   1.484  -0.870  1.00  0.00     0.062 A 
HETATM   13  C   UNL     1      -1.955   0.540   0.028  1.00  0.00     0.034 A 
HETATM   14  N   UNL     1       1.407   1.208  -0.736  1.00  0.00    -0.342 N 
HETATM   15  C   UNL     1      -0.621   2.450  -1.603  1.00  0.00     0.032 A 
HETATM   16  H   UNL     1       2.163   1.690  -1.200  1.00  0.00     0.167 HD
HETATM   17  C   UNL     1      -2.017   2.437  -1.496  1.00  0.00     0.002 A 
HETATM   18  C   UNL     1      -2.675   1.500  -0.695  1.00  0.00     0.002 A 
ENDBRANCH   7   9
ENDBRANCH   6   7
ENDBRANCH   5   6
ENDBRANCH   1   5
BRANCH   2  19
HETATM   19  C   UNL     1       2.848  -4.490  -4.378  1.00  0.00     0.034 A 
HETATM   20  C   UNL     1       3.788  -5.523  -4.343  1.00  0.00     0.030 A 
HETATM   21  C   UNL     1       4.037  -6.306  -5.479  1.00  0.00     0.019 A 
HETATM   22  C   UNL     1       3.333  -6.074  -6.664  1.00  0.00     0.032 A 
HETATM   23  C   UNL     1       2.407  -5.026  -6.710  1.00  0.00     0.019 A 
HETATM   24  C   UNL     1       2.168  -4.241  -5.576  1.00  0.00     0.030 A 
BRANCH  22  25
HETATM   25  C   UNL     1       3.550  -6.886  -7.898  1.00  0.00     0.251 C 
HETATM   26  N   UNL     1       4.066  -8.153  -7.722  1.00  0.00    -0.361 N 
HETATM   27  C   UNL     1       4.259  -9.055  -8.831  1.00  0.00     0.149 C 
HETATM   28  H   UNL     1       4.122  -8.543  -6.792  1.00  0.00     0.162 HD
HETATM   29  O   UNL     1       3.243  -6.426  -8.992  1.00  0.00    -0.268 OA
ENDBRANCH  22  25
ENDBRANCH   2  19
TORSDOF 6
