REMARK  7 active torsions:
REMARK  status: ('A' for Active; 'I' for Inactive)
REMARK    1  A    between atoms: C_7  and  C_8 
REMARK    2  A    between atoms: C_8  and  C_9 
REMARK    3  A    between atoms: C_9  and  C_10 
REMARK    4  A    between atoms: C_10  and  O_11 
REMARK    5  A    between atoms: C_13  and  C_14 
REMARK    6  A    between atoms: C_22  and  C_23 
REMARK       I    between atoms: C_23  and  N_24 
REMARK    7  A    between atoms: N_24  and  C_25 
ROOT
HETATM    1  C   UNL     1       0.904  -0.020   1.125  1.00  0.00     0.070 C 
HETATM    2  C   UNL     1       2.363  -0.120   0.749  1.00  0.00     0.037 C 
HETATM    3  N   UNL     1       3.017   1.095   0.582  1.00  0.00    -0.192 N 
HETATM    4  C   UNL     1       4.352   1.203   0.453  1.00  0.00     0.726 A 
HETATM    5  N   UNL     1       5.113   0.071   0.351  1.00  0.00    -0.083 N 
HETATM    6  N   UNL     1       6.428   0.370   0.260  1.00  0.00    -0.140 NA
HETATM    7  C   UNL     1       6.386   1.710   0.349  1.00  0.00     0.166 A 
HETATM    8  N   UNL     1       5.129   2.255   0.449  1.00  0.00    -0.046 NA
HETATM    9  C   UNL     1       4.555  -1.291   0.338  1.00  0.00     0.204 C 
HETATM   10  C   UNL     1       3.052  -1.284   0.621  1.00  0.00     0.062 C 
HETATM   11  H   UNL     1       2.491   1.943   0.779  1.00  0.00     0.184 HD
ENDROOT
BRANCH  10  12
HETATM   12  C   UNL     1       2.390  -2.608   0.782  1.00  0.00     0.256 C 
HETATM   13  N   UNL     1       1.349  -2.811  -0.101  1.00  0.00    -0.323 N 
HETATM   14  H   UNL     1       1.174  -2.089  -0.788  1.00  0.00     0.169 HD
HETATM   15  O   UNL     1       2.799  -3.393   1.625  1.00  0.00    -0.267 OA
BRANCH  13  16
HETATM   16  C   UNL     1       0.433  -3.887  -0.091  1.00  0.00     0.035 A 
HETATM   17  C   UNL     1       0.479  -4.944   0.825  1.00  0.00     0.032 A 
HETATM   18  C   UNL     1      -0.490  -5.952   0.799  1.00  0.00     0.044 A 
HETATM   19  C   UNL     1      -1.506  -5.903  -0.145  1.00  0.00     0.116 A 
HETATM   20  F   UNL     1      -2.440  -6.863  -0.163  1.00  0.00    -0.206 F 
HETATM   21  C   UNL     1      -1.568  -4.868  -1.067  1.00  0.00     0.044 A 
HETATM   22  C   UNL     1      -0.598  -3.861  -1.042  1.00  0.00     0.032 A 
ENDBRANCH  13  16
ENDBRANCH  10  12
BRANCH   9  23
HETATM   23  C   UNL     1       5.414  -2.234   1.181  1.00  0.00    -0.005 A 
HETATM   24  C   UNL     1       5.558  -2.132   2.582  1.00  0.00     0.064 A 
HETATM   25 CL   UNL     1       4.740  -0.879   3.464  1.00  0.00    -0.082 Cl
HETATM   26  C   UNL     1       6.367  -3.055   3.270  1.00  0.00     0.056 A 
HETATM   27 CL   UNL     1       6.589  -3.002   4.987  1.00  0.00    -0.083 Cl
HETATM   28  C   UNL     1       7.034  -4.069   2.578  1.00  0.00     0.026 A 
HETATM   29  C   UNL     1       6.904  -4.175   1.198  1.00  0.00     0.002 A 
HETATM   30  C   UNL     1       6.103  -3.267   0.507  1.00  0.00     0.011 A 
ENDBRANCH   9  23
BRANCH   7  31
HETATM   31  C   UNL     1       7.615   2.536   0.456  1.00  0.00     0.085 C 
BRANCH  31  32
HETATM   32  C   UNL     1       7.903   2.981   1.893  1.00  0.00     0.034 C 
BRANCH  32  33
HETATM   33  C   UNL     1       7.973   1.842   2.907  1.00  0.00     0.164 C 
BRANCH  33  34
HETATM   34  O   UNL     1       8.831   0.805   2.455  1.00  0.00    -0.401 OA
HETATM   35  H   UNL     1       8.319   0.283   1.806  1.00  0.00     0.209 HD
ENDBRANCH  33  34
ENDBRANCH  32  33
ENDBRANCH  31  32
ENDBRANCH   7  31
TORSDOF 7
