REMARK  8 active torsions:
REMARK  status: ('A' for Active; 'I' for Inactive)
REMARK    1  A    between atoms: C_3  and  N_4 
REMARK       I    between atoms: N_4  and  C_5 
REMARK       I    between atoms: C_5  and  N_6 
REMARK       I    between atoms: N_6  and  C_7 
REMARK    2  A    between atoms: C_7  and  C_8 
REMARK    3  A    between atoms: C_8  and  N_9 
REMARK    4  A    between atoms: N_9  and  C_11 
REMARK    5  A    between atoms: N_9  and  C_17 
REMARK    6  A    between atoms: C_11  and  C_12 
REMARK    7  A    between atoms: C_17  and  C_18 
REMARK    8  A    between atoms: C_19  and  O_20 
ROOT
HETATM    1  N   UNL     1       3.641  -1.483   1.093  1.00  0.00    -0.053 N 
HETATM    2  H   UNL     1       3.790  -2.439   1.447  1.00  0.00     0.281 HD
ENDROOT
BRANCH   1   3
HETATM    3  C   UNL     1       3.177  -0.674   2.289  1.00  0.00     0.338 C 
BRANCH   3   4
HETATM    4  C   UNL     1       4.031  -0.878   3.544  1.00  0.00     0.251 C 
HETATM    5  N   UNL     1       3.362  -1.464   4.602  1.00  0.00    -0.278 N 
HETATM    6  C   UNL     1       3.635  -1.346   5.942  1.00  0.00     0.323 C 
HETATM    7  H   UNL     1       2.415  -1.804   4.490  1.00  0.00     0.173 HD
HETATM    8  N   UNL     1       4.796  -0.727   6.267  1.00  0.00    -0.338 N 
HETATM    9  O   UNL     1       2.780  -1.740   6.722  1.00  0.00    -0.247 OA
HETATM   10  H   UNL     1       5.469  -0.630   5.512  1.00  0.00     0.164 HD
HETATM   11  O   UNL     1       5.239  -0.650   3.543  1.00  0.00    -0.271 OA
BRANCH   8  12
HETATM   12  C   UNL     1       5.312  -0.440   7.610  1.00  0.00     0.089 C 
HETATM   13  C   UNL     1       4.380   0.444   8.480  1.00  0.00     0.004 C 
HETATM   14  C   UNL     1       5.220   1.422   9.319  1.00  0.00     0.012 C 
HETATM   15  C   UNL     1       3.438  -0.344   9.408  1.00  0.00     0.006 C 
HETATM   16  C   UNL     1       4.118  -1.498  10.134  1.00  0.00     0.001 C 
HETATM   17  C   UNL     1       4.828  -2.431   9.165  1.00  0.00     0.002 C 
HETATM   18  C   UNL     1       5.854  -1.687   8.322  1.00  0.00     0.026 C 
ENDBRANCH   8  12
ENDBRANCH   3   4
ENDBRANCH   1   3
BRANCH   1  19
HETATM   19  C   UNL     1       2.565  -1.683   0.049  1.00  0.00     0.300 C 
BRANCH  19  20
HETATM   20  C   UNL     1       1.978  -3.048   0.134  1.00  0.00     0.078 A 
HETATM   21  O   UNL     1       2.602  -3.923   0.981  1.00  0.00    -0.325 OA
HETATM   22  C   UNL     1       1.935  -5.103   0.888  1.00  0.00     0.142 A 
HETATM   23  C   UNL     1       0.886  -4.994   0.005  1.00  0.00     0.027 A 
HETATM   24  C   UNL     1       0.910  -3.664  -0.482  1.00  0.00     0.036 A 
ENDBRANCH  19  20
ENDBRANCH   1  19
BRANCH   1  25
HETATM   25  C   UNL     1       4.982  -1.112   0.516  1.00  0.00     0.277 C 
BRANCH  25  26
HETATM   26  C   UNL     1       5.320   0.305   0.122  1.00  0.00     0.001 A 
HETATM   27  C   UNL     1       4.435   1.265  -0.384  1.00  0.00     0.073 A 
HETATM   28  C   UNL     1       4.887   2.521  -0.808  1.00  0.00     0.037 A 
HETATM   29  C   UNL     1       6.242   2.834  -0.756  1.00  0.00     0.003 A 
HETATM   30  C   UNL     1       7.146   1.896  -0.276  1.00  0.00     0.001 A 
HETATM   31  C   UNL     1       6.690   0.649   0.157  1.00  0.00     0.011 A 
BRANCH  27  32
HETATM   32  O   UNL     1       3.099   0.997  -0.483  1.00  0.00    -0.360 OA
HETATM   33  H   UNL     1       2.667   1.776  -0.886  1.00  0.00     0.217 HD
ENDBRANCH  27  32
ENDBRANCH  25  26
ENDBRANCH   1  25
TORSDOF 8
