REMARK  3 active torsions:
REMARK  status: ('A' for Active; 'I' for Inactive)
REMARK    1  A    between atoms: C_6  and  N_7 
REMARK       I    between atoms: N_7  and  C_8 
REMARK    2  A    between atoms: C_8  and  C_9 
REMARK    3  A    between atoms: C_9  and  C_10 
ROOT
HETATM    1  C   UNL     1       5.037  -2.492   0.125  1.00  0.00     0.286 C 
HETATM    2  N   UNL     1       5.050  -2.439   1.648  1.00  0.00    -0.056 N 
HETATM    3  H   UNL     1       4.064  -2.626   1.938  1.00  0.00     0.278 HD
HETATM    4  H   UNL     1       5.598  -3.212   2.042  1.00  0.00     0.278 HD
HETATM    5  C   UNL     1       5.465  -1.119   2.233  1.00  0.00     0.209 C 
HETATM    6  C   UNL     1       4.627   0.021   1.600  1.00  0.00     0.115 C 
HETATM    7  N   UNL     1       4.541  -0.063   0.141  1.00  0.00    -0.353 N 
HETATM    8  C   UNL     1       4.383  -1.258  -0.522  1.00  0.00     0.249 C 
HETATM    9  O   UNL     1       3.851  -1.289  -1.625  1.00  0.00    -0.271 OA
HETATM   10  C   UNL     1       6.975  -0.937   2.072  1.00  0.00     0.035 C 
HETATM   11  C   UNL     1       7.419   0.436   2.567  1.00  0.00     0.002 C 
HETATM   12  C   UNL     1       6.654   1.549   1.859  1.00  0.00     0.002 C 
HETATM   13  C   UNL     1       5.144   1.397   2.040  1.00  0.00     0.027 C 
HETATM   14  H   UNL     1       4.066   0.699  -0.340  1.00  0.00     0.163 HD
ENDROOT
BRANCH   1  15
HETATM   15  C   UNL     1       4.427  -3.798  -0.396  1.00  0.00     0.146 C 
BRANCH  15  16
HETATM   16  C   UNL     1       3.104  -4.117   0.267  1.00  0.00     0.224 C 
HETATM   17  N   UNL     1       2.480  -5.202  -0.299  1.00  0.00    -0.327 N 
HETATM   18  H   UNL     1       2.699  -5.375  -1.276  1.00  0.00     0.169 HD
HETATM   19  O   UNL     1       2.754  -3.464   1.248  1.00  0.00    -0.273 OA
BRANCH  17  20
HETATM   20  C   UNL     1       1.423  -6.000   0.202  1.00  0.00     0.040 A 
HETATM   21  C   UNL     1       1.076  -6.193   1.551  1.00  0.00    -0.035 A 
HETATM   22  C   UNL     1      -0.002  -7.055   1.858  1.00  0.00     0.015 A 
HETATM   23  C   UNL     1       1.789  -5.592   2.727  1.00  0.00     0.050 C 
HETATM   24  C   UNL     1      -0.704  -7.752   0.869  1.00  0.00    -0.061 A 
HETATM   25  C   UNL     1      -1.792  -8.716   1.239  1.00  0.00     0.048 C 
HETATM   26  C   UNL     1      -0.318  -7.594  -0.457  1.00  0.00     0.009 A 
HETATM   27  C   UNL     1       0.729  -6.729  -0.783  1.00  0.00     0.030 A 
ENDBRANCH  17  20
ENDBRANCH  15  16
ENDBRANCH   1  15
TORSDOF 3
