REMARK  7 active torsions:
REMARK  status: ('A' for Active; 'I' for Inactive)
REMARK    1  A    between atoms: C_6  and  C_7 
REMARK    2  A    between atoms: N_13  and  C_15 
REMARK    3  A    between atoms: C_15  and  C_16 
REMARK    4  A    between atoms: C_16  and  N_17 
REMARK       I    between atoms: N_17  and  C_18 
REMARK    5  A    between atoms: C_18  and  C_19 
REMARK    6  A    between atoms: C_19  and  N_20 
REMARK    7  A    between atoms: C_19  and  C_27 
ROOT
HETATM    1  C   UNL     1       1.683   2.676  -2.408  1.00  0.00     0.150 C 
ENDROOT
BRANCH   1   2
HETATM    2  C   UNL     1       0.848   2.260  -1.176  1.00  0.00     0.255 C 
BRANCH   2   3
HETATM    3  N   UNL     1       1.625   2.341   0.129  1.00  0.00    -0.063 N 
HETATM    4  C   UNL     1       2.777   1.374   0.341  1.00  0.00     0.272 C 
HETATM    5  C   UNL     1       2.426  -0.129   0.482  1.00  0.00     0.188 C 
HETATM    6  O   UNL     1       1.602  -0.446   1.619  1.00  0.00    -0.339 OA
HETATM    7  C   UNL     1       0.281  -0.124   1.598  1.00  0.00     0.077 A 
HETATM    8  C   UNL     1      -0.208   1.172   1.428  1.00  0.00     0.001 A 
HETATM    9  C   UNL     1      -0.599  -1.178   1.865  1.00  0.00     0.037 A 
HETATM   10  C   UNL     1      -1.601   1.375   1.430  1.00  0.00     0.012 A 
HETATM   11  C   UNL     1       0.706   2.350   1.333  1.00  0.00     0.276 C 
HETATM   12  C   UNL     1      -2.478   0.309   1.634  1.00  0.00     0.001 A 
HETATM   13  C   UNL     1      -1.976  -0.966   1.866  1.00  0.00     0.003 A 
HETATM   14  H   UNL     1       2.052   3.276   0.150  1.00  0.00     0.280 HD
BRANCH   5  15
HETATM   15  C   UNL     1       2.140  -0.837  -0.838  1.00  0.00    -0.020 A 
HETATM   16  C   UNL     1       3.131  -1.069  -1.784  1.00  0.00     0.059 A 
HETATM   17  S   UNL     1       2.564  -1.853  -3.191  1.00  0.00    -0.113 SA
HETATM   18  C   UNL     1       0.996  -1.986  -2.543  1.00  0.00     0.050 A 
HETATM   19  C   UNL     1       0.901  -1.402  -1.298  1.00  0.00     0.017 A 
ENDBRANCH   5  15
ENDBRANCH   2   3
ENDBRANCH   1   2
BRANCH   1  20
HETATM   20  N   UNL     1       1.044   2.494  -3.717  1.00  0.00    -0.357 N 
HETATM   21  C   UNL     1      -0.230   2.958  -3.996  1.00  0.00     0.253 C 
HETATM   22  O   UNL     1      -0.972   3.353  -3.100  1.00  0.00    -0.271 OA
HETATM   23  H   UNL     1       1.686   2.357  -4.496  1.00  0.00     0.162 HD
BRANCH  21  24
HETATM   24  C   UNL     1      -0.667   2.948  -5.501  1.00  0.00     0.314 C 
BRANCH  24  25
HETATM   25  N   UNL     1      -2.163   2.645  -5.737  1.00  0.00    -0.050 N 
HETATM   26  H   UNL     1      -2.288   2.639  -6.758  1.00  0.00     0.281 HD
HETATM   27  C   UNL     1      -2.572   1.266  -5.230  1.00  0.00     0.262 C 
HETATM   28  C   UNL     1      -4.033   0.991  -5.604  1.00  0.00     0.195 C 
HETATM   29  O   UNL     1      -4.888   2.002  -5.066  1.00  0.00    -0.388 OA
HETATM   30  C   UNL     1      -4.576   3.299  -5.588  1.00  0.00     0.195 C 
HETATM   31  C   UNL     1      -3.143   3.703  -5.215  1.00  0.00     0.262 C 
ENDBRANCH  24  25
BRANCH  24  32
HETATM   32  C   UNL     1      -0.219   4.190  -6.237  1.00  0.00    -0.001 A 
HETATM   33  C   UNL     1      -0.141   5.433  -5.611  1.00  0.00     0.126 A 
HETATM   34  N   UNL     1       0.219   6.569  -6.236  1.00  0.00    -0.272 NA
HETATM   35  C   UNL     1       0.515   6.493  -7.551  1.00  0.00     0.116 A 
HETATM   36  C   UNL     1       0.463   5.313  -8.270  1.00  0.00     0.020 A 
HETATM   37  C   UNL     1       0.089   4.147  -7.604  1.00  0.00     0.012 A 
ENDBRANCH  24  32
ENDBRANCH  21  24
ENDBRANCH   1  20
TORSDOF 7
