REMARK  11 active torsions:
REMARK  status: ('A' for Active; 'I' for Inactive)
REMARK    1  A    between atoms: C_3  and  N_4 
REMARK    2  A    between atoms: N_4  and  C_5 
REMARK    3  A    between atoms: C_7  and  C_8 
REMARK    4  A    between atoms: C_18  and  N_19 
REMARK       I    between atoms: N_19  and  C_20 
REMARK    5  A    between atoms: C_20  and  C_21 
REMARK    6  A    between atoms: C_22  and  C_23 
REMARK    7  A    between atoms: C_26  and  O_27 
REMARK    8  A    between atoms: O_27  and  C_28 
REMARK    9  A    between atoms: C_28  and  C_29 
REMARK   10  A    between atoms: C_29  and  C_30 
REMARK   11  A    between atoms: C_30  and  N_31 
ROOT
HETATM    1  C   UNL     1       6.928  -5.981  -1.776  1.00  0.00     0.050 C 
HETATM    2  C   UNL     1       6.952  -4.558  -1.284  1.00  0.00    -0.035 A 
HETATM    3  C   UNL     1       8.086  -3.733  -1.446  1.00  0.00     0.057 A 
HETATM    4  C   UNL     1       8.008  -2.399  -1.008  1.00  0.00     0.060 A 
HETATM    5  C   UNL     1       6.852  -1.877  -0.425  1.00  0.00     0.037 A 
HETATM    6  C   UNL     1       5.738  -2.704  -0.280  1.00  0.00     0.030 A 
HETATM    7  C   UNL     1       5.787  -4.032  -0.702  1.00  0.00     0.011 A 
ENDROOT
BRANCH   5   8
HETATM    8  N   UNL     1       6.724  -0.539   0.003  1.00  0.00    -0.324 N 
HETATM    9  C   UNL     1       7.707   0.429   0.036  1.00  0.00     0.245 C 
HETATM   10  O   UNL     1       8.901   0.294  -0.189  1.00  0.00    -0.268 OA
HETATM   11  H   UNL     1       5.799  -0.276   0.312  1.00  0.00     0.169 HD
BRANCH   9  12
HETATM   12  C   UNL     1       7.145   1.751   0.421  1.00  0.00     0.075 C 
HETATM   13  C   UNL     1       7.926   2.840   0.468  1.00  0.00     0.017 C 
BRANCH  13  14
HETATM   14  C   UNL     1       7.336   4.124   0.833  1.00  0.00    -0.036 A 
HETATM   15  C   UNL     1       7.421   4.585   2.149  1.00  0.00     0.014 A 
HETATM   16  C   UNL     1       6.762   5.758   2.527  1.00  0.00     0.037 A 
HETATM   17  C   UNL     1       5.999   6.456   1.592  1.00  0.00     0.068 A 
HETATM   18  C   UNL     1       5.957   6.028   0.265  1.00  0.00     0.037 A 
HETATM   19  C   UNL     1       6.617   4.860  -0.114  1.00  0.00     0.014 A 
BRANCH  17  20
HETATM   20  O   UNL     1       5.326   7.611   1.867  1.00  0.00    -0.351 OA
BRANCH  20  21
HETATM   21  C   UNL     1       4.565   7.618   3.076  1.00  0.00     0.177 C 
BRANCH  21  22
HETATM   22  C   UNL     1       4.854   8.937   3.789  1.00  0.00     0.054 C 
BRANCH  22  23
HETATM   23  C   UNL     1       4.585  10.117   2.859  1.00  0.00     0.236 C 
BRANCH  23  24
HETATM   24  N   UNL     1       4.825  11.439   3.561  1.00  0.00    -0.079 N 
HETATM   25  H   UNL     1       4.333  11.414   4.464  1.00  0.00     0.278 HD
HETATM   26  C   UNL     1       6.281  11.703   3.847  1.00  0.00     0.269 C 
HETATM   27  C   UNL     1       4.223  12.577   2.776  1.00  0.00     0.269 C 
ENDBRANCH  23  24
ENDBRANCH  22  23
ENDBRANCH  21  22
ENDBRANCH  20  21
ENDBRANCH  17  20
ENDBRANCH  13  14
ENDBRANCH   9  12
ENDBRANCH   5   8
BRANCH   3  28
HETATM   28  N   UNL     1       9.224  -4.226  -2.111  1.00  0.00    -0.188 N 
HETATM   29  H   UNL     1       9.453  -5.194  -1.949  1.00  0.00     0.184 HD
BRANCH  28  30
HETATM   30  C   UNL     1      10.341  -3.580  -2.637  1.00  0.00     0.727 A 
HETATM   31  N   UNL     1      10.291  -2.289  -3.002  1.00  0.00    -0.062 NA
HETATM   32  C   UNL     1      11.398  -1.696  -3.500  1.00  0.00     0.089 A 
HETATM   33  C   UNL     1      12.568  -2.414  -3.646  1.00  0.00     0.053 A 
HETATM   34  C   UNL     1      12.526  -3.737  -3.276  1.00  0.00     0.139 A 
HETATM   35  N   UNL     1      11.433  -4.341  -2.784  1.00  0.00    -0.075 NA
BRANCH  32  36
HETATM   36  C   UNL     1      11.246  -0.269  -3.869  1.00  0.00     0.011 A 
HETATM   37  C   UNL     1      10.064   0.434  -3.598  1.00  0.00     0.130 A 
HETATM   38  N   UNL     1       9.825   1.737  -3.917  1.00  0.00    -0.272 NA
HETATM   39  C   UNL     1      10.819   2.397  -4.537  1.00  0.00     0.116 A 
HETATM   40  C   UNL     1      12.034   1.820  -4.852  1.00  0.00     0.020 A 
HETATM   41  C   UNL     1      12.243   0.480  -4.516  1.00  0.00     0.017 A 
ENDBRANCH  32  36
ENDBRANCH  28  30
ENDBRANCH   3  28
TORSDOF 11
