REMARK  3 active torsions:
REMARK  status: ('A' for Active; 'I' for Inactive)
REMARK    1  A    between atoms: C_5  and  N_6 
REMARK       I    between atoms: N_6  and  C_7 
REMARK    2  A    between atoms: C_7  and  C_8 
REMARK    3  A    between atoms: C_8  and  N_9 
ROOT
HETATM    1  N   UNL     1       5.682  -2.304  -0.599  1.00  0.00    -0.256 N 
HETATM    2  C   UNL     1       4.625  -3.183  -0.550  1.00  0.00     0.330 A 
HETATM    3  O   UNL     1       4.652  -4.389  -0.721  1.00  0.00    -0.246 OA
HETATM    4  N   UNL     1       3.481  -2.439  -0.332  1.00  0.00    -0.303 N 
HETATM    5  C   UNL     1       3.765  -1.097  -0.286  1.00  0.00     0.122 A 
HETATM    6  C   UNL     1       2.847  -0.128  -0.171  1.00  0.00     0.077 A 
HETATM    7  C   UNL     1       1.381  -0.493  -0.167  1.00  0.00     0.259 A 
HETATM    8  O   UNL     1       0.899  -1.611  -0.190  1.00  0.00    -0.267 OA
HETATM    9  N   UNL     1       0.703   0.709  -0.158  1.00  0.00    -0.322 N 
HETATM   10  C   UNL     1       2.915   1.340  -0.113  1.00  0.00     0.009 A 
HETATM   11  C   UNL     1       1.584   1.784  -0.122  1.00  0.00     0.046 A 
HETATM   12  C   UNL     1       1.230   3.119  -0.080  1.00  0.00     0.030 A 
HETATM   13  C   UNL     1       2.262   4.052  -0.010  1.00  0.00     0.002 A 
HETATM   14  C   UNL     1       3.602   3.630   0.024  1.00  0.00     0.001 A 
HETATM   15  C   UNL     1       3.935   2.269  -0.026  1.00  0.00     0.015 A 
HETATM   16  C   UNL     1       5.251  -1.010  -0.453  1.00  0.00     0.280 A 
HETATM   17  O   UNL     1       5.955  -0.016  -0.477  1.00  0.00    -0.265 OA
HETATM   18  H   UNL     1       2.546  -2.837  -0.295  1.00  0.00     0.171 HD
HETATM   19  H   UNL     1      -0.304   0.771  -0.163  1.00  0.00     0.169 HD
ENDROOT
BRANCH   1  20
HETATM   20  C   UNL     1       7.014  -2.682  -1.019  1.00  0.00     0.240 C 
BRANCH  20  21
HETATM   21  C   UNL     1       8.068  -2.582   0.084  1.00  0.00     0.240 C 
HETATM   22  N   UNL     1       8.304  -1.280   0.499  1.00  0.00    -0.326 N 
HETATM   23  H   UNL     1       7.632  -0.573   0.203  1.00  0.00     0.169 HD
HETATM   24  O   UNL     1       8.684  -3.579   0.450  1.00  0.00    -0.271 OA
BRANCH  22  25
HETATM   25  C   UNL     1       9.408  -0.805   1.238  1.00  0.00     0.034 A 
HETATM   26  C   UNL     1       9.412   0.552   1.581  1.00  0.00     0.030 A 
HETATM   27  C   UNL     1      10.507   1.119   2.243  1.00  0.00     0.009 A 
HETATM   28  C   UNL     1      11.625   0.341   2.556  1.00  0.00    -0.062 A 
HETATM   29  C   UNL     1      12.809   0.938   3.257  1.00  0.00     0.048 C 
HETATM   30  C   UNL     1      11.608  -1.021   2.240  1.00  0.00     0.009 A 
HETATM   31  C   UNL     1      10.508  -1.589   1.585  1.00  0.00     0.030 A 
ENDBRANCH  22  25
ENDBRANCH  20  21
ENDBRANCH   1  20
TORSDOF 3
