REMARK  8 active torsions:
REMARK  status: ('A' for Active; 'I' for Inactive)
REMARK    1  A    between atoms: C_4  and  N_5 
REMARK       I    between atoms: N_5  and  C_6 
REMARK    2  A    between atoms: C_6  and  C_7 
REMARK    3  A    between atoms: C_7  and  N_8 
REMARK    4  A    between atoms: N_8  and  C_10 
REMARK    5  A    between atoms: N_8  and  C_13 
REMARK    6  A    between atoms: C_13  and  C_14 
REMARK    7  A    between atoms: C_16  and  C_17 
REMARK    8  A    between atoms: C_27  and  O_28 
ROOT
HETATM    1  N   UNL     1       2.745   2.591   0.695  1.00  0.00    -0.055 N 
HETATM    2  H   UNL     1       3.005   1.693   0.259  1.00  0.00     0.281 HD
ENDROOT
BRANCH   1   3
HETATM    3  C   UNL     1       3.179   3.633  -0.361  1.00  0.00     0.338 C 
BRANCH   3   4
HETATM    4  C   UNL     1       4.685   3.589  -0.632  1.00  0.00     0.248 C 
HETATM    5  N   UNL     1       5.338   4.736  -0.968  1.00  0.00    -0.323 N 
HETATM    6  H   UNL     1       6.340   4.733  -0.780  1.00  0.00     0.169 HD
HETATM    7  O   UNL     1       5.311   2.544  -0.432  1.00  0.00    -0.271 OA
BRANCH   5   8
HETATM    8  C   UNL     1       4.846   5.948  -1.492  1.00  0.00     0.069 A 
HETATM    9  C   UNL     1       3.722   6.006  -2.324  1.00  0.00     0.039 A 
HETATM   10  C   UNL     1       3.305   7.227  -2.869  1.00  0.00    -0.060 A 
HETATM   11  C   UNL     1       2.156   7.284  -3.835  1.00  0.00     0.048 C 
HETATM   12  C   UNL     1       4.036   8.385  -2.586  1.00  0.00     0.009 A 
HETATM   13  C   UNL     1       5.171   8.332  -1.771  1.00  0.00     0.039 A 
HETATM   14  C   UNL     1       5.588   7.117  -1.228  1.00  0.00     0.095 A 
BRANCH  14  15
HETATM   15  O   UNL     1       6.684   6.949  -0.416  1.00  0.00    -0.354 OA
HETATM   16  C   UNL     1       7.375   8.128  -0.014  1.00  0.00     0.210 C 
ENDBRANCH  14  15
ENDBRANCH   5   8
ENDBRANCH   3   4
ENDBRANCH   1   3
BRANCH   1  17
HETATM   17  C   UNL     1       3.595   2.648   1.939  1.00  0.00     0.189 A 
HETATM   18  C   UNL     1       3.623   3.935   2.716  1.00  0.00     0.035 A 
HETATM   19  C   UNL     1       2.993   2.712   3.314  1.00  0.00     0.035 A 
ENDBRANCH   1  17
BRANCH   1  20
HETATM   20  C   UNL     1       1.258   2.548   0.915  1.00  0.00     0.274 C 
BRANCH  20  21
HETATM   21  C   UNL     1       0.449   2.302  -0.331  1.00  0.00    -0.032 A 
HETATM   22  C   UNL     1       0.450   1.037  -0.946  1.00  0.00     0.021 A 
HETATM   23  C   UNL     1      -0.300   0.784  -2.109  1.00  0.00    -0.024 A 
HETATM   24  C   UNL     1      -1.050   1.839  -2.650  1.00  0.00     0.012 A 
HETATM   25  C   UNL     1      -1.060   3.100  -2.051  1.00  0.00     0.001 A 
HETATM   26  C   UNL     1      -0.316   3.331  -0.896  1.00  0.00     0.009 A 
BRANCH  23  27
HETATM   27  C   UNL     1      -0.304  -0.549  -2.732  1.00  0.00    -0.008 A 
HETATM   28  C   UNL     1      -0.532  -1.710  -1.990  1.00  0.00     0.128 A 
HETATM   29  N   UNL     1      -0.525  -2.966  -2.494  1.00  0.00    -0.272 NA
HETATM   30  C   UNL     1      -0.302  -3.087  -3.818  1.00  0.00     0.116 A 
HETATM   31  C   UNL     1      -0.078  -2.009  -4.656  1.00  0.00     0.020 A 
HETATM   32  C   UNL     1      -0.077  -0.729  -4.103  1.00  0.00     0.015 A 
ENDBRANCH  23  27
ENDBRANCH  20  21
ENDBRANCH   1  20
TORSDOF 8
