REMARK  5 active torsions:
REMARK  status: ('A' for Active; 'I' for Inactive)
REMARK    1  A    between atoms: C_5  and  C_6 
REMARK    2  A    between atoms: C_11  and  C_12 
REMARK    3  A    between atoms: C_12  and  N_13 
REMARK    4  A    between atoms: N_13  and  C_15 
REMARK    5  A    between atoms: N_18  and  C_19 
ROOT
HETATM    1  N   UNL     1       5.963  -2.722  -0.711  1.00  0.00    -0.067 N 
HETATM    2  H   UNL     1       6.353  -3.239  -1.512  1.00  0.00     0.280 HD
HETATM    3  C   UNL     1       7.157  -2.209   0.036  1.00  0.00     0.270 C 
ENDROOT
BRANCH   1   4
HETATM    4  C   UNL     1       5.236  -3.824   0.073  1.00  0.00     0.277 C 
BRANCH   4   5
HETATM    5  C   UNL     1       4.937  -5.016  -0.767  1.00  0.00     0.016 A 
HETATM    6  C   UNL     1       5.289  -6.377  -0.498  1.00  0.00     0.096 A 
HETATM    7  N   UNL     1       4.815  -7.190  -1.446  1.00  0.00    -0.174 NA
HETATM    8  N   UNL     1       4.156  -6.401  -2.295  1.00  0.00    -0.288 N 
HETATM    9  H   UNL     1       3.686  -6.834  -3.087  1.00  0.00     0.188 HD
HETATM   10  C   UNL     1       4.209  -5.081  -1.943  1.00  0.00     0.120 A 
BRANCH   6  11
HETATM   11  C   UNL     1       6.029  -6.926   0.632  1.00  0.00    -0.005 A 
HETATM   12  C   UNL     1       7.360  -6.564   0.866  1.00  0.00     0.014 A 
HETATM   13  C   UNL     1       8.058  -7.115   1.946  1.00  0.00     0.007 A 
HETATM   14  C   UNL     1       7.440  -8.045   2.791  1.00  0.00    -0.062 A 
HETATM   15  C   UNL     1       8.185  -8.644   3.949  1.00  0.00     0.048 C 
HETATM   16  C   UNL     1       6.106  -8.398   2.558  1.00  0.00     0.007 A 
HETATM   17  C   UNL     1       5.408  -7.849   1.481  1.00  0.00     0.014 A 
ENDBRANCH   6  11
ENDBRANCH   4   5
ENDBRANCH   1   4
BRANCH   1  18
HETATM   18  C   UNL     1       5.011  -1.674  -1.300  1.00  0.00     0.190 C 
HETATM   19  C   UNL     1       4.483  -0.675  -0.261  1.00  0.00     0.048 C 
HETATM   20  C   UNL     1       5.217   0.662  -0.227  1.00  0.00     0.099 C 
HETATM   21  N   UNL     1       5.365   1.151  -1.600  1.00  0.00    -0.268 NA
HETATM   22  C   UNL     1       6.236   0.306  -2.423  1.00  0.00     0.099 C 
HETATM   23  C   UNL     1       5.580  -1.062  -2.588  1.00  0.00     0.048 C 
BRANCH  21  24
HETATM   24  C   UNL     1       5.620   2.528  -1.707  1.00  0.00     0.109 A 
HETATM   25  N   UNL     1       6.760   2.958  -2.275  1.00  0.00    -0.224 NA
HETATM   26  C   UNL     1       6.931   4.295  -2.430  1.00  0.00     0.102 A 
HETATM   27  C   UNL     1       8.184   4.788  -3.083  1.00  0.00     0.091 C 
HETATM   28  N   UNL     1       6.020   5.202  -2.052  1.00  0.00    -0.348 N 
HETATM   29  H   UNL     1       6.205   6.191  -2.213  1.00  0.00     0.167 HD
HETATM   30  C   UNL     1       4.872   4.804  -1.483  1.00  0.00     0.009 A 
HETATM   31  C   UNL     1       3.858   5.831  -1.094  1.00  0.00     0.068 C 
HETATM   32  C   UNL     1       4.651   3.438  -1.297  1.00  0.00     0.069 A 
ENDBRANCH  21  24
ENDBRANCH   1  18
TORSDOF 5
