REMARK  6 active torsions:
REMARK  status: ('A' for Active; 'I' for Inactive)
REMARK    1  A    between atoms: C_2  and  C_3 
REMARK    2  A    between atoms: C_3  and  N_4 
REMARK    3  A    between atoms: C_3  and  C_15 
REMARK       I    between atoms: N_4  and  C_5 
REMARK       I    between atoms: C_5  and  N_6 
REMARK    4  A    between atoms: N_6  and  C_7 
REMARK    5  A    between atoms: C_16  and  O_17 
REMARK    6  A    between atoms: O_17  and  C_18 
ROOT
HETATM    1  N   UNL     1       2.587   0.763   2.267  1.00  0.00    -0.334 N 
HETATM    2  C   UNL     1       1.451   0.013   2.345  1.00  0.00     0.321 C 
HETATM    3  N   UNL     1       1.183  -0.732   1.230  1.00  0.00    -0.307 N 
HETATM    4  O   UNL     1       0.803   0.023   3.386  1.00  0.00    -0.247 OA
HETATM    5  H   UNL     1       2.783   1.263   3.123  1.00  0.00     0.165 HD
HETATM    6  H   UNL     1       2.032  -1.119   0.835  1.00  0.00     0.170 HD
ENDROOT
BRANCH   1   7
HETATM    7  C   UNL     1       3.260   1.235   1.056  1.00  0.00     0.122 C 
BRANCH   7   8
HETATM    8  C   UNL     1       2.636   2.578   0.604  1.00  0.00     0.026 C 
HETATM    9  C   UNL     1       2.501   3.638   1.696  1.00  0.00     0.007 C 
ENDBRANCH   7   8
BRANCH   7  10
HETATM   10  C   UNL     1       4.775   1.164   1.222  1.00  0.00    -0.002 A 
HETATM   11  C   UNL     1       5.393  -0.086   1.460  1.00  0.00     0.077 A 
HETATM   12  C   UNL     1       6.786  -0.182   1.571  1.00  0.00     0.037 A 
HETATM   13  C   UNL     1       7.581   0.957   1.466  1.00  0.00     0.003 A 
HETATM   14  C   UNL     1       6.991   2.192   1.231  1.00  0.00     0.001 A 
HETATM   15  C   UNL     1       5.603   2.294   1.103  1.00  0.00     0.012 A 
BRANCH  11  16
HETATM   16  O   UNL     1       4.575  -1.192   1.502  1.00  0.00    -0.351 OA
BRANCH  16  17
HETATM   17  C   UNL     1       4.990  -2.220   2.407  1.00  0.00     0.171 C 
HETATM   18  C   UNL     1       3.790  -3.100   2.707  1.00  0.00     0.034 C 
ENDBRANCH  16  17
ENDBRANCH  11  16
ENDBRANCH   7  10
ENDBRANCH   1   7
BRANCH   3  19
HETATM   19  C   UNL     1      -0.007  -1.439   0.950  1.00  0.00     0.059 A 
HETATM   20  C   UNL     1      -1.307  -1.018   1.269  1.00  0.00    -0.032 A 
HETATM   21  C   UNL     1      -1.642   0.287   1.934  1.00  0.00     0.050 C 
HETATM   22  C   UNL     1      -2.380  -1.859   0.924  1.00  0.00     0.028 A 
HETATM   23  C   UNL     1      -2.135  -3.036   0.234  1.00  0.00     0.117 A 
HETATM   24  N   UNL     1      -0.907  -3.438  -0.139  1.00  0.00    -0.271 NA
HETATM   25  C   UNL     1       0.118  -2.631   0.227  1.00  0.00     0.146 A 
ENDBRANCH   3  19
TORSDOF 6
