REMARK  3 active torsions:
REMARK  status: ('A' for Active; 'I' for Inactive)
REMARK       I    between atoms: C_2  and  N_3 
REMARK    1  A    between atoms: N_3  and  N_4 
REMARK       I    between atoms: N_4  and  C_5 
REMARK    2  A    between atoms: C_5  and  C_6 
REMARK    3  A    between atoms: C_11  and  C_12 
ROOT
HETATM    1  C   UNL     1       4.752   0.169  -3.618  1.00  0.00     0.115 A 
HETATM    2  N   UNL     1       5.643  -0.882  -3.715  1.00  0.00    -0.350 N 
HETATM    3  H   UNL     1       5.379  -1.858  -3.715  1.00  0.00     0.166 HD
HETATM    4  C   UNL     1       6.942  -0.441  -3.755  1.00  0.00     0.044 A 
HETATM    5  C   UNL     1       6.902   0.948  -3.667  1.00  0.00     0.006 A 
HETATM    6  C   UNL     1       5.522   1.328  -3.568  1.00  0.00     0.019 A 
HETATM    7  C   UNL     1       8.136  -1.166  -3.854  1.00  0.00     0.032 A 
HETATM    8  C   UNL     1       9.331  -0.441  -3.872  1.00  0.00     0.026 A 
HETATM    9  C   UNL     1       9.321   0.949  -3.795  1.00  0.00     0.035 A 
HETATM   10 CL   UNL     1      10.812   1.810  -3.821  1.00  0.00    -0.084 Cl
HETATM   11  C   UNL     1       8.121   1.658  -3.695  1.00  0.00     0.038 A 
ENDROOT
BRANCH   1  12
HETATM   12  C   UNL     1       3.316  -0.012  -3.526  1.00  0.00     0.287 C 
HETATM   13  N   UNL     1       2.851  -1.172  -4.127  1.00  0.00    -0.262 N 
HETATM   14  H   UNL     1       3.389  -1.645  -4.851  1.00  0.00     0.190 HD
HETATM   15  O   UNL     1       2.538   0.768  -2.981  1.00  0.00    -0.264 OA
BRANCH  13  16
HETATM   16  N   UNL     1       1.461  -1.358  -4.211  1.00  0.00    -0.268 N 
HETATM   17  C   UNL     1       0.988  -2.111  -5.263  1.00  0.00     0.232 C 
HETATM   18  C   UNL     1      -0.509  -2.151  -5.382  1.00  0.00     0.119 C 
HETATM   19  O   UNL     1       1.734  -2.721  -6.027  1.00  0.00    -0.272 OA
HETATM   20  H   UNL     1       0.890  -0.663  -3.728  1.00  0.00     0.190 HD
ENDBRANCH  13  16
ENDBRANCH   1  12
BRANCH   6  21
HETATM   21  C   UNL     1       4.985   2.676  -3.445  1.00  0.00    -0.023 A 
HETATM   22  C   UNL     1       4.111   3.193  -4.408  1.00  0.00     0.012 A 
HETATM   23  C   UNL     1       3.631   4.500  -4.294  1.00  0.00     0.001 A 
HETATM   24  C   UNL     1       4.030   5.300  -3.224  1.00  0.00     0.000 A 
HETATM   25  C   UNL     1       4.905   4.795  -2.264  1.00  0.00     0.001 A 
HETATM   26  C   UNL     1       5.382   3.487  -2.374  1.00  0.00     0.012 A 
ENDBRANCH   6  21
TORSDOF 3
