REMARK  4 active torsions:
REMARK  status: ('A' for Active; 'I' for Inactive)
REMARK    1  A    between atoms: O_2  and  C_3 
REMARK    2  A    between atoms: C_5  and  C_6 
REMARK    3  A    between atoms: C_10  and  N_11 
REMARK    4  A    between atoms: C_14  and  C_15 
ROOT
HETATM    1  C   UNL     1       2.661   5.003   0.314  1.00  0.00     0.164 C 
HETATM    2  N   UNL     1       3.534   6.165   0.181  1.00  0.00    -0.074 N 
HETATM    3  C   UNL     1       3.203   7.308  -0.493  1.00  0.00     0.736 A 
HETATM    4  N   UNL     1       4.195   8.156  -0.398  1.00  0.00     0.131 NA
HETATM    5  C   UNL     1       5.139   7.452   0.291  1.00  0.00     0.753 A 
HETATM    6  N   UNL     1       4.783   6.228   0.676  1.00  0.00     0.037 NA
HETATM    7  N   UNL     1       2.023   7.436  -1.125  1.00  0.00    -0.214 N 
HETATM    8  C   UNL     1       1.021   6.381  -1.114  1.00  0.00     0.135 C 
HETATM    9  C   UNL     1       1.683   5.003  -0.882  1.00  0.00     0.063 C 
HETATM   10  H   UNL     1       1.765   8.332  -1.527  1.00  0.00     0.178 HD
ENDROOT
BRANCH   1  11
HETATM   11  C   UNL     1       1.978   4.889   1.678  1.00  0.00    -0.030 A 
HETATM   12  C   UNL     1       2.152   5.834   2.711  1.00  0.00     0.046 A 
HETATM   13  C   UNL     1       1.489   5.704   3.935  1.00  0.00     0.068 A 
HETATM   14  C   UNL     1       0.645   4.615   4.143  1.00  0.00     0.037 A 
HETATM   15  C   UNL     1       0.477   3.653   3.151  1.00  0.00     0.003 A 
HETATM   16  C   UNL     1       1.145   3.784   1.934  1.00  0.00     0.009 A 
BRANCH  13  17
HETATM   17  O   UNL     1       1.577   6.569   4.992  1.00  0.00    -0.356 OA
HETATM   18  C   UNL     1       2.487   7.654   4.861  1.00  0.00     0.210 C 
ENDBRANCH  13  17
ENDBRANCH   1  11
BRANCH   8  19
HETATM   19  C   UNL     1      -0.138   6.670  -0.171  1.00  0.00    -0.035 A 
HETATM   20  C   UNL     1      -0.087   7.658   0.826  1.00  0.00     0.010 A 
HETATM   21  C   UNL     1      -1.160   7.853   1.700  1.00  0.00     0.019 A 
HETATM   22  C   UNL     1      -2.304   7.070   1.579  1.00  0.00     0.011 A 
HETATM   23 BR   UNL     1      -3.750   7.325   2.769  1.00  0.00    -0.051 Br
HETATM   24  C   UNL     1      -2.389   6.100   0.586  1.00  0.00     0.019 A 
HETATM   25  C   UNL     1      -1.313   5.903  -0.284  1.00  0.00     0.010 A 
ENDBRANCH   8  19
BRANCH   5  26
HETATM   26  N   UNL     1       6.304   8.034   0.550  1.00  0.00    -0.229 N 
HETATM   27  H   UNL     1       6.348   9.040   0.460  1.00  0.00     0.174 HD
HETATM   28  H   UNL     1       6.868   7.638   1.289  1.00  0.00     0.174 HD
ENDBRANCH   5  26
TORSDOF 4
