REMARK  6 active torsions:
REMARK  status: ('A' for Active; 'I' for Inactive)
REMARK    1  A    between atoms: C_2  and  N_3 
REMARK    2  A    between atoms: N_3  and  C_5 
REMARK    3  A    between atoms: N_3  and  C_17 
REMARK    4  A    between atoms: C_5  and  C_6 
REMARK       I    between atoms: C_6  and  N_7 
REMARK    5  A    between atoms: N_7  and  C_8 
REMARK    6  A    between atoms: C_17  and  C_18 
ROOT
HETATM    1  N   UNL     1       2.662  -1.233   0.968  1.00  0.00    -0.059 N 
HETATM    2  H   UNL     1       2.289  -0.453   1.523  1.00  0.00     0.280 HD
ENDROOT
BRANCH   1   3
HETATM    3  C   UNL     1       2.069  -1.120  -0.431  1.00  0.00     0.231 C 
HETATM    4  C   UNL     1       0.568  -0.916  -0.376  1.00  0.00     0.034 C 
ENDBRANCH   1   3
BRANCH   1   5
HETATM    5  C   UNL     1       2.222  -2.500   1.727  1.00  0.00     0.337 C 
BRANCH   5   6
HETATM    6  C   UNL     1       2.490  -3.813   0.987  1.00  0.00     0.248 C 
HETATM    7  N   UNL     1       3.630  -4.480   1.404  1.00  0.00    -0.325 N 
HETATM    8  H   UNL     1       4.324  -3.968   1.927  1.00  0.00     0.169 HD
HETATM    9  O   UNL     1       1.778  -4.129   0.038  1.00  0.00    -0.271 OA
BRANCH   7  10
HETATM   10  C   UNL     1       4.108  -5.669   0.797  1.00  0.00     0.046 A 
HETATM   11  C   UNL     1       5.479  -5.724   0.448  1.00  0.00    -0.035 A 
HETATM   12  C   UNL     1       6.411  -4.555   0.629  1.00  0.00     0.050 C 
HETATM   13  C   UNL     1       5.991  -6.886  -0.149  1.00  0.00     0.009 A 
HETATM   14  C   UNL     1       5.170  -7.981  -0.393  1.00  0.00     0.001 A 
HETATM   15  C   UNL     1       3.829  -7.935  -0.024  1.00  0.00     0.009 A 
HETATM   16  C   UNL     1       3.285  -6.797   0.597  1.00  0.00    -0.035 A 
HETATM   17  C   UNL     1       1.852  -6.891   1.050  1.00  0.00     0.050 C 
ENDBRANCH   7  10
ENDBRANCH   5   6
ENDBRANCH   1   5
BRANCH   1  18
HETATM   18  C   UNL     1       4.167  -1.058   0.942  1.00  0.00     0.276 C 
BRANCH  18  19
HETATM   19  C   UNL     1       4.675   0.320   1.287  1.00  0.00    -0.003 A 
HETATM   20  C   UNL     1       5.936   0.531   1.894  1.00  0.00     0.069 A 
HETATM   21  C   UNL     1       6.444   1.793   2.200  1.00  0.00     0.012 A 
HETATM   22  N   UNL     1       6.927  -0.336   2.299  1.00  0.00    -0.277 N 
HETATM   23  C   UNL     1       7.705   1.551   2.788  1.00  0.00     0.152 A 
HETATM   24  C   UNL     1       5.693   2.936   1.894  1.00  0.00     0.015 A 
HETATM   25  N   UNL     1       7.990   0.251   2.857  1.00  0.00    -0.186 NA
HETATM   26  C   UNL     1       4.455   2.775   1.276  1.00  0.00     0.002 A 
HETATM   27  C   UNL     1       3.964   1.501   0.975  1.00  0.00     0.011 A 
HETATM   28  H   UNL     1       6.954  -1.346   2.230  1.00  0.00     0.189 HD
ENDBRANCH  18  19
ENDBRANCH   1  18
TORSDOF 6
