REMARK  8 active torsions:
REMARK  status: ('A' for Active; 'I' for Inactive)
REMARK    1  A    between atoms: C_4  and  O_5 
REMARK    2  A    between atoms: O_5  and  C_6 
REMARK    3  A    between atoms: C_6  and  C_7 
REMARK       I    between atoms: C_7  and  N_8 
REMARK    4  A    between atoms: N_8  and  N_9 
REMARK       I    between atoms: N_9  and  C_10 
REMARK    5  A    between atoms: C_10  and  C_11 
REMARK    6  A    between atoms: C_11  and  C_12 
REMARK    7  A    between atoms: C_12  and  N_13 
REMARK    8  A    between atoms: C_12  and  C_17 
REMARK       I    between atoms: N_13  and  C_14 
REMARK       I    between atoms: C_14  and  N_15 
ROOT
HETATM    1  N   UNL     1       7.373   3.052  -2.675  1.00  0.00    -0.267 N 
HETATM    2  C   UNL     1       8.059   3.176  -1.482  1.00  0.00     0.238 C 
HETATM    3  O   UNL     1       7.714   2.620  -0.439  1.00  0.00    -0.272 OA
HETATM    4  H   UNL     1       7.812   3.246  -3.570  1.00  0.00     0.190 HD
ENDROOT
BRANCH   2   5
HETATM    5  C   UNL     1       9.281   4.065  -1.553  1.00  0.00     0.134 C 
BRANCH   5   6
HETATM    6  C   UNL     1       8.911   5.552  -1.706  1.00  0.00     0.129 C 
BRANCH   6   7
HETATM    7  N   UNL     1       8.242   6.052  -0.511  1.00  0.00    -0.339 N 
HETATM    8  C   UNL     1       6.886   6.051  -0.399  1.00  0.00     0.292 C 
HETATM    9  N   UNL     1       6.466   6.581   0.776  1.00  0.00    -0.254 NA
HETATM   10  O   UNL     1       6.098   5.630  -1.232  1.00  0.00    -0.254 OA
HETATM   11  H   UNL     1       7.015   6.344   1.589  1.00  0.00     0.128 HD
HETATM   12  H   UNL     1       5.467   6.478   0.911  1.00  0.00     0.128 HD
HETATM   13  H   UNL     1       8.729   6.722   0.068  1.00  0.00     0.164 HD
ENDBRANCH   6   7
BRANCH   6  14
HETATM   14  C   UNL     1      10.108   6.454  -2.007  1.00  0.00    -0.013 A 
HETATM   15  C   UNL     1       9.976   7.612  -2.801  1.00  0.00     0.042 A 
HETATM   16 CL   UNL     1       8.472   8.079  -3.516  1.00  0.00    -0.084 Cl
HETATM   17  C   UNL     1      11.069   8.456  -3.031  1.00  0.00     0.024 A 
HETATM   18  C   UNL     1      12.311   8.169  -2.472  1.00  0.00     0.002 A 
HETATM   19  C   UNL     1      12.461   7.041  -1.672  1.00  0.00     0.001 A 
HETATM   20  C   UNL     1      11.371   6.198  -1.435  1.00  0.00     0.011 A 
ENDBRANCH   6  14
ENDBRANCH   5   6
ENDBRANCH   2   5
BRANCH   1  21
HETATM   21  N   UNL     1       6.273   2.186  -2.707  1.00  0.00    -0.266 N 
HETATM   22  C   UNL     1       6.440   0.949  -3.304  1.00  0.00     0.260 C 
HETATM   23  O   UNL     1       7.425   0.658  -3.983  1.00  0.00    -0.269 OA
HETATM   24  H   UNL     1       5.588   2.320  -1.965  1.00  0.00     0.190 HD
BRANCH  22  25
HETATM   25  C   UNL     1       5.298  -0.020  -3.035  1.00  0.00     0.280 C 
BRANCH  25  26
HETATM   26  O   UNL     1       4.137   0.459  -3.708  1.00  0.00    -0.342 OA
BRANCH  26  27
HETATM   27  C   UNL     1       3.128  -0.453  -3.849  1.00  0.00     0.069 A 
HETATM   28  C   UNL     1       2.820  -1.451  -2.922  1.00  0.00     0.043 A 
HETATM   29  C   UNL     1       1.750  -2.330  -3.155  1.00  0.00    -0.059 A 
HETATM   30  C   UNL     1       1.387  -3.380  -2.146  1.00  0.00     0.048 C 
HETATM   31  C   UNL     1       0.980  -2.179  -4.315  1.00  0.00     0.007 A 
HETATM   32  C   UNL     1       1.278  -1.172  -5.232  1.00  0.00     0.003 A 
HETATM   33  C   UNL     1       2.345  -0.307  -4.994  1.00  0.00     0.037 A 
ENDBRANCH  26  27
ENDBRANCH  25  26
ENDBRANCH  22  25
ENDBRANCH   1  21
TORSDOF 8
