REMARK  10 active torsions:
REMARK  status: ('A' for Active; 'I' for Inactive)
REMARK    1  A    between atoms: C_1  and  C_8 
REMARK    2  A    between atoms: C_1  and  S_9 
REMARK    3  A    between atoms: C_3  and  C_24 
REMARK    4  A    between atoms: C_7  and  C_8 
REMARK    5  A    between atoms: S_9  and  C_10 
REMARK    6  A    between atoms: C_10  and  S_11 
REMARK    7  A    between atoms: S_11  and  C_12 
REMARK    8  A    between atoms: C_12  and  C_13 
REMARK    9  A    between atoms: C_13  and  C_14 
REMARK   10  A    between atoms: C_18  and  C_19 
ROOT
HETATM    1  C           1       0.283   2.562  -0.065  0.00  0.00     0.092 C 
HETATM    2  C           1      -0.909   0.510  -0.412  0.00  0.00     0.156 C 
HETATM    3  N           1      -0.807   1.903   0.222  0.00  0.00    -0.350 N 
HETATM    4  N           1       0.578   3.699   0.408  0.00  0.00    -0.388 N 
HETATM    5  C           1       1.146   1.748  -0.993  0.00  0.00     0.127 C 
HETATM    6  C           1       0.170   0.669  -1.545  0.00  0.00     0.136 C 
HETATM    7  C           1      -0.467   1.185  -2.796  0.00  0.00     0.079 C 
HETATM    8  N           1      -0.853   1.636  -3.792  0.00  0.00    -0.196 NA
HETATM    9  C           1       2.458   1.074  -0.410  0.00  0.00     0.248 C 
HETATM   10  N           1       3.235   0.291  -1.505  0.00  0.00    -0.040 N 
HETATM   11  C           1       2.305  -0.696  -2.025  0.00  0.00     0.105 C 
HETATM   12  C           1       2.941  -1.957  -2.554  0.00  0.00     0.075 C 
HETATM   13  C           1       0.961  -0.551  -2.001  0.00  0.00     0.036 C 
HETATM   14  H           1      -1.528   2.280   0.852  0.00  0.00     0.163 HD
HETATM   15  H           1       1.507   4.141   0.192  0.00  0.00     0.157 HD
HETATM   16  H           1      -0.082   4.201   1.051  0.00  0.00     0.157 HD
HETATM   17  H           1       4.021  -0.214  -1.035  0.00  0.00     0.284 HD
HETATM   18  H           1       3.640   0.879  -2.260  0.00  0.00     0.284 HD
ENDROOT
BRANCH   2  19
HETATM   19  S           1      -2.608   0.317  -1.042  0.00  0.00    -0.125 SA
BRANCH  19  20
HETATM   20  C           1      -2.677  -1.437  -1.515  0.00  0.00     0.077 C 
BRANCH  20  21
HETATM   21  C           1      -4.075  -1.746  -2.075  0.00  0.00     0.010 C 
BRANCH  21  22
HETATM   22  C           1      -4.203  -3.221  -2.492  0.00  0.00    -0.004 C 
HETATM   23  C           1      -5.597  -3.538  -3.049  0.00  0.00     0.005 C 
ENDBRANCH  21  22
ENDBRANCH  20  21
ENDBRANCH  19  20
ENDBRANCH   2  19
BRANCH   2  24
HETATM   24  S           1      -0.331  -0.728   0.798  0.00  0.00    -0.125 SA
BRANCH  24  25
HETATM   25  C           1      -1.498  -0.435   2.164  0.00  0.00     0.077 C 
BRANCH  25  26
HETATM   26  C           1      -1.269  -1.504   3.245  0.00  0.00     0.010 C 
BRANCH  26  27
HETATM   27  C           1      -2.229  -1.323   4.433  0.00  0.00    -0.004 C 
HETATM   28  C           1      -2.010  -2.391   5.513  0.00  0.00     0.005 C 
ENDBRANCH  26  27
ENDBRANCH  25  26
ENDBRANCH  24  25
ENDBRANCH   2  24
BRANCH   5  29
HETATM   29  C           1       1.797   2.450  -2.124  0.00  0.00     0.105 C 
HETATM   30  N           1       2.714   2.275  -2.810  0.00  0.00    -0.151 N 
ENDBRANCH   5  29
BRANCH   9  31
HETATM   31  C           1       3.363   2.062   0.313  0.00  0.00    -0.026 A 
HETATM   32  C           1       3.055   2.451   1.566  0.00  0.00     0.009 A 
HETATM   33  C           1       3.820   3.325   2.237  0.00  0.00     0.001 A 
HETATM   34  C           1       4.924   3.826   1.664  0.00  0.00     0.000 A 
HETATM   35  C           1       5.255   3.440   0.424  0.00  0.00     0.001 A 
HETATM   36  C           1       4.482   2.565  -0.240  0.00  0.00     0.009 A 
ENDBRANCH   9  31
TORSDOF 10
