REMARK  7 active torsions:
REMARK  status: ('A' for Active; 'I' for Inactive)
REMARK    1  A    between atoms: O_2  and  C_3 
REMARK    2  A    between atoms: C_4  and  O_5 
REMARK    3  A    between atoms: C_9  and  C_10 
REMARK    4  A    between atoms: C_10  and  N_11 
REMARK    5  A    between atoms: C_14  and  C_15 
REMARK    6  A    between atoms: C_15  and  N_16 
REMARK    7  A    between atoms: N_16  and  C_17 
ROOT
HETATM    1  N   UNL     1       3.097  -4.581  -2.517  1.00  0.00    -0.067 N 
HETATM    2  H   UNL     1       3.212  -4.406  -1.507  1.00  0.00     0.280 HD
HETATM    3  C   UNL     1       3.525  -6.015  -2.771  1.00  0.00     0.241 C 
HETATM    4  C   UNL     1       2.335  -6.655  -3.485  1.00  0.00     0.031 C 
HETATM    5  C   UNL     1       1.151  -5.926  -2.859  1.00  0.00     0.035 C 
HETATM    6  C   UNL     1       1.620  -4.480  -2.826  1.00  0.00     0.235 C 
ENDROOT
BRANCH   1   7
HETATM    7  C   UNL     1       3.925  -3.521  -3.209  1.00  0.00     0.273 C 
BRANCH   7   8
HETATM    8  C   UNL     1       5.346  -3.474  -2.713  1.00  0.00    -0.028 A 
HETATM    9  C   UNL     1       5.624  -3.013  -1.415  1.00  0.00     0.031 A 
HETATM   10  C   UNL     1       6.935  -3.007  -0.932  1.00  0.00     0.047 A 
HETATM   11  C   UNL     1       7.974  -3.455  -1.745  1.00  0.00     0.116 A 
HETATM   12 BR   UNL     1       7.240  -2.393   0.833  1.00  0.00    -0.048 Br
HETATM   13  C   UNL     1       7.723  -3.899  -3.049  1.00  0.00     0.103 A 
HETATM   14  C   UNL     1       6.410  -3.907  -3.529  1.00  0.00     0.048 A 
BRANCH  11  15
HETATM   15  O   UNL     1       9.260  -3.464  -1.274  1.00  0.00    -0.357 OA
HETATM   16  H   UNL     1       9.830  -3.755  -2.013  1.00  0.00     0.218 HD
ENDBRANCH  11  15
BRANCH  13  17
HETATM   17  O   UNL     1       8.831  -4.313  -3.739  1.00  0.00    -0.353 OA
HETATM   18  C   UNL     1       8.673  -4.630  -5.117  1.00  0.00     0.210 C 
ENDBRANCH  13  17
ENDBRANCH   7   8
ENDBRANCH   1   7
BRANCH   4  19
HETATM   19  C   UNL     1       2.312  -8.179  -3.320  1.00  0.00     0.127 C 
BRANCH  19  20
HETATM   20  N   UNL     1       1.333  -8.793  -4.216  1.00  0.00    -0.376 N 
HETATM   21  H   UNL     1       0.565  -8.211  -4.529  1.00  0.00     0.161 HD
BRANCH  20  22
HETATM   22  C   UNL     1       1.228 -10.165  -4.349  1.00  0.00     0.100 A 
HETATM   23  N   UNL     1       0.206 -10.656  -5.076  1.00  0.00    -0.353 N 
HETATM   24  H   UNL     1      -0.444  -9.998  -5.492  1.00  0.00     0.166 HD
HETATM   25  C   UNL     1       0.006 -11.965  -5.299  1.00  0.00     0.089 A 
HETATM   26  C   UNL     1       0.879 -12.902  -4.774  1.00  0.00     0.017 A 
HETATM   27  C   UNL     1       1.957 -12.458  -4.025  1.00  0.00     0.005 A 
HETATM   28  C   UNL     1       2.136 -11.090  -3.815  1.00  0.00     0.048 A 
ENDBRANCH  20  22
ENDBRANCH  19  20
ENDBRANCH   4  19
TORSDOF 7
