REMARK  5 active torsions:
REMARK  status: ('A' for Active; 'I' for Inactive)
REMARK    1  A    between atoms: C_5  and  C_6 
REMARK    2  A    between atoms: C_11  and  C_12 
REMARK       I    between atoms: C_12  and  N_13 
REMARK    3  A    between atoms: N_13  and  C_14 
REMARK    4  A    between atoms: C_16  and  O_17 
REMARK    5  A    between atoms: C_23  and  C_24 
ROOT
HETATM    1  C   UNL     1       7.140   0.437  -0.808  1.00  0.00     0.118 C 
HETATM    2  N   UNL     1       7.142  -0.877  -1.459  1.00  0.00    -0.366 N 
HETATM    3  C   UNL     1       7.498  -1.038  -2.750  1.00  0.00     0.123 A 
HETATM    4  N   UNL     1       7.542   0.026  -3.604  1.00  0.00    -0.240 N 
HETATM    5  N   UNL     1       8.063  -0.259  -4.811  1.00  0.00    -0.165 NA
HETATM    6  C   UNL     1       8.267  -1.598  -4.750  1.00  0.00     0.148 A 
HETATM    7  C   UNL     1       7.885  -2.125  -3.484  1.00  0.00     0.089 A 
HETATM    8  C   UNL     1       7.238   1.379  -3.186  1.00  0.00     0.221 C 
HETATM    9  C   UNL     1       7.687   1.550  -1.729  1.00  0.00     0.066 C 
HETATM   10  H   UNL     1       7.129  -1.671  -0.818  1.00  0.00     0.161 HD
ENDROOT
BRANCH   6  11
HETATM   11  C   UNL     1       8.870  -2.347  -5.869  1.00  0.00     0.276 C 
HETATM   12  N   UNL     1       9.208  -1.514  -6.916  1.00  0.00    -0.322 N 
HETATM   13  H   UNL     1       8.951  -0.542  -6.756  1.00  0.00     0.169 HD
HETATM   14  O   UNL     1       9.047  -3.559  -5.807  1.00  0.00    -0.266 OA
BRANCH  12  15
HETATM   15  C   UNL     1       9.878  -1.834  -8.109  1.00  0.00     0.037 A 
HETATM   16  C   UNL     1      10.323  -3.119  -8.428  1.00  0.00     0.066 A 
HETATM   17  C   UNL     1      10.997  -3.340  -9.628  1.00  0.00     0.067 A 
HETATM   18  C   UNL     1      11.235  -2.302 -10.520  1.00  0.00     0.036 A 
HETATM   19  C   UNL     1      10.793  -1.019 -10.209  1.00  0.00     0.005 A 
HETATM   20  C   UNL     1      10.117  -0.787  -9.008  1.00  0.00     0.029 A 
BRANCH  17  21
HETATM   21  O   UNL     1      11.450  -4.582  -9.967  1.00  0.00    -0.361 OA
HETATM   22  H   UNL     1      11.209  -5.200  -9.255  1.00  0.00     0.217 HD
ENDBRANCH  17  21
ENDBRANCH  12  15
ENDBRANCH   6  11
BRANCH   8  23
HETATM   23  C   UNL     1       5.770   1.673  -3.388  1.00  0.00     0.409 C 
HETATM   24  F   UNL     1       5.402   1.577  -4.685  1.00  0.00    -0.169 F 
HETATM   25  F   UNL     1       4.950   0.882  -2.667  1.00  0.00    -0.169 F 
HETATM   26  F   UNL     1       5.505   2.951  -3.007  1.00  0.00    -0.169 F 
ENDBRANCH   8  23
BRANCH   1  27
HETATM   27  C   UNL     1       7.962   0.368   0.469  1.00  0.00    -0.035 A 
HETATM   28  C   UNL     1       9.242  -0.214   0.475  1.00  0.00     0.010 A 
HETATM   29  C   UNL     1      10.007  -0.255   1.642  1.00  0.00     0.007 A 
HETATM   30  C   UNL     1       9.508   0.281   2.832  1.00  0.00    -0.062 A 
HETATM   31  C   UNL     1      10.345   0.272   4.077  1.00  0.00     0.048 C 
HETATM   32  C   UNL     1       8.243   0.879   2.830  1.00  0.00     0.007 A 
HETATM   33  C   UNL     1       7.475   0.919   1.662  1.00  0.00     0.010 A 
ENDBRANCH   1  27
TORSDOF 5
