REMARK  9 active torsions:
REMARK  status: ('A' for Active; 'I' for Inactive)
REMARK    1  A    between atoms: C_2  and  N_3 
REMARK    2  A    between atoms: C_4  and  S_5 
REMARK    3  A    between atoms: S_5  and  C_6 
REMARK    4  A    between atoms: C_6  and  C_7 
REMARK       I    between atoms: C_7  and  N_8 
REMARK    5  A    between atoms: N_8  and  C_9 
REMARK    6  A    between atoms: C_12  and  O_13 
REMARK    7  A    between atoms: C_19  and  C_20 
REMARK    8  A    between atoms: C_23  and  S_24 
REMARK    9  A    between atoms: S_24  and  N_25 
ROOT
HETATM    1  N   UNL     1       2.568  -0.602  -1.320  1.00  0.00    -0.308 N 
HETATM    2  C   UNL     1       3.033   0.070  -2.420  1.00  0.00     0.192 A 
HETATM    3  N   UNL     1       3.617  -0.768  -3.242  1.00  0.00    -0.122 NA
HETATM    4  N   UNL     1       3.497  -2.023  -2.710  1.00  0.00    -0.128 NA
HETATM    5  C   UNL     1       2.845  -1.935  -1.562  1.00  0.00     0.164 A 
ENDROOT
BRANCH   5   6
HETATM    6  C   UNL     1       2.551  -3.075  -0.695  1.00  0.00     0.012 A 
HETATM    7  C   UNL     1       3.580  -3.977  -0.384  1.00  0.00     0.017 A 
HETATM    8  C   UNL     1       3.337  -5.089   0.425  1.00  0.00     0.026 A 
HETATM    9  C   UNL     1       2.048  -5.312   0.914  1.00  0.00     0.074 A 
HETATM   10  C   UNL     1       1.005  -4.439   0.598  1.00  0.00     0.026 A 
HETATM   11  C   UNL     1       1.260  -3.326  -0.210  1.00  0.00     0.017 A 
BRANCH   9  12
HETATM   12  S   UNL     1       1.738  -6.728   1.926  1.00  0.00     0.243 S 
HETATM   13  O   UNL     1       2.460  -6.562   3.165  1.00  0.00    -0.206 OA
HETATM   14  O   UNL     1       0.322  -7.026   1.912  1.00  0.00    -0.206 OA
BRANCH  12  15
HETATM   15  N   UNL     1       2.477  -8.014   1.065  1.00  0.00    -0.203 NA
HETATM   16  C   UNL     1       1.812  -8.419  -0.214  1.00  0.00     0.135 C 
HETATM   17  C   UNL     1       0.601  -9.353   0.006  1.00  0.00     0.250 C 
HETATM   18  N   UNL     1       0.965 -10.529   0.909  1.00  0.00    -0.073 N 
HETATM   19  H   UNL     1       1.668 -11.092   0.413  1.00  0.00     0.279 HD
HETATM   20  C   UNL     1      -0.218 -11.421   1.161  1.00  0.00     0.269 C 
HETATM   21  C   UNL     1       1.598 -10.060   2.218  1.00  0.00     0.250 C 
HETATM   22  C   UNL     1       2.830  -9.194   1.914  1.00  0.00     0.135 C 
ENDBRANCH  12  15
ENDBRANCH   9  12
ENDBRANCH   5   6
BRANCH   1  23
HETATM   23  C   UNL     1       2.058  -0.019  -0.094  1.00  0.00     0.128 C 
HETATM   24  C   UNL     1       0.599   0.399  -0.172  1.00  0.00     0.027 C 
ENDBRANCH   1  23
BRANCH   2  25
HETATM   25  S   UNL     1       2.861   1.771  -2.666  1.00  0.00    -0.081 SA
BRANCH  25  26
HETATM   26  C   UNL     1       3.443   1.954  -4.375  1.00  0.00     0.185 C 
BRANCH  26  27
HETATM   27  C   UNL     1       2.440   1.387  -5.370  1.00  0.00     0.231 C 
HETATM   28  N   UNL     1       2.719   0.079  -5.729  1.00  0.00    -0.327 N 
HETATM   29  H   UNL     1       3.380  -0.414  -5.129  1.00  0.00     0.169 HD
HETATM   30  O   UNL     1       1.506   2.069  -5.785  1.00  0.00    -0.272 OA
BRANCH  28  31
HETATM   31  C   UNL     1       2.102  -0.700  -6.725  1.00  0.00     0.034 A 
HETATM   32  C   UNL     1       2.516  -2.036  -6.831  1.00  0.00     0.032 A 
HETATM   33  C   UNL     1       1.987  -2.873  -7.818  1.00  0.00     0.039 A 
HETATM   34  C   UNL     1       1.037  -2.370  -8.697  1.00  0.00     0.065 A 
HETATM   35  C   UNL     1       0.608  -1.052  -8.600  1.00  0.00     0.039 A 
HETATM   36  C   UNL     1       1.144  -0.215  -7.617  1.00  0.00     0.032 A 
BRANCH  34  37
HETATM   37  O   UNL     1       0.499  -3.144  -9.682  1.00  0.00    -0.361 OA
HETATM   38  H   UNL     1       0.967  -3.994  -9.701  1.00  0.00     0.217 HD
ENDBRANCH  34  37
ENDBRANCH  28  31
ENDBRANCH  26  27
ENDBRANCH  25  26
ENDBRANCH   2  25
TORSDOF 9
