REMARK  5 active torsions:
REMARK  status: ('A' for Active; 'I' for Inactive)
REMARK    1  A    between atoms: C_2  and  C_3 
REMARK    2  A    between atoms: N_12  and  N_13 
REMARK       I    between atoms: N_13  and  C_14 
REMARK    3  A    between atoms: C_14  and  C_15 
REMARK    4  A    between atoms: C_15  and  N_16 
REMARK       I    between atoms: N_16  and  C_17 
REMARK    5  A    between atoms: C_17  and  C_18 
ROOT
HETATM    1  N   UNL     1       4.726  -1.523   2.451  1.00  0.00    -0.255 N 
HETATM    2  C   UNL     1       5.446  -2.523   1.822  1.00  0.00     0.254 C 
HETATM    3  O   UNL     1       5.565  -2.637   0.604  1.00  0.00    -0.270 OA
HETATM    4  H   UNL     1       5.084  -1.197   3.355  1.00  0.00     0.191 HD
ENDROOT
BRANCH   1   5
HETATM    5  N   UNL     1       4.137  -0.559   1.648  1.00  0.00    -0.167 N 
HETATM    6  C   UNL     1       4.643   0.697   1.465  1.00  0.00     0.345 C 
HETATM    7  N   UNL     1       3.803   1.367   0.597  1.00  0.00    -0.319 N 
HETATM    8  O   UNL     1       5.644   1.187   1.962  1.00  0.00    -0.245 OA
HETATM    9  C   UNL     1       2.782   0.495   0.038  1.00  0.00     0.141 C 
HETATM   10  H   UNL     1       4.086   2.254   0.205  1.00  0.00     0.166 HD
HETATM   11  C   UNL     1       1.378   1.008   0.380  1.00  0.00     0.055 C 
HETATM   12  C   UNL     1       3.024  -0.787   0.874  1.00  0.00     0.279 C 
HETATM   13  O   UNL     1       2.338  -1.803   0.847  1.00  0.00    -0.268 OA
BRANCH   9  14
HETATM   14  C   UNL     1       3.016   0.345  -1.463  1.00  0.00    -0.021 A 
HETATM   15  C   UNL     1       2.734   1.420  -2.331  1.00  0.00     0.010 A 
HETATM   16  C   UNL     1       2.966   1.324  -3.705  1.00  0.00     0.001 A 
HETATM   17  C   UNL     1       3.494   0.155  -4.242  1.00  0.00     0.000 A 
HETATM   18  C   UNL     1       3.793  -0.915  -3.404  1.00  0.00     0.001 A 
HETATM   19  C   UNL     1       3.561  -0.821  -2.028  1.00  0.00     0.010 A 
ENDBRANCH   9  14
ENDBRANCH   1   5
BRANCH   2  20
HETATM   20  C   UNL     1       6.135  -3.467   2.805  1.00  0.00     0.227 C 
BRANCH  20  21
HETATM   21  N   UNL     1       7.423  -2.953   3.231  1.00  0.00    -0.348 N 
HETATM   22  C   UNL     1       7.500  -1.961   4.185  1.00  0.00     0.252 C 
HETATM   23  O   UNL     1       6.489  -1.412   4.616  1.00  0.00    -0.268 OA
HETATM   24  H   UNL     1       8.243  -3.460   2.931  1.00  0.00     0.163 HD
BRANCH  22  25
HETATM   25  C   UNL     1       8.854  -1.594   4.699  1.00  0.00     0.033 A 
HETATM   26  C   UNL     1      10.039  -1.950   4.043  1.00  0.00     0.036 A 
HETATM   27  C   UNL     1      11.271  -1.603   4.604  1.00  0.00     0.012 A 
HETATM   28 BR   UNL     1      12.870  -2.108   3.728  1.00  0.00    -0.051 Br
HETATM   29  C   UNL     1      11.338  -0.892   5.800  1.00  0.00     0.019 A 
HETATM   30  C   UNL     1      10.161  -0.515   6.444  1.00  0.00     0.002 A 
HETATM   31  C   UNL     1       8.924  -0.864   5.895  1.00  0.00     0.017 A 
ENDBRANCH  22  25
ENDBRANCH  20  21
ENDBRANCH   2  20
TORSDOF 5
