REMARK  7 active torsions:
REMARK  status: ('A' for Active; 'I' for Inactive)
REMARK    1  A    between atoms: CG_4  and  CB_5 
REMARK    2  A    between atoms: CB_5  and  CA_6 
REMARK    3  A    between atoms: CA_6  and  N_7 
REMARK    4  A    between atoms: CA_6  and  C_8 
REMARK       I    between atoms: N_7  and  C_14 
REMARK    5  A    between atoms: C_8  and  O_9 
REMARK       I    between atoms: C_14  and  N_15 
REMARK    6  A    between atoms: N_15  and  C_16 
REMARK    7  A    between atoms: C_22  and  C_23 
ROOT
ATOM      1  N   PHE A   1       2.790  -2.192  -0.853  1.00  0.00    -0.336 N 
ATOM      2  H   PHE A   1       3.377  -2.692  -1.512  1.00  0.00     0.164 HD
HETATM    3  C   UNK A   0       1.621  -2.856  -0.627  1.00  0.00     0.321 C 
HETATM    4  N   UNK A   0       0.819  -2.336   0.350  1.00  0.00    -0.309 N 
HETATM    5  O   UNK A   0       1.390  -3.845  -1.313  1.00  0.00    -0.247 OA
HETATM    6  H   UNK A   0       1.263  -1.720   1.011  1.00  0.00     0.170 HD
ENDROOT
BRANCH   1   7
ATOM      7  CA  PHE A   1       3.333  -0.985  -0.230  1.00  0.00     0.113 C 
BRANCH   7   8
ATOM      8  CB  PHE A   1       4.102  -0.104  -1.243  1.00  0.00     0.065 C 
BRANCH   8   9
ATOM      9  CG  PHE A   1       5.294  -0.751  -1.913  1.00  0.00    -0.056 A 
ATOM     10  CD1 PHE A   1       5.127  -1.488  -3.095  1.00  0.00     0.007 A 
ATOM     11  CE1 PHE A   1       6.220  -2.099  -3.711  1.00  0.00     0.001 A 
ATOM     12  CZ  PHE A   1       7.492  -1.972  -3.159  1.00  0.00     0.000 A 
ATOM     13  CE2 PHE A   1       7.673  -1.229  -1.995  1.00  0.00     0.001 A 
ATOM     14  CD2 PHE A   1       6.581  -0.619  -1.376  1.00  0.00     0.007 A 
ENDBRANCH   8   9
ENDBRANCH   7   8
BRANCH   7  15
ATOM     15  C   PHE A   1       4.147  -1.335   1.028  1.00  0.00     0.189 C 
BRANCH  15  16
ATOM     16  O   PHE A   1       4.436  -0.168   1.791  1.00  0.00    -0.399 OA
ATOM     17  H   PHE A   1       5.271   0.203   1.458  1.00  0.00     0.209 HD
ENDBRANCH  15  16
ENDBRANCH   7  15
ENDBRANCH   1   7
BRANCH   4  18
HETATM   18  C   UNK A   0      -0.513  -2.700   0.646  1.00  0.00     0.038 A 
HETATM   19  C   UNK A   0      -1.292  -3.513  -0.188  1.00  0.00     0.063 A 
HETATM   20  C   UNK A   0      -2.623  -3.779   0.170  1.00  0.00     0.087 A 
HETATM   21  C   UNK A   0      -3.137  -3.240   1.343  1.00  0.00     0.063 A 
HETATM   22  N   UNK A   0      -3.579  -4.520  -0.485  1.00  0.00    -0.228 NA
HETATM   23  N   UNK A   0      -4.433  -3.685   1.384  1.00  0.00    -0.338 N 
HETATM   24  C   UNK A   0      -2.394  -2.433   2.202  1.00  0.00     0.034 A 
HETATM   25  H   UNK A   0      -5.113  -3.485   2.104  1.00  0.00     0.167 HD
HETATM   26  C   UNK A   0      -4.665  -4.445   0.263  1.00  0.00     0.170 A 
HETATM   27  C   UNK A   0      -1.070  -2.170   1.821  1.00  0.00     0.032 A 
BRANCH  26  28
HETATM   28  C   UNK A   0      -5.997  -5.052   0.014  1.00  0.00     0.422 C 
HETATM   29  F   UNK A   0      -6.367  -5.844   1.059  1.00  0.00    -0.206 F 
HETATM   30  F   UNK A   0      -6.955  -4.087  -0.068  1.00  0.00    -0.206 F 
ENDBRANCH  26  28
ENDBRANCH   4  18
TORSDOF 7
