REMARK  4 active torsions:
REMARK  status: ('A' for Active; 'I' for Inactive)
REMARK    1  A    between atoms: C_9  and  C_10 
REMARK    2  A    between atoms: C_20  and  C_21 
REMARK       I    between atoms: C_21  and  N_22 
REMARK    3  A    between atoms: N_22  and  C_23 
REMARK    4  A    between atoms: C_26  and  O_27 
ROOT
HETATM    1  C   UNL     1       0.775   0.050  -0.954  1.00  0.00     0.070 C 
HETATM    2  C   UNL     1       2.191   0.078  -0.431  1.00  0.00     0.037 C 
HETATM    3  N   UNL     1       2.742   1.347  -0.270  1.00  0.00    -0.192 N 
HETATM    4  C   UNL     1       4.058   1.556  -0.060  1.00  0.00     0.725 A 
HETATM    5  N   UNL     1       4.882   0.487   0.177  1.00  0.00    -0.084 N 
HETATM    6  N   UNL     1       6.170   0.876   0.271  1.00  0.00    -0.149 NA
HETATM    7  C   UNL     1       6.037   2.202   0.155  1.00  0.00     0.275 A 
HETATM    8  N   UNL     1       4.761   2.660  -0.050  1.00  0.00    -0.054 NA
HETATM    9  C   UNL     1       4.427  -0.909   0.175  1.00  0.00     0.203 C 
HETATM   10  C   UNL     1       2.955  -1.020  -0.205  1.00  0.00     0.062 C 
HETATM   11  H   UNL     1       2.177   2.145  -0.549  1.00  0.00     0.184 HD
ENDROOT
BRANCH  10  12
HETATM   12  C   UNL     1       2.514  -2.405  -0.520  1.00  0.00     0.256 C 
HETATM   13  N   UNL     1       1.354  -2.786   0.117  1.00  0.00    -0.323 N 
HETATM   14  H   UNL     1       0.960  -2.138   0.786  1.00  0.00     0.169 HD
HETATM   15  O   UNL     1       3.209  -3.078  -1.272  1.00  0.00    -0.267 OA
BRANCH  13  16
HETATM   16  C   UNL     1       0.631  -3.981  -0.089  1.00  0.00     0.035 A 
HETATM   17  C   UNL     1       1.024  -4.987  -0.973  1.00  0.00     0.032 A 
HETATM   18  C   UNL     1       0.237  -6.132  -1.141  1.00  0.00     0.039 A 
HETATM   19  C   UNL     1      -0.944  -6.297  -0.422  1.00  0.00     0.068 A 
HETATM   20  C   UNL     1      -1.355  -5.291   0.449  1.00  0.00     0.039 A 
HETATM   21  C   UNL     1      -0.568  -4.142   0.617  1.00  0.00     0.032 A 
BRANCH  19  22
HETATM   22  O   UNL     1      -1.623  -7.456  -0.676  1.00  0.00    -0.356 OA
HETATM   23  C   UNL     1      -2.479  -7.912   0.365  1.00  0.00     0.210 C 
ENDBRANCH  19  22
ENDBRANCH  13  16
ENDBRANCH  10  12
BRANCH   9  24
HETATM   24  C   UNL     1       4.796  -1.637   1.475  1.00  0.00    -0.017 A 
HETATM   25  C   UNL     1       4.451  -1.198   2.795  1.00  0.00    -0.017 A 
HETATM   26  C   UNL     1       4.928  -1.950   3.904  1.00  0.00    -0.025 A 
HETATM   27  C   UNL     1       3.671  -0.055   3.101  1.00  0.00     0.013 A 
HETATM   28  C   UNL     1       4.657  -1.538   5.220  1.00  0.00     0.012 A 
HETATM   29  C   UNL     1       5.680  -3.114   3.701  1.00  0.00     0.012 A 
HETATM   30  C   UNL     1       3.909  -0.393   5.476  1.00  0.00     0.001 A 
HETATM   31  C   UNL     1       3.410   0.344   4.416  1.00  0.00     0.001 A 
HETATM   32  C   UNL     1       5.976  -3.559   2.420  1.00  0.00     0.002 A 
HETATM   33  C   UNL     1       5.541  -2.829   1.321  1.00  0.00     0.010 A 
ENDBRANCH   9  24
TORSDOF 4
