REMARK  6 active torsions:
REMARK  status: ('A' for Active; 'I' for Inactive)
REMARK    1  A    between atoms: C_2  and  N_3 
REMARK    2  A    between atoms: N_3  and  C_5 
REMARK    3  A    between atoms: N_3  and  C_28 
REMARK    4  A    between atoms: C_8  and  C_9 
REMARK    5  A    between atoms: N_10  and  C_11 
REMARK    6  A    between atoms: C_11  and  C_12 
ROOT
HETATM    1  C   UNL     1      -0.876  -5.884  -0.525  1.00  0.00     0.199 C 
HETATM    2  N   UNL     1      -1.786  -5.997   0.601  1.00  0.00    -0.321 N 
HETATM    3  C   UNL     1      -2.699  -7.050   0.598  1.00  0.00     0.257 C 
HETATM    4  O   UNL     1      -3.745  -7.046   1.240  1.00  0.00    -0.267 OA
HETATM    5  C   UNL     1      -2.334  -8.238  -0.204  1.00  0.00     0.053 A 
HETATM    6  C   UNL     1      -1.081  -8.253  -0.827  1.00  0.00     0.026 A 
HETATM    7  N   UNL     1      -0.198  -7.163  -0.708  1.00  0.00    -0.266 NA
HETATM    8  C   UNL     1      -3.195  -9.338  -0.280  1.00  0.00     0.019 A 
HETATM    9  C   UNL     1      -2.785 -10.490  -0.950  1.00  0.00     0.001 A 
HETATM   10  C   UNL     1      -1.514 -10.543  -1.519  1.00  0.00     0.002 A 
HETATM   11  C   UNL     1      -0.662  -9.436  -1.446  1.00  0.00     0.024 A 
HETATM   12  H   UNL     1       0.460  -7.144  -1.481  1.00  0.00     0.130 HD
ENDROOT
BRANCH   1  13
HETATM   13  C   UNL     1       0.200  -4.810  -0.394  1.00  0.00    -0.021 A 
HETATM   14  C   UNL     1       1.175  -4.867   0.612  1.00  0.00     0.013 A 
HETATM   15  C   UNL     1       2.095  -3.825   0.777  1.00  0.00     0.038 A 
HETATM   16  C   UNL     1       2.105  -2.728  -0.096  1.00  0.00     0.134 A 
HETATM   17  C   UNL     1       1.163  -2.690  -1.128  1.00  0.00     0.038 A 
HETATM   18  C   UNL     1       0.216  -3.714  -1.269  1.00  0.00     0.013 A 
BRANCH  16  19
HETATM   19  N   UNL     1       3.082  -1.623   0.163  1.00  0.00    -0.042 N 
HETATM   20  H   UNL     1       2.871  -1.337   1.130  1.00  0.00     0.286 HD
BRANCH  19  21
HETATM   21  C   UNL     1       2.920  -0.373  -0.676  1.00  0.00     0.237 C 
HETATM   22  C   UNL     1       1.764   0.480  -0.183  1.00  0.00     0.035 C 
ENDBRANCH  19  21
BRANCH  19  23
HETATM   23  C   UNL     1       4.520  -2.112   0.188  1.00  0.00     0.237 C 
HETATM   24  C   UNL     1       4.985  -2.657  -1.150  1.00  0.00     0.035 C 
ENDBRANCH  19  23
ENDBRANCH  16  19
ENDBRANCH   1  13
BRANCH   2  25
HETATM   25  C   UNL     1      -2.109  -4.843   1.433  1.00  0.00     0.193 C 
BRANCH  25  26
HETATM   26  C   UNL     1      -2.841  -3.789   0.682  1.00  0.00     0.070 A 
HETATM   27  O   UNL     1      -2.240  -2.564   0.602  1.00  0.00    -0.325 OA
HETATM   28  C   UNL     1      -3.107  -1.740  -0.039  1.00  0.00     0.142 A 
HETATM   29  C   UNL     1      -4.247  -2.422  -0.397  1.00  0.00     0.027 A 
HETATM   30  C   UNL     1      -4.075  -3.749   0.067  1.00  0.00     0.036 A 
ENDBRANCH  25  26
ENDBRANCH   2  25
TORSDOF 6
