REMARK  8 active torsions:
REMARK  status: ('A' for Active; 'I' for Inactive)
REMARK    1  A    between atoms: C_4  and  C_5 
REMARK    2  A    between atoms: C_7  and  C_8 
REMARK    3  A    between atoms: C_9  and  C_10 
REMARK       I    between atoms: C_10  and  N_11 
REMARK    4  A    between atoms: N_11  and  C_12 
REMARK    5  A    between atoms: C_12  and  N_13 
REMARK    6  A    between atoms: N_13  and  C_14 
REMARK    7  A    between atoms: C_17  and  N_18 
REMARK       I    between atoms: N_21  and  C_22 
REMARK    8  A    between atoms: C_22  and  C_23 
ROOT
HETATM    1  N   UNL     1       6.020   3.572  -0.268  1.00  0.00    -0.333 N 
HETATM    2  H   UNL     1       6.795   4.057  -0.706  1.00  0.00     0.168 HD
ENDROOT
BRANCH   1   3
HETATM    3  C   UNL     1       5.003   4.395   0.153  1.00  0.00     0.179 C 
HETATM    4  S   UNL     1       3.365   4.184  -0.122  1.00  0.00    -0.040 SA
BRANCH   3   5
HETATM    5  N   UNL     1       5.398   5.575   0.765  1.00  0.00    -0.300 N 
HETATM    6  C   UNL     1       6.544   6.019   1.402  1.00  0.00     0.247 C 
HETATM    7  O   UNL     1       6.733   7.221   1.572  1.00  0.00    -0.268 OA
HETATM    8  H   UNL     1       4.687   6.296   0.734  1.00  0.00     0.171 HD
BRANCH   6   9
HETATM    9  C   UNL     1       7.470   4.996   1.937  1.00  0.00     0.077 C 
HETATM   10  C   UNL     1       8.501   5.366   2.711  1.00  0.00     0.042 C 
BRANCH  10  11
HETATM   11  C   UNL     1       9.343   4.377   3.287  1.00  0.00     0.076 A 
HETATM   12  O   UNL     1       9.386   3.071   2.855  1.00  0.00    -0.310 OA
HETATM   13  C   UNL     1      10.282   2.377   3.613  1.00  0.00     0.086 A 
HETATM   14  C   UNL     1      10.824   3.222   4.556  1.00  0.00     0.041 A 
HETATM   15  C   UNL     1      10.239   4.495   4.339  1.00  0.00     0.040 A 
BRANCH  13  16
HETATM   16  C   UNL     1      10.456   0.968   3.272  1.00  0.00    -0.002 A 
HETATM   17  C   UNL     1      11.159   0.106   4.127  1.00  0.00     0.014 A 
HETATM   18  C   UNL     1      11.346  -1.240   3.794  1.00  0.00     0.001 A 
HETATM   19  C   UNL     1      10.837  -1.741   2.598  1.00  0.00     0.000 A 
HETATM   20  C   UNL     1      10.137  -0.900   1.738  1.00  0.00     0.001 A 
HETATM   21  C   UNL     1       9.943   0.442   2.076  1.00  0.00     0.014 A 
ENDBRANCH  13  16
ENDBRANCH  10  11
ENDBRANCH   6   9
ENDBRANCH   3   5
ENDBRANCH   1   3
BRANCH   1  22
HETATM   22  C   UNL     1       5.991   2.175  -0.459  1.00  0.00     0.034 A 
HETATM   23  C   UNL     1       6.855   1.615  -1.402  1.00  0.00     0.031 A 
HETATM   24  C   UNL     1       6.886   0.227  -1.603  1.00  0.00     0.026 A 
HETATM   25  C   UNL     1       6.092  -0.634  -0.838  1.00  0.00     0.010 A 
HETATM   26  C   UNL     1       5.262  -0.056   0.133  1.00  0.00     0.026 A 
HETATM   27  C   UNL     1       5.204   1.330   0.319  1.00  0.00     0.031 A 
BRANCH  25  28
HETATM   28  N   UNL     1       6.076  -2.026  -0.989  1.00  0.00    -0.280 NA
HETATM   29  C   UNL     1       6.773  -2.739   0.106  1.00  0.00     0.115 C 
HETATM   30  C   UNL     1       6.440  -4.242   0.062  1.00  0.00     0.141 C 
HETATM   31  N   UNL     1       6.660  -4.836  -1.268  1.00  0.00    -0.344 N 
HETATM   32  C   UNL     1       6.782  -6.221  -1.456  1.00  0.00     0.277 C 
HETATM   33  C   UNL     1       6.047  -4.076  -2.366  1.00  0.00     0.141 C 
HETATM   34  O   UNL     1       6.345  -6.753  -2.479  1.00  0.00    -0.265 OA
HETATM   35  C   UNL     1       6.403  -2.579  -2.318  1.00  0.00     0.115 C 
BRANCH  32  36
HETATM   36  C   UNL     1       7.452  -7.015  -0.438  1.00  0.00     0.142 A 
HETATM   37  O   UNL     1       8.413  -6.461   0.368  1.00  0.00    -0.317 OA
HETATM   38  C   UNL     1       8.896  -7.451   1.162  1.00  0.00     0.143 A 
HETATM   39  C   UNL     1       8.280  -8.645   0.875  1.00  0.00     0.027 A 
HETATM   40  C   UNL     1       7.363  -8.370  -0.166  1.00  0.00     0.045 A 
ENDBRANCH  32  36
ENDBRANCH  25  28
ENDBRANCH   1  22
TORSDOF 8
