REMARK  6 active torsions:
REMARK  status: ('A' for Active; 'I' for Inactive)
REMARK    1  A    between atoms: C_4  and  C_5 
REMARK    2  A    between atoms: C_5  and  N_6 
REMARK       I    between atoms: N_6  and  C_7 
REMARK    3  A    between atoms: C_7  and  C_8 
REMARK    4  A    between atoms: C_9  and  N_10 
REMARK    5  A    between atoms: N_11  and  N_12 
REMARK    6  A    between atoms: C_13  and  C_14 
ROOT
HETATM    1  C   UNL     1       4.412   1.176  -0.563  1.00  0.00     0.104 C 
HETATM    2  C   UNL     1       5.165   0.881  -1.694  1.00  0.00     0.123 C 
HETATM    3  N   UNL     1       5.922   2.018  -1.973  1.00  0.00    -0.202 N 
HETATM    4  C   UNL     1       5.207   3.099  -1.499  1.00  0.00     0.183 A 
HETATM    5  C   UNL     1       4.321   2.597  -0.543  1.00  0.00     0.124 A 
HETATM    6  N   UNL     1       3.590   3.437   0.234  1.00  0.00    -0.242 NA
HETATM    7  C   UNL     1       3.731   4.742  -0.055  1.00  0.00     0.086 A 
HETATM    8  C   UNL     1       4.613   5.218  -1.063  1.00  0.00     0.088 A 
HETATM    9  N   UNL     1       5.401   4.406  -1.784  1.00  0.00    -0.225 NA
HETATM   10  C   UNL     1       2.973   5.663   0.657  1.00  0.00     0.034 A 
HETATM   11  C   UNL     1       3.042   7.031   0.389  1.00  0.00     0.002 A 
HETATM   12  C   UNL     1       3.887   7.492  -0.609  1.00  0.00     0.002 A 
HETATM   13  C   UNL     1       4.668   6.582  -1.321  1.00  0.00     0.034 A 
ENDROOT
BRANCH   3  14
HETATM   14  N   UNL     1       7.190   2.053  -2.511  1.00  0.00    -0.176 NA
HETATM   15  C   UNL     1       7.919   1.076  -2.069  1.00  0.00     0.153 C 
BRANCH  15  16
HETATM   16  C   UNL     1       9.304   0.904  -2.426  1.00  0.00     0.011 A 
HETATM   17  C   UNL     1      10.077  -0.281  -2.211  1.00  0.00     0.004 A 
HETATM   18  C   UNL     1      11.390   0.008  -2.577  1.00  0.00     0.043 A 
HETATM   19  C   UNL     1       9.783  -1.572  -1.715  1.00  0.00     0.014 A 
HETATM   20  C   UNL     1      12.429  -0.923  -2.453  1.00  0.00     0.030 A 
HETATM   21  N   UNL     1      11.405   1.307  -3.035  1.00  0.00    -0.364 N 
HETATM   22  C   UNL     1      12.113  -2.190  -1.956  1.00  0.00     0.002 A 
HETATM   23  C   UNL     1      10.808  -2.516  -1.598  1.00  0.00     0.001 A 
HETATM   24  H   UNL     1      12.231   1.792  -3.356  1.00  0.00     0.165 HD
HETATM   25  C   UNL     1      10.149   1.851  -2.967  1.00  0.00     0.102 A 
ENDBRANCH  15  16
ENDBRANCH   3  14
BRANCH   2  26
HETATM   26  N   UNL     1       5.351  -0.295  -2.373  1.00  0.00    -0.286 NA
HETATM   27  H   UNL     1       4.549  -0.931  -2.403  1.00  0.00     0.125 HD
HETATM   28  H   UNL     1       5.746  -0.212  -3.316  1.00  0.00     0.125 HD
ENDBRANCH   2  26
BRANCH   1  29
HETATM   29  C   UNL     1       3.877   0.192   0.374  1.00  0.00     0.257 C 
HETATM   30  N   UNL     1       4.494  -1.037   0.246  1.00  0.00    -0.352 N 
HETATM   31  H   UNL     1       5.306  -1.045  -0.356  1.00  0.00     0.163 HD
HETATM   32  O   UNL     1       3.049   0.441   1.240  1.00  0.00    -0.267 OA
BRANCH  30  33
HETATM   33  C   UNL     1       4.428  -2.067   1.252  1.00  0.00     0.161 C 
BRANCH  33  34
HETATM   34  C   UNL     1       4.853  -3.437   0.759  1.00  0.00    -0.041 A 
HETATM   35  C   UNL     1       5.523  -3.666  -0.456  1.00  0.00     0.009 A 
HETATM   36  C   UNL     1       5.899  -4.956  -0.843  1.00  0.00     0.001 A 
HETATM   37  C   UNL     1       5.622  -6.040  -0.017  1.00  0.00     0.000 A 
HETATM   38  C   UNL     1       4.977  -5.834   1.200  1.00  0.00     0.001 A 
HETATM   39  C   UNL     1       4.600  -4.545   1.586  1.00  0.00     0.009 A 
ENDBRANCH  33  34
ENDBRANCH  30  33
ENDBRANCH   1  29
TORSDOF 6
