REMARK  8 active torsions:
REMARK  status: ('A' for Active; 'I' for Inactive)
REMARK    1  A    between atoms: C_2  and  C_3 
REMARK    2  A    between atoms: C_3  and  O_4 
REMARK    3  A    between atoms: O_4  and  C_5 
REMARK    4  A    between atoms: C_6  and  O_7 
REMARK    5  A    between atoms: C_11  and  C_12 
REMARK    6  A    between atoms: C_12  and  N_13 
REMARK    7  A    between atoms: N_13  and  C_14 
REMARK    8  A    between atoms: C_21  and  C_22 
REMARK       I    between atoms: C_22  and  N_23 
ROOT
HETATM    1  C   UNL     1       8.624   0.968   6.558  1.00  0.00     0.009 A 
HETATM    2  C   UNL     1       9.991   1.284   6.486  1.00  0.00     0.039 A 
HETATM    3  C   UNL     1      10.885   0.819   7.474  1.00  0.00     0.030 A 
HETATM    4  C   UNL     1      10.386   0.067   8.528  1.00  0.00     0.063 A 
HETATM    5  N   UNL     1      11.470  -0.226   9.308  1.00  0.00    -0.277 N 
HETATM    6  H   UNL     1      11.479  -0.762  10.169  1.00  0.00     0.189 HD
HETATM    7  N   UNL     1      12.633   0.278   8.859  1.00  0.00    -0.168 NA
HETATM    8  C   UNL     1      12.285   0.930   7.726  1.00  0.00     0.156 A 
HETATM    9  C   UNL     1       9.033  -0.244   8.663  1.00  0.00     0.034 A 
HETATM   10  C   UNL     1       8.170   0.238   7.668  1.00  0.00     0.026 A 
ENDROOT
BRANCH   1  11
HETATM   11  N   UNL     1       7.675   1.472   5.660  1.00  0.00    -0.289 NA
HETATM   12  H   UNL     1       6.816   0.928   5.658  1.00  0.00     0.128 HD
BRANCH  11  13
HETATM   13  C   UNL     1       8.093   1.851   4.318  1.00  0.00     0.131 C 
BRANCH  13  14
HETATM   14  C   UNL     1       6.883   2.301   3.532  1.00  0.00    -0.042 A 
HETATM   15  C   UNL     1       6.458   3.634   3.599  1.00  0.00     0.011 A 
HETATM   16  C   UNL     1       5.349   4.066   2.866  1.00  0.00     0.040 A 
HETATM   17  C   UNL     1       4.638   3.168   2.066  1.00  0.00     0.101 A 
HETATM   18  C   UNL     1       5.025   1.816   2.036  1.00  0.00     0.102 A 
HETATM   19  C   UNL     1       6.151   1.393   2.753  1.00  0.00     0.048 A 
BRANCH  17  20
HETATM   20  O   UNL     1       3.537   3.504   1.317  1.00  0.00    -0.353 OA
HETATM   21  C   UNL     1       3.318   4.887   1.078  1.00  0.00     0.210 C 
ENDBRANCH  17  20
BRANCH  18  22
HETATM   22  O   UNL     1       4.290   0.978   1.234  1.00  0.00    -0.348 OA
BRANCH  22  23
HETATM   23  C   UNL     1       4.152  -0.363   1.704  1.00  0.00     0.175 C 
BRANCH  23  24
HETATM   24  C   UNL     1       2.965  -0.989   0.977  1.00  0.00     0.022 C 
HETATM   25  C   UNL     1       2.731  -2.426   1.405  1.00  0.00     0.007 C 
ENDBRANCH  23  24
ENDBRANCH  22  23
ENDBRANCH  18  22
ENDBRANCH  13  14
ENDBRANCH  11  13
ENDBRANCH   1  11
BRANCH   8  26
HETATM   26  C   UNL     1      13.281   1.643   6.915  1.00  0.00     0.270 C 
HETATM   27  N   UNL     1      14.550   1.603   7.424  1.00  0.00    -0.365 N 
HETATM   28  H   UNL     1      14.707   1.109   8.295  1.00  0.00     0.159 HD
HETATM   29  H   UNL     1      15.298   2.075   6.944  1.00  0.00     0.159 HD
HETATM   30  O   UNL     1      13.032   2.236   5.869  1.00  0.00    -0.266 OA
ENDBRANCH   8  26
TORSDOF 8
