REMARK  5 active torsions:
REMARK  status: ('A' for Active; 'I' for Inactive)
REMARK    1  A    between atoms: C_2  and  C_3 
REMARK    2  A    between atoms: C_5  and  N_6 
REMARK       I    between atoms: N_6  and  C_7 
REMARK    3  A    between atoms: C_7  and  C_8 
REMARK    4  A    between atoms: C_9  and  C_10 
REMARK    5  A    between atoms: C_21  and  O_22 
ROOT
HETATM    1  N   UNL     1       2.949   4.507  -1.767  1.00  0.00    -0.321 N 
HETATM    2  C   UNL     1       3.022   5.121  -0.540  1.00  0.00     0.245 C 
HETATM    3  O   UNL     1       3.175   4.592   0.553  1.00  0.00    -0.268 OA
HETATM    4  H   UNL     1       2.949   5.085  -2.601  1.00  0.00     0.169 HD
ENDROOT
BRANCH   1   5
HETATM    5  C   UNL     1       2.950   3.122  -2.051  1.00  0.00     0.069 A 
HETATM    6  C   UNL     1       2.860   2.131  -1.067  1.00  0.00     0.040 A 
HETATM    7  C   UNL     1       2.840   0.759  -1.394  1.00  0.00    -0.048 A 
HETATM    8  C   UNL     1       2.923   0.419  -2.752  1.00  0.00     0.011 A 
HETATM    9  C   UNL     1       3.013   1.400  -3.748  1.00  0.00     0.039 A 
HETATM   10  C   UNL     1       3.022   2.752  -3.407  1.00  0.00     0.095 A 
BRANCH   7  11
HETATM   11  C   UNL     1       2.710  -0.295  -0.278  1.00  0.00    -0.024 C 
HETATM   12  C   UNL     1       1.362  -0.105   0.451  1.00  0.00     0.019 C 
HETATM   13  C   UNL     1       3.863  -0.137   0.735  1.00  0.00     0.019 C 
HETATM   14  C   UNL     1       2.751  -1.753  -0.790  1.00  0.00     0.019 C 
ENDBRANCH   7  11
BRANCH  10  15
HETATM   15  O   UNL     1       3.099   3.793  -4.304  1.00  0.00    -0.354 OA
HETATM   16  C   UNL     1       3.262   3.451  -5.675  1.00  0.00     0.210 C 
ENDBRANCH  10  15
ENDBRANCH   1   5
BRANCH   2  17
HETATM   17  C   UNL     1       2.922   6.599  -0.664  1.00  0.00     0.077 C 
HETATM   18  C   UNL     1       3.341   7.384   0.341  1.00  0.00     0.038 C 
BRANCH  18  19
HETATM   19  C   UNL     1       3.242   8.846   0.314  1.00  0.00     0.075 A 
HETATM   20  N   UNL     1       2.516   9.410  -0.680  1.00  0.00    -0.245 NA
HETATM   21  C   UNL     1       2.408  10.754  -0.671  1.00  0.00     0.086 A 
HETATM   22  C   UNL     1       3.041  11.543   0.322  1.00  0.00     0.085 A 
HETATM   23  C   UNL     1       1.653  11.385  -1.653  1.00  0.00     0.034 A 
HETATM   24  N   UNL     1       3.772  10.979   1.302  1.00  0.00    -0.256 NA
HETATM   25  C   UNL     1       2.896  12.924   0.280  1.00  0.00     0.034 A 
HETATM   26  C   UNL     1       3.854   9.627   1.284  1.00  0.00     0.148 A 
HETATM   27  C   UNL     1       2.136  13.546  -0.712  1.00  0.00     0.002 A 
HETATM   28  C   UNL     1       1.510  12.773  -1.681  1.00  0.00     0.002 A 
ENDBRANCH  18  19
ENDBRANCH   2  17
TORSDOF 5
