REMARK  3 active torsions:
REMARK  status: ('A' for Active; 'I' for Inactive)
REMARK    1  A    between atoms: N_1  and  C_2 
REMARK    2  A    between atoms: C_6  and  C_8 
REMARK    3  A    between atoms: C_13  and  C_17 
ROOT
HETATM    1  C   UNL     1      11.970  -9.064  -1.608  1.00  0.00    -0.006 A 
HETATM    2  C   UNL     1      11.563 -10.407  -1.584  1.00  0.00     0.016 A 
HETATM    3  C   UNL     1      10.250 -10.775  -1.253  1.00  0.00     0.034 A 
HETATM    4  C   UNL     1       9.305  -9.784  -0.937  1.00  0.00     0.074 A 
HETATM    5  N   UNL     1       7.980 -10.002  -0.611  1.00  0.00    -0.244 NA
HETATM    6  C   UNL     1       7.359  -8.857  -0.420  1.00  0.00     0.083 A 
HETATM    7  S   UNL     1       8.369  -7.463  -0.505  1.00  0.00    -0.072 SA
HETATM    8  C   UNL     1       9.708  -8.451  -0.942  1.00  0.00     0.036 A 
HETATM    9  C   UNL     1      11.024  -8.075  -1.265  1.00  0.00     0.035 A 
ENDROOT
BRANCH   6  10
HETATM   10  C   UNL     1       5.889  -8.722  -0.077  1.00  0.00     0.074 C 
HETATM   11  C   UNL     1       5.120  -7.869  -1.088  1.00  0.00     0.187 C 
HETATM   12  O   UNL     1       5.082  -8.425  -2.406  1.00  0.00    -0.350 OA
HETATM   13  C   UNL     1       4.784  -9.760  -2.460  1.00  0.00     0.075 A 
HETATM   14  C   UNL     1       4.471 -10.264  -3.722  1.00  0.00     0.037 A 
HETATM   15  C   UNL     1       4.819 -10.608  -1.349  1.00  0.00    -0.024 A 
HETATM   16  C   UNL     1       4.165 -11.615  -3.881  1.00  0.00     0.003 A 
HETATM   17  C   UNL     1       4.175 -12.464  -2.775  1.00  0.00     0.001 A 
HETATM   18  C   UNL     1       4.499 -11.963  -1.513  1.00  0.00     0.010 A 
HETATM   19  C   UNL     1       5.183 -10.080   0.013  1.00  0.00     0.055 C 
ENDBRANCH   6  10
BRANCH   1  20
HETATM   20  C   UNL     1      13.348  -8.674  -1.979  1.00  0.00     0.071 A 
HETATM   21  C   UNL     1      14.095  -9.361  -2.916  1.00  0.00     0.052 A 
HETATM   22  C   UNL     1      15.357  -8.876  -3.159  1.00  0.00     0.122 A 
HETATM   23  N   UNL     1      15.868  -7.798  -2.542  1.00  0.00    -0.231 NA
HETATM   24  C   UNL     1      15.068  -7.182  -1.670  1.00  0.00     0.199 A 
HETATM   25  N   UNL     1      13.835  -7.580  -1.350  1.00  0.00    -0.218 NA
BRANCH  24  26
HETATM   26  N   UNL     1      15.572  -6.079  -1.014  1.00  0.00    -0.271 NA
HETATM   27  H   UNL     1      16.581  -6.126  -1.005  1.00  0.00     0.127 HD
HETATM   28  H   UNL     1      15.105  -5.974  -0.124  1.00  0.00     0.127 HD
ENDBRANCH  24  26
ENDBRANCH   1  20
TORSDOF 3
