REMARK  6 active torsions:
REMARK  status: ('A' for Active; 'I' for Inactive)
REMARK    1  A    between atoms: C_2  and  O_3 
REMARK    2  A    between atoms: O_3  and  C_4 
REMARK    3  A    between atoms: C_7  and  C_8 
REMARK       I    between atoms: N_11  and  C_12 
REMARK       I    between atoms: C_12  and  N_13 
REMARK    4  A    between atoms: N_13  and  C_14 
REMARK    5  A    between atoms: C_14  and  C_15 
REMARK    6  A    between atoms: C_15  and  C_16 
ROOT
HETATM    1  C   UNL     1      12.894 -10.652  -0.429  1.00  0.00    -0.049 C 
HETATM    2  C   UNL     1      12.263 -10.596   0.935  1.00  0.00     0.059 C 
HETATM    3  C   UNL     1      12.476  -9.232   1.592  1.00  0.00     0.132 C 
HETATM    4  N   UNL     1      12.124  -8.129   0.695  1.00  0.00    -0.331 N 
HETATM    5  C   UNL     1      11.733  -6.872   1.144  1.00  0.00     0.318 C 
HETATM    6  N   UNL     1      11.342  -6.810   2.450  1.00  0.00    -0.338 N 
HETATM    7  O   UNL     1      11.784  -5.869   0.434  1.00  0.00    -0.247 OA
HETATM    8  C   UNL     1      12.748  -8.136  -0.625  1.00  0.00     0.155 C 
HETATM    9  C   UNL     1      13.106  -9.511  -1.112  1.00  0.00     0.001 C 
HETATM   10  H   UNL     1      10.902  -7.629   2.853  1.00  0.00     0.164 HD
ENDROOT
BRANCH   6  11
HETATM   11  C   UNL     1      10.968  -5.568   3.115  1.00  0.00     0.087 C 
HETATM   12  C   UNL     1       9.542  -5.150   2.750  1.00  0.00     0.032 C 
BRANCH  11  13
HETATM   13  C   UNL     1      11.177  -5.683   4.637  1.00  0.00     0.085 C 
BRANCH  13  14
HETATM   14  C   UNL     1      10.315  -6.699   5.327  1.00  0.00     0.058 A 
HETATM   15  N   UNL     1      10.243  -7.966   4.890  1.00  0.00    -0.179 NA
HETATM   16  N   UNL     1       9.414  -8.564   5.762  1.00  0.00    -0.282 N 
HETATM   17  H   UNL     1       9.206  -9.549   5.630  1.00  0.00     0.189 HD
HETATM   18  C   UNL     1       8.957  -7.732   6.744  1.00  0.00     0.026 A 
HETATM   19  C   UNL     1       8.049  -8.187   7.820  1.00  0.00     0.070 C 
HETATM   20  C   UNL     1       9.526  -6.506   6.485  1.00  0.00     0.055 A 
ENDBRANCH  13  14
ENDBRANCH  11  13
ENDBRANCH   6  11
BRANCH   1  21
HETATM   21  C   UNL     1      13.329 -11.956  -0.967  1.00  0.00    -0.030 A 
HETATM   22  C   UNL     1      14.090 -12.836  -0.186  1.00  0.00     0.014 A 
HETATM   23  C   UNL     1      14.497 -14.080  -0.686  1.00  0.00     0.037 A 
HETATM   24  C   UNL     1      14.150 -14.463  -1.980  1.00  0.00     0.068 A 
HETATM   25  C   UNL     1      13.403 -13.587  -2.769  1.00  0.00     0.037 A 
HETATM   26  C   UNL     1      12.992 -12.347  -2.268  1.00  0.00     0.014 A 
BRANCH  24  27
HETATM   27  O   UNL     1      14.482 -15.644  -2.584  1.00  0.00    -0.352 OA
BRANCH  27  28
HETATM   28  C   UNL     1      15.127 -16.625  -1.772  1.00  0.00     0.171 C 
HETATM   29  C   UNL     1      15.326 -17.874  -2.611  1.00  0.00     0.034 C 
ENDBRANCH  27  28
ENDBRANCH  24  27
ENDBRANCH   1  21
TORSDOF 6
