REMARK  6 active torsions:
REMARK  status: ('A' for Active; 'I' for Inactive)
REMARK    1  A    between atoms: C_3  and  C_4 
REMARK    2  A    between atoms: C_4  and  N_5 
REMARK    3  A    between atoms: C_4  and  C_9 
REMARK       I    between atoms: N_5  and  C_6 
REMARK       I    between atoms: C_6  and  N_7 
REMARK    4  A    between atoms: C_9  and  C_10 
REMARK       I    between atoms: C_10  and  N_11 
REMARK    5  A    between atoms: N_11  and  C_12 
REMARK    6  A    between atoms: C_14  and  C_15 
ROOT
HETATM    1  C   UNL     1       3.316   3.603   0.154  1.00  0.00     0.133 C 
ENDROOT
BRANCH   1   2
HETATM    2  C   UNL     1       2.895   2.280   0.799  1.00  0.00     0.128 C 
BRANCH   2   3
HETATM    3  C   UNL     1       1.938   1.413  -0.024  1.00  0.00    -0.029 A 
HETATM    4  C   UNL     1       2.216   0.871  -1.300  1.00  0.00    -0.054 A 
HETATM    5  C   UNL     1       3.487   1.123  -2.064  1.00  0.00     0.049 C 
HETATM    6  C   UNL     1       1.247   0.064  -1.931  1.00  0.00     0.007 A 
HETATM    7  C   UNL     1       0.035  -0.237  -1.312  1.00  0.00     0.001 A 
HETATM    8  C   UNL     1      -0.238   0.277  -0.054  1.00  0.00     0.001 A 
HETATM    9  C   UNL     1       0.699   1.092   0.579  1.00  0.00     0.010 A 
ENDBRANCH   2   3
BRANCH   2  10
HETATM   10  N   UNL     1       3.970   1.450   1.346  1.00  0.00    -0.339 N 
HETATM   11  C   UNL     1       5.289   1.518   1.032  1.00  0.00     0.292 C 
HETATM   12  N   UNL     1       6.021   0.592   1.702  1.00  0.00    -0.254 NA
HETATM   13  O   UNL     1       5.817   2.295   0.253  1.00  0.00    -0.254 OA
HETATM   14  H   UNL     1       5.751   0.405   2.656  1.00  0.00     0.128 HD
HETATM   15  H   UNL     1       7.018   0.705   1.565  1.00  0.00     0.128 HD
HETATM   16  H   UNL     1       3.675   0.580   1.764  1.00  0.00     0.164 HD
ENDBRANCH   2  10
ENDBRANCH   1   2
BRANCH   1  17
HETATM   17  C   UNL     1       2.135   4.542   0.021  1.00  0.00     0.224 C 
HETATM   18  N   UNL     1       1.671   4.657  -1.276  1.00  0.00    -0.327 N 
HETATM   19  H   UNL     1       1.994   3.962  -1.938  1.00  0.00     0.169 HD
HETATM   20  O   UNL     1       1.680   5.111   1.010  1.00  0.00    -0.273 OA
BRANCH  18  21
HETATM   21  C   UNL     1       0.755   5.607  -1.773  1.00  0.00     0.035 A 
HETATM   22  C   UNL     1       0.303   6.708  -1.037  1.00  0.00     0.042 A 
HETATM   23  C   UNL     1      -0.567   7.654  -1.606  1.00  0.00    -0.021 A 
HETATM   24  C   UNL     1      -0.986   7.478  -2.930  1.00  0.00     0.012 A 
HETATM   25  C   UNL     1      -0.543   6.381  -3.671  1.00  0.00     0.003 A 
HETATM   26  C   UNL     1       0.326   5.454  -3.096  1.00  0.00     0.029 A 
BRANCH  23  27
HETATM   27  C   UNL     1      -1.011   8.815  -0.850  1.00  0.00     0.010 A 
HETATM   28  C   UNL     1      -1.409  10.105  -1.278  1.00  0.00     0.152 A 
HETATM   29  N   UNL     1      -1.758  10.904  -0.266  1.00  0.00    -0.187 NA
HETATM   30  N   UNL     1      -1.579  10.131   0.817  1.00  0.00    -0.289 N 
HETATM   31  H   UNL     1      -1.779  10.527   1.729  1.00  0.00     0.188 HD
HETATM   32  C   UNL     1      -1.140   8.874   0.522  1.00  0.00     0.123 A 
ENDBRANCH  23  27
ENDBRANCH  18  21
ENDBRANCH   1  17
TORSDOF 6
