REMARK  7 active torsions:
REMARK  status: ('A' for Active; 'I' for Inactive)
REMARK    1  A    between atoms: C_7  and  C_8 
REMARK    2  A    between atoms: C_8  and  N_9 
REMARK       I    between atoms: N_9  and  C_10 
REMARK       I    between atoms: C_10  and  N_11 
REMARK    3  A    between atoms: N_11  and  C_12 
REMARK    4  A    between atoms: C_12  and  C_13 
REMARK    5  A    between atoms: C_13  and  C_14 
REMARK    6  A    between atoms: C_14  and  O_15 
REMARK    7  A    between atoms: C_14  and  C_16 
ROOT
HETATM    1  N   UNL     1       3.181   5.515   0.963  1.00  0.00    -0.337 N 
HETATM    2  C   UNL     1       2.838   6.781   0.557  1.00  0.00     0.316 C 
HETATM    3  N   UNL     1       3.939   7.563   0.371  1.00  0.00    -0.339 N 
HETATM    4  O   UNL     1       1.675   7.147   0.430  1.00  0.00    -0.247 OA
HETATM    5  H   UNL     1       4.073   5.208   0.598  1.00  0.00     0.164 HD
HETATM    6  H   UNL     1       4.807   7.253   0.784  1.00  0.00     0.164 HD
ENDROOT
BRANCH   1   7
HETATM    7  C   UNL     1       2.166   4.487   1.111  1.00  0.00     0.183 C 
BRANCH   7   8
HETATM    8  C   UNL     1       1.316   4.760   2.298  1.00  0.00     0.044 A 
HETATM    9  N   UNL     1       0.576   5.927   2.438  1.00  0.00    -0.343 N 
HETATM   10  C   UNL     1      -0.061   5.953   3.598  1.00  0.00     0.112 A 
HETATM   11  H   UNL     1       0.600   6.682   1.741  1.00  0.00     0.167 HD
HETATM   12  N   UNL     1       0.213   4.799   4.240  1.00  0.00    -0.311 N 
HETATM   13  C   UNL     1      -0.931   6.991   4.196  1.00  0.00     0.049 A 
HETATM   14  C   UNL     1      -0.301   4.504   5.502  1.00  0.00     0.014 A 
HETATM   15  C   UNL     1       1.063   4.040   3.446  1.00  0.00     0.125 A 
HETATM   16  C   UNL     1       0.029   3.214   6.190  1.00  0.00     0.068 C 
HETATM   17  C   UNL     1      -1.098   5.445   6.058  1.00  0.00     0.025 A 
HETATM   18  C   UNL     1      -1.429   6.711   5.412  1.00  0.00     0.006 A 
ENDBRANCH   7   8
ENDBRANCH   1   7
BRANCH   3  19
HETATM   19  C   UNL     1       3.912   8.955  -0.100  1.00  0.00     0.085 C 
HETATM   20  C   UNL     1       3.062   9.841   0.809  1.00  0.00     0.032 C 
BRANCH  19  21
HETATM   21  C   UNL     1       3.523   9.004  -1.592  1.00  0.00     0.063 C 
BRANCH  21  22
HETATM   22  C   UNL     1       3.614  10.372  -2.278  1.00  0.00     0.177 C 
BRANCH  22  23
HETATM   23  O   UNL     1       2.576  11.229  -1.808  1.00  0.00    -0.389 OA
HETATM   24  H   UNL     1       1.743  10.894  -2.182  1.00  0.00     0.210 HD
ENDBRANCH  22  23
BRANCH  22  25
HETATM   25  C   UNL     1       4.911  11.077  -2.079  1.00  0.00     0.081 A 
HETATM   26  O   UNL     1       6.047  10.321  -2.177  1.00  0.00    -0.324 OA
HETATM   27  C   UNL     1       7.100  11.154  -1.978  1.00  0.00     0.142 A 
HETATM   28  C   UNL     1       6.664  12.440  -1.763  1.00  0.00     0.027 A 
HETATM   29  C   UNL     1       5.252  12.392  -1.833  1.00  0.00     0.037 A 
ENDBRANCH  22  25
ENDBRANCH  21  22
ENDBRANCH  19  21
ENDBRANCH   3  19
TORSDOF 7
