REMARK  7 active torsions:
REMARK  status: ('A' for Active; 'I' for Inactive)
REMARK    1  A    between atoms: C_7  and  C_8 
REMARK    2  A    between atoms: C_8  and  C_9 
REMARK    3  A    between atoms: C_9  and  C_10 
REMARK    4  A    between atoms: C_10  and  O_11 
REMARK    5  A    between atoms: C_13  and  C_14 
REMARK    6  A    between atoms: C_21  and  C_22 
REMARK       I    between atoms: C_22  and  N_23 
REMARK    7  A    between atoms: N_23  and  C_24 
ROOT
HETATM    1  C   UNL     1       0.997   0.116   0.249  1.00  0.00     0.070 C 
HETATM    2  C   UNL     1       2.481  -0.038   0.023  1.00  0.00     0.037 C 
HETATM    3  N   UNL     1       3.188   1.154  -0.152  1.00  0.00    -0.192 N 
HETATM    4  C   UNL     1       4.533   1.210  -0.064  1.00  0.00     0.726 A 
HETATM    5  N   UNL     1       5.246   0.047  -0.105  1.00  0.00    -0.083 N 
HETATM    6  N   UNL     1       6.559   0.257   0.114  1.00  0.00    -0.140 NA
HETATM    7  C   UNL     1       6.575   1.592   0.250  1.00  0.00     0.166 A 
HETATM    8  N   UNL     1       5.351   2.213   0.133  1.00  0.00    -0.046 NA
HETATM    9  C   UNL     1       4.641  -1.273  -0.272  1.00  0.00     0.202 C 
HETATM   10  C   UNL     1       3.139  -1.229   0.003  1.00  0.00     0.062 C 
HETATM   11  H   UNL     1       2.674   2.014   0.029  1.00  0.00     0.184 HD
ENDROOT
BRANCH  10  12
HETATM   12  C   UNL     1       2.475  -2.484   0.483  1.00  0.00     0.256 C 
HETATM   13  N   UNL     1       2.923  -3.642  -0.115  1.00  0.00    -0.323 N 
HETATM   14  H   UNL     1       3.550  -3.569  -0.904  1.00  0.00     0.169 HD
HETATM   15  O   UNL     1       1.655  -2.417   1.392  1.00  0.00    -0.267 OA
BRANCH  13  16
HETATM   16  C   UNL     1       2.617  -4.970   0.261  1.00  0.00     0.035 A 
HETATM   17  C   UNL     1       1.707  -5.315   1.262  1.00  0.00     0.029 A 
HETATM   18  C   UNL     1       1.486  -6.657   1.590  1.00  0.00     0.002 A 
HETATM   19  C   UNL     1       2.180  -7.665   0.926  1.00  0.00     0.000 A 
HETATM   20  C   UNL     1       3.089  -7.334  -0.074  1.00  0.00     0.002 A 
HETATM   21  C   UNL     1       3.301  -5.994  -0.410  1.00  0.00     0.029 A 
ENDBRANCH  13  16
ENDBRANCH  10  12
BRANCH   9  22
HETATM   22  C   UNL     1       4.992  -1.801  -1.667  1.00  0.00    -0.028 A 
HETATM   23  C   UNL     1       6.079  -2.679  -1.825  1.00  0.00     0.011 A 
HETATM   24  C   UNL     1       6.421  -3.172  -3.086  1.00  0.00     0.019 A 
HETATM   25  C   UNL     1       5.684  -2.788  -4.204  1.00  0.00     0.011 A 
HETATM   26 BR   UNL     1       6.147  -3.455  -5.910  1.00  0.00    -0.051 Br
HETATM   27  C   UNL     1       4.613  -1.909  -4.073  1.00  0.00     0.019 A 
HETATM   28  C   UNL     1       4.273  -1.411  -2.813  1.00  0.00     0.011 A 
ENDBRANCH   9  22
BRANCH   7  29
HETATM   29  C   UNL     1       7.817   2.341   0.565  1.00  0.00     0.085 C 
BRANCH  29  30
HETATM   30  C   UNL     1       8.076   2.472   2.065  1.00  0.00     0.034 C 
BRANCH  30  31
HETATM   31  C   UNL     1       8.353   1.136   2.747  1.00  0.00     0.164 C 
BRANCH  31  32
HETATM   32  O   UNL     1       8.710   1.358   4.108  1.00  0.00    -0.401 OA
HETATM   33  H   UNL     1       9.533   1.875   4.115  1.00  0.00     0.209 HD
ENDBRANCH  31  32
ENDBRANCH  30  31
ENDBRANCH  29  30
ENDBRANCH   7  29
TORSDOF 7
