REMARK  7 active torsions:
REMARK  status: ('A' for Active; 'I' for Inactive)
REMARK    1  A    between atoms: C_4  and  N_5 
REMARK    2  A    between atoms: C_11  and  C_12 
REMARK    3  A    between atoms: C_12  and  C_13 
REMARK    4  A    between atoms: C_13  and  C_14 
REMARK       I    between atoms: C_14  and  N_15 
REMARK    5  A    between atoms: N_15  and  C_16 
REMARK    6  A    between atoms: N_19  and  C_21 
REMARK    7  A    between atoms: C_21  and  C_22 
ROOT
HETATM    1  C   UNL     1       7.264  -7.480  -0.823  1.00  0.00     0.110 C 
ENDROOT
BRANCH   1   2
HETATM    2  C   UNL     1       7.237  -8.996  -0.894  1.00  0.00     0.088 C 
BRANCH   2   3
HETATM    3  C   UNL     1       6.453  -9.486  -2.084  1.00  0.00     0.109 A 
HETATM    4  N   UNL     1       5.285 -10.031  -1.890  1.00  0.00    -0.215 NA
HETATM    5  C   UNL     1       4.683 -10.451  -3.041  1.00  0.00     0.170 A 
HETATM    6  N   UNL     1       3.498 -11.177  -3.187  1.00  0.00    -0.215 N 
HETATM    7  C   UNL     1       5.168 -10.268  -4.318  1.00  0.00     0.099 A 
HETATM    8  N   UNL     1       3.183 -11.321  -4.513  1.00  0.00    -0.177 NA
HETATM    9  C   UNL     1       4.217 -10.805  -5.178  1.00  0.00     0.160 A 
HETATM   10  C   UNL     1       6.433  -9.628  -4.511  1.00  0.00     0.262 A 
HETATM   11  N   UNL     1       7.035  -9.280  -3.318  1.00  0.00    -0.311 N 
HETATM   12  O   UNL     1       6.944  -9.405  -5.599  1.00  0.00    -0.267 OA
HETATM   13  H   UNL     1       7.944  -8.849  -3.416  1.00  0.00     0.170 HD
BRANCH   6  14
HETATM   14  C   UNL     1       2.651 -11.758  -2.194  1.00  0.00     0.060 A 
HETATM   15  C   UNL     1       1.481 -12.421  -2.602  1.00  0.00     0.031 A 
HETATM   16  C   UNL     1       0.645 -13.031  -1.664  1.00  0.00     0.002 A 
HETATM   17  C   UNL     1       0.968 -12.987  -0.311  1.00  0.00     0.000 A 
HETATM   18  C   UNL     1       2.127 -12.335   0.105  1.00  0.00     0.002 A 
HETATM   19  C   UNL     1       2.969 -11.723  -0.830  1.00  0.00     0.031 A 
ENDBRANCH   6  14
ENDBRANCH   2   3
ENDBRANCH   1   2
BRANCH   1  20
HETATM   20  C   UNL     1       5.938  -6.736  -0.759  1.00  0.00     0.218 C 
HETATM   21  N   UNL     1       4.866  -7.393  -0.193  1.00  0.00    -0.356 N 
HETATM   22  H   UNL     1       4.867  -8.401  -0.346  1.00  0.00     0.162 HD
HETATM   23  O   UNL     1       5.903  -5.545  -1.056  1.00  0.00    -0.274 OA
BRANCH  21  24
HETATM   24  C   UNL     1       3.510  -6.831  -0.054  1.00  0.00     0.087 C 
HETATM   25  C   UNL     1       3.392  -5.311   0.097  1.00  0.00     0.053 C 
HETATM   26  C   UNL     1       4.109  -4.811   1.338  1.00  0.00     0.237 C 
HETATM   27  N   UNL     1       3.542  -5.486   2.574  1.00  0.00    -0.067 N 
HETATM   28  H   UNL     1       2.582  -5.137   2.687  1.00  0.00     0.280 HD
HETATM   29  C   UNL     1       3.496  -6.995   2.464  1.00  0.00     0.237 C 
HETATM   30  C   UNL     1       2.832  -7.454   1.170  1.00  0.00     0.053 C 
BRANCH  27  31
HETATM   31  C   UNL     1       4.295  -5.092   3.837  1.00  0.00     0.273 C 
BRANCH  31  32
HETATM   32  C   UNL     1       4.408  -3.611   4.077  1.00  0.00    -0.033 A 
HETATM   33  C   UNL     1       3.330  -2.880   4.598  1.00  0.00     0.010 A 
HETATM   34  C   UNL     1       3.450  -1.503   4.813  1.00  0.00     0.024 A 
HETATM   35  C   UNL     1       4.641  -0.848   4.503  1.00  0.00     0.034 A 
HETATM   36 CL   UNL     1       4.782   0.844   4.768  1.00  0.00    -0.084 Cl
HETATM   37  C   UNL     1       5.717  -1.560   3.981  1.00  0.00     0.024 A 
HETATM   38  C   UNL     1       5.603  -2.936   3.771  1.00  0.00     0.010 A 
ENDBRANCH  31  32
ENDBRANCH  27  31
ENDBRANCH  21  24
ENDBRANCH   1  20
TORSDOF 7
