REMARK  8 active torsions:
REMARK  status: ('A' for Active; 'I' for Inactive)
REMARK    1  A    between atoms: C_7  and  N_8 
REMARK    2  A    between atoms: N_8  and  C_9 
REMARK    3  A    between atoms: C_9  and  C_10 
REMARK    4  A    between atoms: C_18  and  N_19 
REMARK    5  A    between atoms: N_19  and  C_20 
REMARK    6  A    between atoms: C_20  and  C_21 
REMARK    7  A    between atoms: C_21  and  C_22 
REMARK    8  A    between atoms: C_22  and  O_23 
ROOT
HETATM    1  C   UNL     1      -2.503   0.790   0.227  1.00  0.00     0.001 A 
HETATM    2  C   UNL     1      -1.299   1.425  -0.086  1.00  0.00     0.017 A 
HETATM    3  C   UNL     1      -0.069   0.728  -0.033  1.00  0.00     0.036 A 
HETATM    4  C   UNL     1      -0.106  -0.636   0.325  1.00  0.00     0.048 A 
HETATM    5  N   UNL     1       1.034  -1.331   0.335  1.00  0.00    -0.330 N 
HETATM    6  H   UNL     1       1.071  -2.304   0.611  1.00  0.00     0.168 HD
HETATM    7  C   UNL     1       2.185  -0.766  -0.004  1.00  0.00     0.182 A 
HETATM    8  N   UNL     1       2.318   0.528  -0.312  1.00  0.00    -0.202 NA
HETATM    9  C   UNL     1       1.202   1.282  -0.320  1.00  0.00     0.139 A 
HETATM   10  C   UNL     1      -1.316  -1.267   0.648  1.00  0.00     0.030 A 
HETATM   11  C   UNL     1      -2.512  -0.551   0.598  1.00  0.00     0.002 A 
ENDROOT
BRANCH   7  12
HETATM   12  N   UNL     1       3.317  -1.576  -0.009  1.00  0.00    -0.258 NA
HETATM   13  H   UNL     1       4.100  -0.915   0.030  1.00  0.00     0.130 HD
BRANCH  12  14
HETATM   14  C   UNL     1       3.427  -2.291  -1.285  1.00  0.00     0.134 C 
BRANCH  14  15
HETATM   15  C   UNL     1       4.822  -2.843  -1.432  1.00  0.00    -0.045 A 
HETATM   16  C   UNL     1       5.139  -4.132  -0.974  1.00  0.00     0.011 A 
HETATM   17  C   UNL     1       6.435  -4.632  -1.118  1.00  0.00     0.043 A 
HETATM   18  C   UNL     1       7.415  -3.843  -1.708  1.00  0.00     0.116 A 
HETATM   19  F   UNL     1       8.655  -4.326  -1.847  1.00  0.00    -0.206 F 
HETATM   20  C   UNL     1       7.126  -2.560  -2.154  1.00  0.00     0.043 A 
HETATM   21  C   UNL     1       5.832  -2.057  -2.015  1.00  0.00     0.011 A 
ENDBRANCH  14  15
ENDBRANCH  12  14
ENDBRANCH   7  12
BRANCH   9  22
HETATM   22  N   UNL     1       1.299   2.619  -0.707  1.00  0.00    -0.374 N 
HETATM   23  H   UNL     1       0.730   3.237  -0.131  1.00  0.00     0.161 HD
BRANCH  22  24
HETATM   24  C   UNL     1       2.605   3.206  -1.009  1.00  0.00     0.123 C 
BRANCH  24  25
HETATM   25  C   UNL     1       3.173   3.985   0.175  1.00  0.00     0.045 C 
BRANCH  25  26
HETATM   26  C   UNL     1       3.718   3.093   1.280  1.00  0.00     0.165 C 
BRANCH  26  27
HETATM   27  O   UNL     1       4.191   3.891   2.356  1.00  0.00    -0.401 OA
HETATM   28  H   UNL     1       4.915   4.453   2.028  1.00  0.00     0.209 HD
ENDBRANCH  26  27
ENDBRANCH  25  26
ENDBRANCH  24  25
ENDBRANCH  22  24
ENDBRANCH   9  22
TORSDOF 8
