REMARK  6 active torsions:
REMARK  status: ('A' for Active; 'I' for Inactive)
REMARK    1  A    between atoms: O_2  and  C_3 
REMARK    2  A    between atoms: C_6  and  C_7 
REMARK    3  A    between atoms: C_11  and  C_12 
REMARK       I    between atoms: C_12  and  N_13 
REMARK    4  A    between atoms: N_13  and  N_14 
REMARK       I    between atoms: N_14  and  C_15 
REMARK    5  A    between atoms: C_15  and  C_16 
REMARK    6  A    between atoms: C_16  and  C_17 
ROOT
HETATM    1  C   UNL     1       4.939  -8.542  -1.334  1.00  0.00     0.288 C 
HETATM    2  N   UNL     1       3.843  -9.128  -0.736  1.00  0.00    -0.262 N 
HETATM    3  O   UNL     1       5.736  -9.192  -2.009  1.00  0.00    -0.264 OA
HETATM    4  H   UNL     1       3.095  -8.576  -0.320  1.00  0.00     0.190 HD
ENDROOT
BRANCH   1   5
HETATM    5  C   UNL     1       5.068  -7.125  -1.132  1.00  0.00     0.121 A 
HETATM    6  N   UNL     1       6.139  -6.422  -1.607  1.00  0.00    -0.272 N 
HETATM    7  N   UNL     1       6.097  -5.108  -1.341  1.00  0.00    -0.174 NA
HETATM    8  H   UNL     1       6.932  -6.793  -2.122  1.00  0.00     0.189 HD
HETATM    9  C   UNL     1       4.938  -4.929  -0.688  1.00  0.00     0.089 A 
HETATM   10  C   UNL     1       4.274  -6.177  -0.518  1.00  0.00     0.071 A 
BRANCH   9  11
HETATM   11  C   UNL     1       4.495  -3.603  -0.247  1.00  0.00    -0.005 A 
HETATM   12  C   UNL     1       3.152  -3.355   0.064  1.00  0.00     0.016 A 
HETATM   13  C   UNL     1       2.743  -2.084   0.483  1.00  0.00     0.037 A 
HETATM   14  C   UNL     1       3.661  -1.040   0.603  1.00  0.00     0.068 A 
HETATM   15  C   UNL     1       4.999  -1.275   0.289  1.00  0.00     0.037 A 
HETATM   16  C   UNL     1       5.410  -2.546  -0.135  1.00  0.00     0.016 A 
BRANCH  14  17
HETATM   17  O   UNL     1       3.127   0.145   1.026  1.00  0.00    -0.356 OA
HETATM   18  C   UNL     1       4.033   1.224   1.219  1.00  0.00     0.210 C 
ENDBRANCH  14  17
ENDBRANCH   9  11
ENDBRANCH   1   5
BRANCH   2  19
HETATM   19  N   UNL     1       3.480 -10.425  -1.134  1.00  0.00    -0.267 N 
HETATM   20  C   UNL     1       2.129 -10.699  -1.209  1.00  0.00     0.240 C 
HETATM   21  O   UNL     1       1.281  -9.935  -0.748  1.00  0.00    -0.272 OA
HETATM   22  H   UNL     1       4.181 -10.953  -1.655  1.00  0.00     0.190 HD
BRANCH  20  23
HETATM   23  C   UNL     1       1.784 -12.005  -1.894  1.00  0.00     0.148 C 
BRANCH  23  24
HETATM   24  C   UNL     1       1.670 -13.154  -0.928  1.00  0.00     0.011 A 
HETATM   25  C   UNL     1       2.752 -13.969  -0.570  1.00  0.00     0.043 A 
HETATM   26 CL   UNL     1       4.329 -13.734  -1.236  1.00  0.00    -0.084 Cl
HETATM   27  C   UNL     1       2.587 -15.016   0.346  1.00  0.00     0.024 A 
HETATM   28  C   UNL     1       1.341 -15.257   0.925  1.00  0.00     0.005 A 
HETATM   29  C   UNL     1       0.261 -14.448   0.589  1.00  0.00     0.043 A 
HETATM   30  C   UNL     1       0.433 -13.411  -0.325  1.00  0.00     0.124 A 
HETATM   31  F   UNL     1      -0.629 -12.654  -0.634  1.00  0.00    -0.205 F 
ENDBRANCH  23  24
ENDBRANCH  20  23
ENDBRANCH   2  19
TORSDOF 6
