REMARK  2 active torsions:
REMARK  status: ('A' for Active; 'I' for Inactive)
REMARK    1  A    between atoms: N_3  and  C_4 
REMARK    2  A    between atoms: C_12  and  C_13 
REMARK       I    between atoms: C_13  and  N_14 
ROOT
HETATM    1  C   UNL     1       2.407  -2.413   0.107  1.00  0.00     0.262 C 
HETATM    2  N   UNL     1       1.064  -2.829   0.188  1.00  0.00    -0.311 N 
HETATM    3  C   UNL     1       0.128  -2.463   1.192  1.00  0.00     0.064 A 
HETATM    4  C   UNL     1      -0.849  -3.351   1.688  1.00  0.00     0.061 A 
HETATM    5  C   UNL     1      -1.736  -2.891   2.681  1.00  0.00     0.032 A 
HETATM    6  C   UNL     1      -1.686  -1.583   3.160  1.00  0.00     0.002 A 
HETATM    7  C   UNL     1      -0.749  -0.700   2.647  1.00  0.00     0.002 A 
HETATM    8  C   UNL     1       0.144  -1.135   1.668  1.00  0.00     0.032 A 
HETATM    9  N   UNL     1      -1.041  -4.702   1.329  1.00  0.00    -0.325 N 
HETATM   10  C   UNL     1      -0.478  -5.543   0.422  1.00  0.00     0.227 C 
HETATM   11  O   UNL     1      -0.936  -6.690   0.380  1.00  0.00    -0.273 OA
HETATM   12  C   UNL     1       0.694  -5.139  -0.442  1.00  0.00     0.092 C 
HETATM   13  C   UNL     1       0.785  -6.049  -1.671  1.00  0.00     0.021 C 
HETATM   14  C   UNL     1       0.561  -3.694  -0.873  1.00  0.00     0.146 C 
HETATM   15  O   UNL     1       3.036  -2.502  -0.949  1.00  0.00    -0.267 OA
HETATM   16  H   UNL     1      -1.788  -5.188   1.815  1.00  0.00     0.169 HD
ENDROOT
BRANCH   1  17
HETATM   17  C   UNL     1       3.104  -1.969   1.317  1.00  0.00     0.075 C 
HETATM   18  C   UNL     1       4.197  -1.103   1.364  1.00  0.00     0.050 C 
HETATM   19  C   UNL     1       4.803  -0.332   0.244  1.00  0.00     0.071 C 
HETATM   20  N   UNL     1       4.600  -1.038   2.695  1.00  0.00    -0.238 N 
HETATM   21  N   UNL     1       3.724  -1.700   3.497  1.00  0.00    -0.179 NA
HETATM   22  C   UNL     1       2.902  -2.327   2.662  1.00  0.00     0.158 C 
BRANCH  20  23
HETATM   23  C   UNL     1       5.736  -0.419   3.296  1.00  0.00     0.061 A 
HETATM   24  C   UNL     1       5.713  -0.157   4.672  1.00  0.00     0.051 A 
HETATM   25  C   UNL     1       6.817   0.444   5.251  1.00  0.00     0.118 A 
HETATM   26  N   UNL     1       7.930   0.779   4.568  1.00  0.00    -0.273 NA
HETATM   27  C   UNL     1       7.944   0.488   3.251  1.00  0.00     0.118 A 
HETATM   28  C   UNL     1       6.887  -0.103   2.575  1.00  0.00     0.051 A 
ENDBRANCH  20  23
ENDBRANCH   1  17
TORSDOF 2
