REMARK  5 active torsions:
REMARK  status: ('A' for Active; 'I' for Inactive)
REMARK    1  A    between atoms: C_2  and  O_3 
REMARK    2  A    between atoms: C_2  and  C_4 
REMARK    3  A    between atoms: C_4  and  N_5 
REMARK       I    between atoms: N_5  and  C_6 
REMARK    4  A    between atoms: C_6  and  C_7 
REMARK    5  A    between atoms: C_15  and  C_16 
ROOT
HETATM    1  C   UNL     1       4.532   2.927   2.614  1.00  0.00     0.046 A 
HETATM    2  C   UNL     1       4.869   4.294   2.502  1.00  0.00     0.008 A 
HETATM    3  C   UNL     1       4.207   5.164   3.386  1.00  0.00     0.068 A 
HETATM    4  C   UNL     1       4.500   6.521   3.338  1.00  0.00     0.032 A 
HETATM    5  C   UNL     1       5.431   7.047   2.441  1.00  0.00     0.002 A 
HETATM    6  C   UNL     1       6.094   6.199   1.566  1.00  0.00     0.001 A 
HETATM    7  C   UNL     1       5.819   4.833   1.596  1.00  0.00     0.015 A 
HETATM    8  N   UNL     1       3.302   4.744   4.287  1.00  0.00    -0.248 NA
HETATM    9  C   UNL     1       2.972   3.432   4.361  1.00  0.00     0.068 A 
HETATM   10  C   UNL     1       3.576   2.496   3.539  1.00  0.00     0.050 A 
ENDROOT
BRANCH   1  11
HETATM   11  C   UNL     1       5.155   1.896   1.747  1.00  0.00     0.252 C 
HETATM   12  N   UNL     1       5.653   0.797   2.412  1.00  0.00    -0.354 N 
HETATM   13  H   UNL     1       5.694   0.795   3.423  1.00  0.00     0.162 HD
HETATM   14  O   UNL     1       5.210   2.043   0.534  1.00  0.00    -0.268 OA
BRANCH  12  15
HETATM   15  C   UNL     1       6.285  -0.300   1.701  1.00  0.00     0.154 C 
BRANCH  15  16
HETATM   16  C   UNL     1       7.693   0.017   1.173  1.00  0.00     0.132 C 
HETATM   17  C   UNL     1       8.660   0.388   2.290  1.00  0.00     0.041 C 
BRANCH  16  18
HETATM   18  O   UNL     1       8.200  -1.144   0.510  1.00  0.00    -0.394 OA
HETATM   19  H   UNL     1       9.012  -0.876   0.045  1.00  0.00     0.210 HD
ENDBRANCH  16  18
ENDBRANCH  15  16
ENDBRANCH  12  15
ENDBRANCH   1  11
BRANCH   9  20
HETATM   20  C   UNL     1       1.954   3.084   5.376  1.00  0.00    -0.007 A 
HETATM   21  C   UNL     1       1.084   1.987   5.225  1.00  0.00     0.015 A 
HETATM   22  C   UNL     1       0.133   1.669   6.203  1.00  0.00     0.024 A 
HETATM   23  C   UNL     1       0.032   2.449   7.351  1.00  0.00     0.034 A 
HETATM   24 CL   UNL     1      -1.135   2.057   8.552  1.00  0.00    -0.084 Cl
HETATM   25  C   UNL     1       0.867   3.545   7.526  1.00  0.00     0.024 A 
HETATM   26  C   UNL     1       1.816   3.858   6.546  1.00  0.00     0.015 A 
ENDBRANCH   9  20
TORSDOF 5
