REMARK  2 active torsions:
REMARK  status: ('A' for Active; 'I' for Inactive)
REMARK    1  A    between atoms: C_7  and  C_8 
REMARK       I    between atoms: C_8  and  N_9 
REMARK    2  A    between atoms: N_9  and  C_10 
ROOT
HETATM    1  C   UNL     1       4.044  -4.835  -0.092  1.00  0.00     0.256 C 
HETATM    2  N   UNL     1       2.909  -5.278  -0.751  1.00  0.00    -0.323 N 
HETATM    3  O   UNL     1       4.908  -5.541   0.415  1.00  0.00    -0.267 OA
HETATM    4  H   UNL     1       2.315  -4.577  -1.171  1.00  0.00     0.169 HD
ENDROOT
BRANCH   1   5
HETATM    5  C   UNL     1       4.225  -3.351  -0.043  1.00  0.00     0.033 A 
HETATM    6  C   UNL     1       5.534  -2.857   0.022  1.00  0.00     0.019 A 
HETATM    7  C   UNL     1       5.792  -1.484   0.054  1.00  0.00     0.031 A 
HETATM    8  C   UNL     1       4.693  -0.620   0.019  1.00  0.00     0.043 A 
HETATM    9  C   UNL     1       3.375  -1.068  -0.031  1.00  0.00    -0.001 A 
HETATM   10  N   UNL     1       4.653   0.754   0.036  1.00  0.00    -0.359 N 
HETATM   11  C   UNL     1       2.529   0.088  -0.053  1.00  0.00    -0.027 A 
HETATM   12  C   UNL     1       3.137  -2.461  -0.047  1.00  0.00     0.031 A 
HETATM   13  C   UNL     1       1.042   0.105  -0.108  1.00  0.00     0.051 C 
HETATM   14  C   UNL     1       3.357   1.199  -0.008  1.00  0.00     0.012 A 
HETATM   15  C   UNL     1       3.032   2.650  -0.002  1.00  0.00     0.068 C 
HETATM   16  H   UNL     1       5.471   1.346   0.078  1.00  0.00     0.166 HD
ENDBRANCH   1   5
BRANCH   2  17
HETATM   17  C   UNL     1       2.519  -6.618  -0.977  1.00  0.00     0.037 A 
HETATM   18  C   UNL     1       3.279  -7.724  -0.579  1.00  0.00     0.061 A 
HETATM   19  C   UNL     1       2.785  -8.971  -0.890  1.00  0.00     0.065 A 
HETATM   20  C   UNL     1       1.578  -9.153  -1.559  1.00  0.00     0.063 A 
HETATM   21  N   UNL     1       3.328 -10.228  -0.640  1.00  0.00    -0.306 N 
HETATM   22  N   UNL     1       1.376 -10.518  -1.719  1.00  0.00    -0.307 N 
HETATM   23  C   UNL     1       0.802  -8.095  -1.957  1.00  0.00     0.034 A 
HETATM   24  C   UNL     1       2.462 -11.203  -1.154  1.00  0.00     0.325 A 
HETATM   25  H   UNL     1       0.601 -10.976  -2.168  1.00  0.00     0.170 HD
HETATM   26  O   UNL     1       2.620 -12.411  -1.121  1.00  0.00    -0.247 OA
HETATM   27  C   UNL     1       1.288  -6.814  -1.661  1.00  0.00     0.032 A 
HETATM   28  H   UNL     1       4.199 -10.431  -0.178  1.00  0.00     0.170 HD
ENDBRANCH   2  17
TORSDOF 2
