REMARK  8 active torsions:
REMARK  status: ('A' for Active; 'I' for Inactive)
REMARK    1  A    between atoms: C_7  and  C_8 
REMARK    2  A    between atoms: C_11  and  O_12 
REMARK    3  A    between atoms: O_12  and  C_13 
REMARK    4  A    between atoms: C_13  and  C_14 
REMARK       I    between atoms: C_14  and  N_15 
REMARK    5  A    between atoms: N_15  and  N_16 
REMARK       I    between atoms: N_16  and  C_17 
REMARK    6  A    between atoms: C_17  and  C_18 
REMARK    7  A    between atoms: C_18  and  N_19 
REMARK       I    between atoms: N_19  and  C_20 
REMARK    8  A    between atoms: C_20  and  C_21 
ROOT
HETATM    1  C   UNL     1     -12.484 -11.427  -6.690  1.00  0.00     0.023 A 
HETATM    2  C   UNL     1     -12.715 -12.801  -6.594  1.00  0.00     0.044 A 
HETATM    3  C   UNL     1     -13.897 -13.376  -7.166  1.00  0.00     0.099 C 
HETATM    4  N   UNL     1     -14.854 -13.841  -7.629  1.00  0.00    -0.191 NA
HETATM    5  C   UNL     1     -11.787 -13.610  -5.935  1.00  0.00     0.023 A 
HETATM    6  C   UNL     1     -10.635 -13.045  -5.375  1.00  0.00     0.014 A 
HETATM    7  C   UNL     1     -10.383 -11.665  -5.461  1.00  0.00    -0.026 A 
HETATM    8  C   UNL     1     -11.329 -10.868  -6.130  1.00  0.00     0.014 A 
ENDROOT
BRANCH   7   9
HETATM    9  C   UNL     1      -9.169 -11.071  -4.867  1.00  0.00    -0.026 A 
HETATM   10  C   UNL     1      -7.903 -11.642  -5.066  1.00  0.00     0.015 A 
HETATM   11  C   UNL     1      -6.756 -11.077  -4.497  1.00  0.00     0.037 A 
HETATM   12  C   UNL     1      -6.841  -9.920  -3.722  1.00  0.00     0.069 A 
HETATM   13  C   UNL     1      -8.091  -9.340  -3.510  1.00  0.00     0.037 A 
HETATM   14  C   UNL     1      -9.239  -9.912  -4.076  1.00  0.00     0.015 A 
BRANCH  12  15
HETATM   15  O   UNL     1      -5.650  -9.471  -3.220  1.00  0.00    -0.342 OA
BRANCH  15  16
HETATM   16  C   UNL     1      -5.660  -8.179  -2.623  1.00  0.00     0.280 C 
BRANCH  16  17
HETATM   17  C   UNL     1      -4.273  -7.748  -2.154  1.00  0.00     0.260 C 
HETATM   18  N   UNL     1      -3.306  -8.732  -2.212  1.00  0.00    -0.266 N 
HETATM   19  H   UNL     1      -3.592  -9.707  -2.317  1.00  0.00     0.190 HD
HETATM   20  O   UNL     1      -4.048  -6.614  -1.728  1.00  0.00    -0.269 OA
BRANCH  18  21
HETATM   21  N   UNL     1      -2.106  -8.501  -1.525  1.00  0.00    -0.266 N 
HETATM   22  C   UNL     1      -1.673  -9.455  -0.626  1.00  0.00     0.253 C 
HETATM   23  O   UNL     1      -2.114 -10.605  -0.603  1.00  0.00    -0.270 OA
HETATM   24  H   UNL     1      -1.764  -7.539  -1.500  1.00  0.00     0.190 HD
BRANCH  22  25
HETATM   25  C   UNL     1      -0.522  -8.999   0.265  1.00  0.00     0.227 C 
BRANCH  25  26
HETATM   26  N   UNL     1       0.746  -9.426  -0.289  1.00  0.00    -0.352 N 
HETATM   27  C   UNL     1       1.403  -8.643  -1.213  1.00  0.00     0.222 C 
HETATM   28  O   UNL     1       0.961  -7.556  -1.572  1.00  0.00    -0.273 OA
HETATM   29  H   UNL     1       0.976 -10.411  -0.230  1.00  0.00     0.162 HD
BRANCH  27  30
HETATM   30  C   UNL     1       2.694  -9.266  -1.754  1.00  0.00     0.078 C 
HETATM   31  C   UNL     1       3.302  -8.445  -2.901  1.00  0.00     0.014 C 
HETATM   32  C   UNL     1       4.013  -7.176  -2.432  1.00  0.00     0.001 C 
HETATM   33  C   UNL     1       5.026  -7.462  -1.330  1.00  0.00     0.000 C 
HETATM   34  C   UNL     1       4.391  -8.217  -0.169  1.00  0.00     0.001 C 
HETATM   35  C   UNL     1       3.723  -9.508  -0.640  1.00  0.00     0.014 C 
ENDBRANCH  27  30
ENDBRANCH  25  26
ENDBRANCH  22  25
ENDBRANCH  18  21
ENDBRANCH  16  17
ENDBRANCH  15  16
ENDBRANCH  12  15
ENDBRANCH   7   9
TORSDOF 8
