REMARK  2 active torsions:
REMARK  status: ('A' for Active; 'I' for Inactive)
REMARK    1  A    between atoms: C_8  and  S_9 
REMARK    2  A    between atoms: S_9  and  C_10 
ROOT
HETATM    1  C   UNL     1      -2.027   0.065   1.607  1.00  0.00     0.002 A 
HETATM    2  C   UNL     1      -0.828   0.778   1.579  1.00  0.00     0.034 A 
HETATM    3  C   UNL     1       0.243   0.355   0.802  1.00  0.00     0.087 A 
HETATM    4  C   UNL     1       0.112  -0.825   0.026  1.00  0.00     0.087 A 
HETATM    5  N   UNL     1       1.122  -1.269  -0.751  1.00  0.00    -0.231 NA
HETATM    6  C   UNL     1       2.279  -0.571  -0.727  1.00  0.00     0.167 A 
HETATM    7 CL   UNL     1       3.439  -1.175  -1.831  1.00  0.00    -0.059 Cl
HETATM    8  C   UNL     1       2.398   0.568   0.034  1.00  0.00     0.192 A 
HETATM    9  N   UNL     1       1.383   1.073   0.791  1.00  0.00    -0.232 NA
HETATM   10  C   UNL     1      -1.088  -1.524   0.061  1.00  0.00     0.034 A 
HETATM   11  C   UNL     1      -2.157  -1.089   0.845  1.00  0.00     0.002 A 
ENDROOT
BRANCH   8  12
HETATM   12  S   UNL     1       3.858   1.553   0.088  1.00  0.00     0.200 S 
HETATM   13  O   UNL     1       3.793   2.431   1.244  1.00  0.00    -0.221 OA
HETATM   14  O   UNL     1       5.023   0.710  -0.081  1.00  0.00    -0.221 OA
BRANCH  12  15
HETATM   15  C   UNL     1       3.745   2.619  -1.354  1.00  0.00     0.118 C 
HETATM   16  C   UNL     1       5.049   3.411  -1.541  1.00  0.00     0.048 C 
HETATM   17  C   UNL     1       5.217   4.532  -0.524  1.00  0.00     0.233 C 
HETATM   18  N   UNL     1       4.015   5.415  -0.562  1.00  0.00    -0.075 N 
HETATM   19  H   UNL     1       3.985   5.931  -1.452  1.00  0.00     0.277 HD
HETATM   20  H   UNL     1       4.131   6.139   0.164  1.00  0.00     0.277 HD
HETATM   21  C   UNL     1       2.712   4.731  -0.322  1.00  0.00     0.233 C 
HETATM   22  C   UNL     1       2.545   3.576  -1.304  1.00  0.00     0.048 C 
ENDBRANCH  12  15
ENDBRANCH   8  12
TORSDOF 2
