REMARK  6 active torsions:
REMARK  status: ('A' for Active; 'I' for Inactive)
REMARK    1  A    between atoms: C_4  and  C_5 
REMARK    2  A    between atoms: C_9  and  C_10 
REMARK       I    between atoms: C_10  and  N_11 
REMARK    3  A    between atoms: N_11  and  N_12 
REMARK       I    between atoms: N_12  and  C_13 
REMARK    4  A    between atoms: C_13  and  C_14 
REMARK    5  A    between atoms: C_14  and  O_15 
REMARK    6  A    between atoms: O_15  and  C_16 
ROOT
HETATM    1  C   UNL     1       7.621  -3.385  -0.299  1.00  0.00     0.288 C 
HETATM    2  N   UNL     1       6.359  -2.975  -0.688  1.00  0.00    -0.262 N 
HETATM    3  O   UNL     1       8.587  -2.746  -0.717  1.00  0.00    -0.264 OA
HETATM    4  H   UNL     1       6.327  -2.118  -1.234  1.00  0.00     0.190 HD
ENDROOT
BRANCH   2   5
HETATM    5  N   UNL     1       5.153  -3.497  -0.236  1.00  0.00    -0.265 N 
HETATM    6  C   UNL     1       4.441  -4.456  -0.929  1.00  0.00     0.260 C 
HETATM    7  O   UNL     1       3.247  -4.597  -0.666  1.00  0.00    -0.269 OA
HETATM    8  H   UNL     1       4.596  -2.912   0.383  1.00  0.00     0.190 HD
BRANCH   6   9
HETATM    9  C   UNL     1       5.203  -5.323  -1.941  1.00  0.00     0.280 C 
BRANCH   9  10
HETATM   10  O   UNL     1       4.379  -6.145  -2.763  1.00  0.00    -0.342 OA
BRANCH  10  11
HETATM   11  C   UNL     1       4.315  -7.451  -2.357  1.00  0.00     0.070 A 
HETATM   12  C   UNL     1       4.637  -8.423  -3.304  1.00  0.00     0.049 A 
HETATM   13  C   UNL     1       4.530  -9.790  -2.995  1.00  0.00    -0.023 A 
HETATM   14  C   UNL     1       4.072 -10.176  -1.715  1.00  0.00    -0.026 A 
HETATM   15  C   UNL     1       4.856 -10.783  -3.935  1.00  0.00     0.012 A 
HETATM   16  C   UNL     1       3.743  -9.185  -0.777  1.00  0.00     0.015 A 
HETATM   17  C   UNL     1       3.940 -11.542  -1.414  1.00  0.00     0.012 A 
HETATM   18  C   UNL     1       3.857  -7.830  -1.098  1.00  0.00     0.037 A 
HETATM   19  C   UNL     1       4.262 -12.515  -2.361  1.00  0.00     0.001 A 
HETATM   20  C   UNL     1       4.723 -12.137  -3.618  1.00  0.00     0.001 A 
ENDBRANCH  10  11
ENDBRANCH   9  10
ENDBRANCH   6   9
ENDBRANCH   2   5
BRANCH   1  21
HETATM   21  C   UNL     1       7.796  -4.572   0.495  1.00  0.00     0.121 A 
HETATM   22  N   UNL     1       9.015  -5.194   0.556  1.00  0.00    -0.272 N 
HETATM   23  N   UNL     1       9.000  -6.376   1.184  1.00  0.00    -0.174 NA
HETATM   24  H   UNL     1       9.880  -4.880   0.124  1.00  0.00     0.189 HD
HETATM   25  C   UNL     1       7.746  -6.494   1.644  1.00  0.00     0.089 A 
HETATM   26  C   UNL     1       6.977  -5.353   1.286  1.00  0.00     0.071 A 
BRANCH  25  27
HETATM   27  C   UNL     1       7.288  -7.686   2.350  1.00  0.00    -0.006 A 
HETATM   28  C   UNL     1       6.347  -7.596   3.384  1.00  0.00     0.014 A 
HETATM   29  C   UNL     1       5.881  -8.751   4.017  1.00  0.00     0.001 A 
HETATM   30  C   UNL     1       6.345 -10.004   3.618  1.00  0.00     0.000 A 
HETATM   31  C   UNL     1       7.283 -10.104   2.592  1.00  0.00     0.001 A 
HETATM   32  C   UNL     1       7.757  -8.950   1.965  1.00  0.00     0.014 A 
ENDBRANCH  25  27
ENDBRANCH   1  21
TORSDOF 6
