REMARK  8 active torsions:
REMARK  status: ('A' for Active; 'I' for Inactive)
REMARK    1  A    between atoms: O_2  and  C_3 
REMARK    2  A    between atoms: C_6  and  C_7 
REMARK    3  A    between atoms: C_7  and  C_8 
REMARK    4  A    between atoms: C_8  and  C_9 
REMARK    5  A    between atoms: C_11  and  N_12 
REMARK       I    between atoms: N_12  and  C_13 
REMARK    6  A    between atoms: C_13  and  C_14 
REMARK    7  A    between atoms: C_18  and  C_19 
REMARK    8  A    between atoms: C_20  and  O_21 
ROOT
HETATM    1  N   UNL     1       5.364   5.441  -9.187  1.00  0.00    -0.149 N 
HETATM    2  C   UNL     1       5.529   5.635 -10.536  1.00  0.00     0.290 C 
HETATM    3  O   UNL     1       5.650   4.773 -11.400  1.00  0.00    -0.265 OA
HETATM    4  H   UNL     1       5.301   6.256  -8.594  1.00  0.00     0.188 HD
ENDROOT
BRANCH   1   5
HETATM    5  C   UNL     1       5.274   4.225  -8.581  1.00  0.00     0.747 A 
HETATM    6  N   UNL     1       5.143   4.168  -7.215  1.00  0.00    -0.046 NA
HETATM    7  C   UNL     1       5.072   2.877  -6.962  1.00  0.00     0.140 A 
HETATM    8  N   UNL     1       5.145   2.199  -8.144  1.00  0.00    -0.248 N 
HETATM    9  N   UNL     1       5.289   3.032  -9.174  1.00  0.00     0.020 NA
HETATM   10  H   UNL     1       5.114   1.201  -8.316  1.00  0.00     0.191 HD
BRANCH   7  11
HETATM   11  C   UNL     1       4.907   2.184  -5.655  1.00  0.00     0.085 C 
BRANCH  11  12
HETATM   12  C   UNL     1       6.160   1.386  -5.276  1.00  0.00     0.046 C 
BRANCH  12  13
HETATM   13  C   UNL     1       5.887   0.342  -4.221  1.00  0.00    -0.058 A 
HETATM   14  C   UNL     1       5.278  -0.871  -4.569  1.00  0.00     0.010 A 
HETATM   15  C   UNL     1       5.046  -1.860  -3.607  1.00  0.00     0.037 A 
HETATM   16  C   UNL     1       5.425  -1.649  -2.283  1.00  0.00     0.068 A 
HETATM   17  C   UNL     1       6.011  -0.432  -1.928  1.00  0.00     0.037 A 
HETATM   18  C   UNL     1       6.243   0.558  -2.887  1.00  0.00     0.010 A 
BRANCH  16  19
HETATM   19  O   UNL     1       5.272  -2.538  -1.254  1.00  0.00    -0.356 OA
HETATM   20  C   UNL     1       4.896  -3.863  -1.607  1.00  0.00     0.210 C 
ENDBRANCH  16  19
ENDBRANCH  12  13
ENDBRANCH  11  12
ENDBRANCH   7  11
ENDBRANCH   1   5
BRANCH   2  21
HETATM   21  C   UNL     1       5.566   7.063 -10.898  1.00  0.00     0.147 A 
HETATM   22  N   UNL     1       5.397   8.056 -10.004  1.00  0.00    -0.169 NA
HETATM   23  N   UNL     1       5.494   9.175 -10.752  1.00  0.00    -0.277 N 
HETATM   24  H   UNL     1       5.384  10.080 -10.304  1.00  0.00     0.189 HD
HETATM   25  C   UNL     1       5.742   8.962 -12.086  1.00  0.00     0.065 A 
HETATM   26  C   UNL     1       5.780   7.585 -12.199  1.00  0.00     0.071 A 
BRANCH  25  27
HETATM   27  C   UNL     1       5.916  10.036 -13.082  1.00  0.00     0.025 A 
HETATM   28  C   UNL     1       5.724  11.408 -12.789  1.00  0.00     0.080 A 
HETATM   29  C   UNL     1       5.921  12.367 -13.796  1.00  0.00     0.037 A 
HETATM   30  C   UNL     1       6.299  11.985 -15.084  1.00  0.00     0.003 A 
HETATM   31  C   UNL     1       6.488  10.643 -15.382  1.00  0.00     0.001 A 
HETATM   32  C   UNL     1       6.298   9.681 -14.390  1.00  0.00     0.016 A 
BRANCH  28  33
HETATM   33  O   UNL     1       5.352  11.729 -11.503  1.00  0.00    -0.355 OA
HETATM   34  C   UNL     1       5.078  13.097 -11.220  1.00  0.00     0.210 C 
ENDBRANCH  28  33
ENDBRANCH  25  27
ENDBRANCH   2  21
TORSDOF 8
