REMARK  6 active torsions:
REMARK  status: ('A' for Active; 'I' for Inactive)
REMARK    1  A    between atoms: C_2  and  N_3 
REMARK    2  A    between atoms: C_2  and  C_21 
REMARK    3  A    between atoms: N_3  and  C_6 
REMARK    4  A    between atoms: C_6  and  C_7 
REMARK       I    between atoms: C_7  and  N_8 
REMARK    5  A    between atoms: N_8  and  C_9 
REMARK    6  A    between atoms: C_16  and  C_17 
REMARK       I    between atoms: C_17  and  N_18 
ROOT
HETATM    1  C   UNL     1       3.036   2.783  -2.265  1.00  0.00     0.248 C 
HETATM    2  N   UNL     1       3.857   3.669  -1.607  1.00  0.00    -0.319 N 
HETATM    3  O   UNL     1       2.615   2.825  -3.418  1.00  0.00    -0.271 OA
HETATM    4  H   UNL     1       4.144   3.476  -0.645  1.00  0.00     0.169 HD
ENDROOT
BRANCH   2   5
HETATM    5  C   UNL     1       4.511   4.770  -2.145  1.00  0.00     0.093 A 
HETATM    6  S   UNL     1       4.217   5.294  -3.743  1.00  0.00    -0.075 SA
HETATM    7  C   UNL     1       5.363   6.493  -3.584  1.00  0.00    -0.008 A 
HETATM    8  C   UNL     1       5.959   6.548  -2.353  1.00  0.00    -0.026 A 
HETATM    9  C   UNL     1       5.868   7.481  -4.565  1.00  0.00     0.047 C 
HETATM   10  C   UNL     1       6.990   7.622  -2.329  1.00  0.00     0.041 C 
HETATM   11  C   UNL     1       5.472   5.536  -1.473  1.00  0.00     0.072 A 
HETATM   12  C   UNL     1       6.705   8.413  -3.644  1.00  0.00     0.010 C 
BRANCH  11  13
HETATM   13  C   UNL     1       5.867   5.210  -0.102  1.00  0.00     0.252 C 
HETATM   14  N   UNL     1       6.657   6.102   0.555  1.00  0.00    -0.366 N 
HETATM   15  H   UNL     1       6.850   7.027   0.206  1.00  0.00     0.159 HD
HETATM   16  H   UNL     1       6.862   5.920   1.529  1.00  0.00     0.159 HD
HETATM   17  O   UNL     1       5.488   4.180   0.457  1.00  0.00    -0.268 OA
ENDBRANCH  11  13
ENDBRANCH   2   5
BRANCH   1  18
HETATM   18  C   UNL     1       2.709   1.539  -1.443  1.00  0.00     0.335 C 
BRANCH  18  19
HETATM   19  N   UNL     1       3.015   0.282  -2.223  1.00  0.00    -0.057 N 
HETATM   20  H   UNL     1       2.795   0.521  -3.209  1.00  0.00     0.278 HD
HETATM   21  H   UNL     1       2.370  -0.469  -1.962  1.00  0.00     0.278 HD
BRANCH  19  22
HETATM   22  C   UNL     1       4.430  -0.230  -2.238  1.00  0.00     0.239 C 
HETATM   23  C   UNL     1       4.876  -0.602  -0.829  1.00  0.00     0.047 C 
BRANCH  22  24
HETATM   24  C   UNL     1       5.356   0.695  -2.943  1.00  0.00     0.082 A 
HETATM   25  O   UNL     1       5.033   0.935  -4.248  1.00  0.00    -0.325 OA
HETATM   26  C   UNL     1       5.947   1.812  -4.734  1.00  0.00     0.142 A 
HETATM   27  C   UNL     1       6.858   2.141  -3.759  1.00  0.00     0.027 A 
HETATM   28  C   UNL     1       6.480   1.419  -2.599  1.00  0.00     0.037 A 
ENDBRANCH  22  24
ENDBRANCH  19  22
ENDBRANCH  18  19
ENDBRANCH   1  18
TORSDOF 6
