REMARK  5 active torsions:
REMARK  status: ('A' for Active; 'I' for Inactive)
REMARK    1  A    between atoms: C_2  and  C_3 
REMARK    2  A    between atoms: C_6  and  C_7 
REMARK    3  A    between atoms: C_7  and  N_8 
REMARK    4  A    between atoms: C_7  and  C_21 
REMARK       I    between atoms: N_8  and  C_9 
REMARK       I    between atoms: C_9  and  N_10 
REMARK    5  A    between atoms: N_10  and  N_11 
ROOT
HETATM    1  N   UNL     1       3.507   3.035   5.659  1.00  0.00    -0.333 N 
HETATM    2  C   UNL     1       2.353   3.280   4.984  1.00  0.00     0.335 C 
HETATM    3  N   UNL     1       2.425   3.178   3.629  1.00  0.00    -0.244 N 
HETATM    4  O   UNL     1       1.338   3.548   5.617  1.00  0.00    -0.246 OA
HETATM    5  H   UNL     1       3.402   3.156   6.658  1.00  0.00     0.165 HD
HETATM    6  H   UNL     1       3.262   3.512   3.174  1.00  0.00     0.192 HD
ENDROOT
BRANCH   1   7
HETATM    7  C   UNL     1       4.758   2.475   5.157  1.00  0.00     0.122 C 
BRANCH   7   8
HETATM    8  C   UNL     1       5.750   3.548   4.733  1.00  0.00    -0.035 A 
HETATM    9  C   UNL     1       5.744   4.841   5.277  1.00  0.00     0.010 A 
HETATM   10  C   UNL     1       6.711   5.779   4.903  1.00  0.00     0.007 A 
HETATM   11  C   UNL     1       7.707   5.449   3.977  1.00  0.00    -0.059 A 
HETATM   12  C   UNL     1       7.717   4.163   3.428  1.00  0.00     0.007 A 
HETATM   13  C   UNL     1       6.749   3.225   3.799  1.00  0.00     0.010 A 
BRANCH  11  14
HETATM   14  C   UNL     1       8.779   6.444   3.615  1.00  0.00     0.034 C 
HETATM   15  C   UNL     1       9.960   6.375   4.572  1.00  0.00     0.010 C 
ENDBRANCH  11  14
ENDBRANCH   7   8
BRANCH   7  16
HETATM   16  C   UNL     1       5.379   1.453   6.150  1.00  0.00     0.005 C 
HETATM   17  C   UNL     1       5.772   2.054   7.504  1.00  0.00     0.012 C 
HETATM   18  C   UNL     1       4.439   0.261   6.365  1.00  0.00     0.012 C 
ENDBRANCH   7  16
ENDBRANCH   1   7
BRANCH   3  19
HETATM   19  N   UNL     1       1.296   3.358   2.906  1.00  0.00    -0.244 N 
HETATM   20  C   UNL     1       0.793   2.420   2.050  1.00  0.00     0.086 A 
HETATM   21  C   UNL     1      -0.252   3.097   1.420  1.00  0.00     0.086 A 
HETATM   22  C   UNL     1       1.128   1.092   1.763  1.00  0.00     0.034 A 
HETATM   23  C   UNL     1      -1.019   2.422   0.459  1.00  0.00     0.034 A 
HETATM   24  N   UNL     1      -0.350   4.398   1.867  1.00  0.00    -0.240 NA
HETATM   25  C   UNL     1      -0.705   1.090   0.157  1.00  0.00     0.002 A 
HETATM   26  C   UNL     1       0.352   0.440   0.798  1.00  0.00     0.002 A 
HETATM   27  C   UNL     1       0.605   4.523   2.766  1.00  0.00     0.234 A 
ENDBRANCH   3  19
TORSDOF 5
