REMARK  4 active torsions:
REMARK  status: ('A' for Active; 'I' for Inactive)
REMARK    1  A    between atoms: C_5  and  C_6 
REMARK    2  A    between atoms: C_6  and  N_7 
REMARK    3  A    between atoms: C_6  and  C_18 
REMARK    4  A    between atoms: N_7  and  C_8 
ROOT
HETATM    1  C   UNL     1       1.677  -4.971   3.006  1.00  0.00     0.288 C 
ENDROOT
BRANCH   1   2
HETATM    2  C   UNL     1       3.171  -4.996   2.728  1.00  0.00    -0.003 A 
HETATM    3  C   UNL     1       3.710  -5.581   1.583  1.00  0.00     0.126 A 
HETATM    4  N   UNL     1       5.023  -5.549   1.263  1.00  0.00    -0.272 NA
HETATM    5  C   UNL     1       5.856  -4.946   2.137  1.00  0.00     0.116 A 
HETATM    6  C   UNL     1       5.430  -4.344   3.307  1.00  0.00     0.020 A 
HETATM    7  C   UNL     1       4.069  -4.364   3.601  1.00  0.00     0.012 A 
ENDBRANCH   1   2
BRANCH   1   8
HETATM    8  N   UNL     1       1.067  -3.682   2.574  1.00  0.00     0.101 N 
HETATM    9  H   UNL     1       1.501  -2.956   3.137  1.00  0.00     0.317 HD
BRANCH   8  10
HETATM   10  C   UNL     1       1.076  -3.369   1.137  1.00  0.00     0.225 C 
HETATM   11  C   UNL     1       2.306  -2.576   0.631  1.00  0.00     0.069 C 
HETATM   12  C   UNL     1       2.336  -1.168   1.190  1.00  0.00     0.190 C 
HETATM   13  N   UNL     1       1.073  -0.462   0.784  1.00  0.00    -0.067 N 
HETATM   14  C   UNL     1       3.388  -0.226   0.643  1.00  0.00     0.035 C 
HETATM   15  H   UNL     1       0.995  -0.512  -0.242  1.00  0.00     0.280 HD
HETATM   16  C   UNL     1      -0.151  -1.109   1.351  1.00  0.00     0.237 C 
HETATM   17  C   UNL     1       1.313   0.989   1.111  1.00  0.00     0.235 C 
HETATM   18  C   UNL     1      -0.206  -2.548   0.837  1.00  0.00     0.063 C 
HETATM   19  C   UNL     1       2.834   1.147   1.022  1.00  0.00     0.030 C 
ENDBRANCH   8  10
ENDBRANCH   1   8
BRANCH   1  20
HETATM   20  C   UNL     1       0.900  -6.247   2.660  1.00  0.00    -0.021 A 
HETATM   21  C   UNL     1       1.454  -7.507   2.982  1.00  0.00     0.012 A 
HETATM   22  C   UNL     1       0.763  -8.693   2.721  1.00  0.00     0.043 A 
HETATM   23  C   UNL     1      -0.502  -8.636   2.158  1.00  0.00     0.116 A 
HETATM   24  F   UNL     1      -1.168  -9.770   1.908  1.00  0.00    -0.206 F 
HETATM   25  C   UNL     1      -1.093  -7.415   1.867  1.00  0.00     0.043 A 
HETATM   26  C   UNL     1      -0.402  -6.228   2.130  1.00  0.00     0.012 A 
ENDBRANCH   1  20
TORSDOF 4
