REMARK  6 active torsions:
REMARK  status: ('A' for Active; 'I' for Inactive)
REMARK    1  A    between atoms: C_2  and  C_3 
REMARK       I    between atoms: C_3  and  N_4 
REMARK    2  A    between atoms: N_4  and  C_5 
REMARK    3  A    between atoms: C_8  and  N_9 
REMARK       I    between atoms: N_9  and  C_10 
REMARK    4  A    between atoms: C_10  and  C_11 
REMARK    5  A    between atoms: C_16  and  C_17 
REMARK    6  A    between atoms: C_23  and  C_24 
ROOT
HETATM    1  C   UNL     1      -4.117   3.880  -1.192  1.00  0.00     0.148 A 
HETATM    2  N   UNL     1      -3.018   4.158  -0.452  1.00  0.00    -0.165 NA
HETATM    3  N   UNL     1      -2.920   5.500  -0.523  1.00  0.00    -0.240 N 
HETATM    4  C   UNL     1      -3.892   6.084  -1.288  1.00  0.00     0.123 A 
HETATM    5  N   UNL     1      -3.921   7.417  -1.503  1.00  0.00    -0.364 N 
HETATM    6  C   UNL     1      -3.067   8.329  -0.741  1.00  0.00     0.143 C 
HETATM    7  C   UNL     1      -1.716   7.649  -0.452  1.00  0.00     0.068 C 
HETATM    8  C   UNL     1      -1.833   6.219   0.112  1.00  0.00     0.221 C 
HETATM    9  C   UNL     1      -4.689   5.064  -1.732  1.00  0.00     0.089 A 
HETATM   10  H   UNL     1      -4.738   7.851  -1.929  1.00  0.00     0.162 HD
ENDROOT
BRANCH   1  11
HETATM   11  C   UNL     1      -4.601   2.500  -1.383  1.00  0.00     0.276 C 
HETATM   12  N   UNL     1      -3.887   1.599  -0.616  1.00  0.00    -0.322 N 
HETATM   13  H   UNL     1      -3.183   2.041  -0.029  1.00  0.00     0.169 HD
HETATM   14  O   UNL     1      -5.536   2.249  -2.134  1.00  0.00    -0.266 OA
BRANCH  12  15
HETATM   15  C   UNL     1      -4.014   0.203  -0.564  1.00  0.00     0.035 A 
HETATM   16  C   UNL     1      -4.868  -0.533  -1.383  1.00  0.00     0.032 A 
HETATM   17  C   UNL     1      -4.912  -1.933  -1.297  1.00  0.00     0.032 A 
HETATM   18  C   UNL     1      -4.104  -2.617  -0.390  1.00  0.00     0.034 A 
HETATM   19  C   UNL     1      -3.258  -1.876   0.442  1.00  0.00     0.032 A 
HETATM   20  C   UNL     1      -3.213  -0.479   0.355  1.00  0.00     0.032 A 
BRANCH  18  21
HETATM   21  N   UNL     1      -4.063  -4.021  -0.264  1.00  0.00    -0.327 N 
HETATM   22  C   UNL     1      -4.830  -4.951  -0.942  1.00  0.00     0.221 C 
HETATM   23  O   UNL     1      -5.702  -4.712  -1.771  1.00  0.00    -0.273 OA
HETATM   24  H   UNL     1      -3.389  -4.379   0.398  1.00  0.00     0.169 HD
BRANCH  22  25
HETATM   25  C   UNL     1      -4.457  -6.391  -0.622  1.00  0.00     0.098 C 
HETATM   26  C   UNL     1      -4.473  -6.717   0.861  1.00  0.00     0.014 C 
ENDBRANCH  22  25
ENDBRANCH  18  21
ENDBRANCH  12  15
ENDBRANCH   1  11
BRANCH   8  27
HETATM   27  C   UNL     1      -1.974   6.163   1.617  1.00  0.00     0.409 C 
HETATM   28  F   UNL     1      -1.767   4.912   2.096  1.00  0.00    -0.169 F 
HETATM   29  F   UNL     1      -1.036   6.948   2.207  1.00  0.00    -0.169 F 
HETATM   30  F   UNL     1      -3.175   6.569   2.067  1.00  0.00    -0.169 F 
ENDBRANCH   8  27
BRANCH   6  31
HETATM   31  C   UNL     1      -3.701   8.918   0.476  1.00  0.00     0.075 A 
HETATM   32  O   UNL     1      -2.999   9.904   1.108  1.00  0.00    -0.325 OA
HETATM   33  C   UNL     1      -3.747  10.312   2.165  1.00  0.00     0.142 A 
HETATM   34  C   UNL     1      -4.925   9.606   2.223  1.00  0.00     0.027 A 
HETATM   35  C   UNL     1      -4.902   8.711   1.127  1.00  0.00     0.037 A 
ENDBRANCH   6  31
TORSDOF 6
