REMARK  9 active torsions:
REMARK  status: ('A' for Active; 'I' for Inactive)
REMARK    1  A    between atoms: C_3  and  C_4 
REMARK       I    between atoms: C_4  and  N_5 
REMARK    2  A    between atoms: N_5  and  N_6 
REMARK    3  A    between atoms: N_6  and  C_7 
REMARK    4  A    between atoms: C_7  and  N_8 
REMARK    5  A    between atoms: N_8  and  C_9 
REMARK    6  A    between atoms: C_9  and  C_10 
REMARK    7  A    between atoms: C_18  and  C_19 
REMARK    8  A    between atoms: C_19  and  O_20 
REMARK    9  A    between atoms: O_20  and  C_21 
ROOT
HETATM    1  C   UNL     1      -2.092  -4.232  -1.682  1.00  0.00     0.069 A 
HETATM    2  C   UNL     1      -2.567  -5.167  -0.763  1.00  0.00     0.038 A 
HETATM    3  C   UNL     1      -3.114  -6.376  -1.211  1.00  0.00     0.025 A 
HETATM    4  C   UNL     1      -3.192  -6.654  -2.580  1.00  0.00     0.044 A 
HETATM    5  C   UNL     1      -3.754  -7.892  -3.034  1.00  0.00     0.099 C 
HETATM    6  N   UNL     1      -4.212  -8.895  -3.398  1.00  0.00    -0.191 NA
HETATM    7  C   UNL     1      -2.718  -5.717  -3.501  1.00  0.00     0.025 A 
HETATM    8  C   UNL     1      -2.170  -4.514  -3.050  1.00  0.00     0.038 A 
ENDROOT
BRANCH   1   9
HETATM    9  O   UNL     1      -1.531  -3.023  -1.385  1.00  0.00    -0.347 OA
BRANCH   9  10
HETATM   10  C   UNL     1      -1.466  -2.646  -0.012  1.00  0.00     0.214 C 
BRANCH  10  11
HETATM   11  C   UNL     1      -0.781  -1.302   0.052  1.00  0.00    -0.033 A 
HETATM   12  C   UNL     1       0.619  -1.220  -0.047  1.00  0.00     0.026 A 
HETATM   13  C   UNL     1       1.265   0.024  -0.044  1.00  0.00     0.034 A 
HETATM   14  C   UNL     1       0.498   1.190   0.084  1.00  0.00     0.017 A 
HETATM   15  C   UNL     1      -0.892   1.117   0.181  1.00  0.00     0.002 A 
HETATM   16  C   UNL     1      -1.530  -0.122   0.155  1.00  0.00     0.009 A 
BRANCH  13  17
HETATM   17  C   UNL     1       2.744   0.173  -0.179  1.00  0.00     0.270 C 
HETATM   18  N   UNL     1       3.453  -0.932  -0.608  1.00  0.00    -0.264 N 
HETATM   19  H   UNL     1       3.039  -1.804  -0.919  1.00  0.00     0.190 HD
HETATM   20  O   UNL     1       3.294   1.247   0.059  1.00  0.00    -0.266 OA
BRANCH  18  21
HETATM   21  N   UNL     1       4.826  -0.782  -0.843  1.00  0.00    -0.274 N 
HETATM   22  H   UNL     1       5.186   0.141  -0.609  1.00  0.00     0.189 HD
BRANCH  21  23
HETATM   23  C   UNL     1       5.666  -1.867  -0.823  1.00  0.00     0.186 C 
HETATM   24  S   UNL     1       5.179  -3.458  -0.644  1.00  0.00    -0.040 SA
BRANCH  23  25
HETATM   25  N   UNL     1       6.989  -1.608  -1.032  1.00  0.00    -0.364 N 
HETATM   26  H   UNL     1       7.545  -2.448  -1.178  1.00  0.00     0.162 HD
BRANCH  25  27
HETATM   27  C   UNL     1       7.546  -0.397  -1.624  1.00  0.00     0.154 C 
BRANCH  27  28
HETATM   28  C   UNL     1       9.072  -0.463  -1.699  1.00  0.00     0.139 C 
HETATM   29  O   UNL     1       9.479  -1.606  -2.471  1.00  0.00    -0.384 OA
HETATM   30  C   UNL     1      10.811  -1.338  -2.918  1.00  0.00     0.168 C 
HETATM   31  C   UNL     1      10.918   0.164  -3.090  1.00  0.00     0.029 C 
HETATM   32  C   UNL     1       9.687   0.728  -2.411  1.00  0.00     0.035 C 
ENDBRANCH  27  28
ENDBRANCH  25  27
ENDBRANCH  23  25
ENDBRANCH  21  23
ENDBRANCH  18  21
ENDBRANCH  13  17
ENDBRANCH  10  11
ENDBRANCH   9  10
ENDBRANCH   1   9
TORSDOF 9
