REMARK  9 active torsions:
REMARK  status: ('A' for Active; 'I' for Inactive)
REMARK    1  A    between atoms: C_2  and  N_3 
REMARK    2  A    between atoms: C_2  and  C_11 
REMARK    3  A    between atoms: N_3  and  C_4 
REMARK    4  A    between atoms: N_12  and  C_13 
REMARK    5  A    between atoms: C_19  and  S_20 
REMARK    6  A    between atoms: S_20  and  C_21 
REMARK    7  A    between atoms: C_21  and  C_22 
REMARK       I    between atoms: C_22  and  N_23 
REMARK    8  A    between atoms: N_23  and  C_24 
REMARK    9  A    between atoms: C_26  and  N_27 
REMARK       I    between atoms: N_27  and  C_28 
ROOT
HETATM    1  C   UNL     1       3.952   1.404  -0.504  1.00  0.00     0.158 A 
HETATM    2  N   UNL     1       3.746   2.774  -0.336  1.00  0.00    -0.274 N 
HETATM    3  C   UNL     1       4.606   3.350  -1.258  1.00  0.00     0.196 A 
HETATM    4  N   UNL     1       5.333   2.427  -1.845  1.00  0.00    -0.122 NA
HETATM    5  N   UNL     1       4.927   1.216  -1.380  1.00  0.00    -0.131 NA
ENDROOT
BRANCH   3   6
HETATM    6  S   UNL     1       4.870   5.049  -1.490  1.00  0.00    -0.080 SA
BRANCH   6   7
HETATM    7  C   UNL     1       6.485   5.040  -2.329  1.00  0.00     0.185 C 
BRANCH   7   8
HETATM    8  C   UNL     1       7.604   4.933  -1.305  1.00  0.00     0.231 C 
HETATM    9  N   UNL     1       7.848   3.635  -0.881  1.00  0.00    -0.326 N 
HETATM   10  H   UNL     1       7.240   2.911  -1.264  1.00  0.00     0.169 HD
HETATM   11  O   UNL     1       8.188   5.944  -0.923  1.00  0.00    -0.272 OA
BRANCH   9  12
HETATM   12  C   UNL     1       8.782   3.214   0.092  1.00  0.00     0.036 A 
HETATM   13  C   UNL     1       8.776   1.850   0.443  1.00  0.00     0.059 A 
HETATM   14  C   UNL     1       9.656   1.348   1.408  1.00  0.00     0.036 A 
HETATM   15  C   UNL     1      10.538   2.238   2.033  1.00  0.00     0.029 A 
HETATM   16  C   UNL     1      10.559   3.587   1.688  1.00  0.00     0.004 A 
HETATM   17  C   UNL     1       9.684   4.072   0.718  1.00  0.00     0.029 A 
BRANCH  14  18
HETATM   18  N   UNL     1       9.725   0.012   1.845  1.00  0.00    -0.327 N 
HETATM   19  C   UNL     1       9.163  -1.158   1.436  1.00  0.00     0.218 C 
HETATM   20  C   UNL     1       8.325  -1.248   0.198  1.00  0.00     0.117 C 
HETATM   21  O   UNL     1       9.387  -2.169   2.110  1.00  0.00    -0.274 OA
HETATM   22  H   UNL     1      10.326  -0.159   2.644  1.00  0.00     0.169 HD
ENDBRANCH  14  18
ENDBRANCH   9  12
ENDBRANCH   7   8
ENDBRANCH   6   7
ENDBRANCH   3   6
BRANCH   2  23
HETATM   23  C   UNL     1       2.862   3.414   0.572  1.00  0.00     0.043 A 
HETATM   24  C   UNL     1       2.790   2.979   1.902  1.00  0.00     0.030 A 
HETATM   25  C   UNL     1       1.915   3.603   2.794  1.00  0.00     0.002 A 
HETATM   26  C   UNL     1       1.116   4.661   2.367  1.00  0.00     0.000 A 
HETATM   27  C   UNL     1       1.190   5.101   1.047  1.00  0.00     0.002 A 
HETATM   28  C   UNL     1       2.061   4.482   0.148  1.00  0.00     0.030 A 
ENDBRANCH   2  23
BRANCH   1  29
HETATM   29  C   UNL     1       3.113   0.286   0.082  1.00  0.00     0.150 C 
HETATM   30  C   UNL     1       1.670   0.365  -0.439  1.00  0.00     0.040 C 
BRANCH  29  31
HETATM   31  N   UNL     1       3.664  -1.030  -0.282  1.00  0.00    -0.379 N 
HETATM   32  H   UNL     1       3.809  -1.109  -1.287  1.00  0.00     0.160 HD
BRANCH  31  33
HETATM   33  C   UNL     1       3.295  -2.214   0.341  1.00  0.00     0.028 A 
HETATM   34  C   UNL     1       3.322  -3.406  -0.400  1.00  0.00     0.030 A 
HETATM   35  C   UNL     1       3.017  -4.639   0.186  1.00  0.00     0.021 A 
HETATM   36  C   UNL     1       2.706  -4.696   1.539  1.00  0.00     0.011 A 
HETATM   37 BR   UNL     1       2.319  -6.359   2.348  1.00  0.00    -0.051 Br
HETATM   38  C   UNL     1       2.694  -3.533   2.302  1.00  0.00     0.021 A 
HETATM   39  C   UNL     1       2.989  -2.302   1.703  1.00  0.00     0.030 A 
ENDBRANCH  31  33
ENDBRANCH  29  31
ENDBRANCH   1  29
TORSDOF 9
