REMARK  6 active torsions:
REMARK  status: ('A' for Active; 'I' for Inactive)
REMARK    1  A    between atoms: C_2  and  N_3 
REMARK    2  A    between atoms: N_7  and  C_8 
REMARK    3  A    between atoms: C_11  and  N_12 
REMARK    4  A    between atoms: C_13  and  N_14 
REMARK       I    between atoms: N_14  and  C_15 
REMARK    5  A    between atoms: C_15  and  C_16 
REMARK    6  A    between atoms: C_18  and  C_19 
ROOT
HETATM    1  N   UNL     1      -2.653   5.640   4.748  1.00  0.00    -0.338 N 
HETATM    2  C   UNL     1      -3.988   5.471   4.691  1.00  0.00     0.157 C 
HETATM    3  S   UNL     1      -4.944   6.385   5.721  1.00  0.00    -0.047 SA
HETATM    4  H   UNL     1      -2.385   6.498   5.222  1.00  0.00     0.168 HD
ENDROOT
BRANCH   2   5
HETATM    5  N   UNL     1      -4.624   4.691   3.777  1.00  0.00    -0.199 NA
HETATM    6  C   UNL     1      -4.231   4.490   2.456  1.00  0.00     0.261 C 
HETATM    7  O   UNL     1      -3.219   3.892   2.108  1.00  0.00    -0.271 OA
HETATM    8  H   UNL     1      -5.615   4.907   3.834  1.00  0.00     0.139 HD
BRANCH   6   9
HETATM    9  C   UNL     1      -5.231   4.914   1.493  1.00  0.00     0.138 A 
HETATM   10  O   UNL     1      -6.234   5.759   1.888  1.00  0.00    -0.305 OA
HETATM   11  C   UNL     1      -6.976   6.068   0.778  1.00  0.00     0.088 A 
HETATM   12  C   UNL     1      -6.496   5.354  -0.302  1.00  0.00     0.041 A 
HETATM   13  C   UNL     1      -5.366   4.635   0.149  1.00  0.00     0.045 A 
BRANCH  11  14
HETATM   14  C   UNL     1      -8.048   7.044   0.977  1.00  0.00     0.020 A 
HETATM   15  C   UNL     1      -8.402   8.013   0.016  1.00  0.00     0.048 A 
HETATM   16 CL   UNL     1      -7.563   8.200  -1.488  1.00  0.00    -0.083 Cl
HETATM   17  C   UNL     1      -9.444   8.918   0.257  1.00  0.00     0.048 A 
HETATM   18  C   UNL     1     -10.138   8.873   1.461  1.00  0.00     0.035 A 
HETATM   19 CL   UNL     1     -11.412   9.989   1.755  1.00  0.00    -0.084 Cl
HETATM   20  C   UNL     1      -9.801   7.935   2.430  1.00  0.00     0.025 A 
HETATM   21  C   UNL     1      -8.763   7.028   2.189  1.00  0.00     0.017 A 
ENDBRANCH  11  14
ENDBRANCH   6   9
ENDBRANCH   2   5
BRANCH   1  22
HETATM   22  C   UNL     1      -1.587   4.759   4.502  1.00  0.00     0.034 A 
HETATM   23  C   UNL     1      -1.718   3.376   4.437  1.00  0.00     0.032 A 
HETATM   24  C   UNL     1      -0.598   2.564   4.192  1.00  0.00     0.031 A 
HETATM   25  C   UNL     1       0.677   3.110   4.000  1.00  0.00     0.030 A 
HETATM   26  C   UNL     1       0.795   4.502   4.143  1.00  0.00     0.031 A 
HETATM   27  C   UNL     1      -0.313   5.314   4.402  1.00  0.00     0.032 A 
BRANCH  25  28
HETATM   28  N   UNL     1       1.812   2.355   3.704  1.00  0.00    -0.378 N 
HETATM   29  C   UNL     1       2.552   2.752   2.488  1.00  0.00     0.150 C 
HETATM   30  C   UNL     1       2.136   1.886   1.279  1.00  0.00     0.254 C 
HETATM   31  N   UNL     1       2.332   0.399   1.605  1.00  0.00    -0.068 N 
HETATM   32  H   UNL     1       3.318   0.274   1.870  1.00  0.00     0.280 HD
HETATM   33  C   UNL     1       1.498   0.030   2.840  1.00  0.00     0.254 C 
HETATM   34  C   UNL     1       1.875   0.925   4.039  1.00  0.00     0.150 C 
BRANCH  31  35
HETATM   35  C   UNL     1       2.037  -0.522   0.448  1.00  0.00     0.230 C 
HETATM   36  C   UNL     1       3.106  -0.405  -0.623  1.00  0.00     0.034 C 
ENDBRANCH  31  35
ENDBRANCH  25  28
ENDBRANCH   1  22
TORSDOF 6
