REMARK  3 active torsions:
REMARK  status: ('A' for Active; 'I' for Inactive)
REMARK    1  A    between atoms: C_6  and  N_7 
REMARK       I    between atoms: N_7  and  C_8 
REMARK       I    between atoms: C_8  and  N_9 
REMARK    2  A    between atoms: N_9  and  C_10 
REMARK    3  A    between atoms: C_11  and  C_12 
ROOT
HETATM    1  C   UNL     1       6.319   3.101  -0.081  1.00  0.00     0.049 A 
HETATM    2  C   UNL     1       5.317   2.752  -1.007  1.00  0.00     0.021 A 
HETATM    3  C   UNL     1       3.987   3.145  -0.793  1.00  0.00     0.016 A 
HETATM    4  C   UNL     1       3.655   3.892   0.337  1.00  0.00     0.001 A 
HETATM    5  C   UNL     1       4.650   4.275   1.235  1.00  0.00     0.002 A 
HETATM    6  C   UNL     1       5.978   3.894   1.020  1.00  0.00     0.030 A 
ENDROOT
BRANCH   1   7
HETATM    7  N   UNL     1       7.671   2.716  -0.214  1.00  0.00    -0.308 N 
HETATM    8  C   UNL     1       8.057   1.454  -0.585  1.00  0.00     0.325 C 
HETATM    9  N   UNL     1       9.372   1.292  -0.919  1.00  0.00    -0.309 N 
HETATM   10  O   UNL     1       7.329   0.464  -0.526  1.00  0.00    -0.247 OA
HETATM   11  H   UNL     1       9.635   0.314  -0.934  1.00  0.00     0.170 HD
HETATM   12  H   UNL     1       8.355   3.187   0.362  1.00  0.00     0.170 HD
BRANCH   9  13
HETATM   13  C   UNL     1      10.299   2.198  -1.471  1.00  0.00     0.039 A 
HETATM   14  C   UNL     1       9.964   3.461  -1.957  1.00  0.00     0.072 A 
HETATM   15  C   UNL     1      10.941   4.259  -2.552  1.00  0.00     0.124 A 
HETATM   16  C   UNL     1      12.263   3.829  -2.675  1.00  0.00    -0.023 A 
HETATM   17  F   UNL     1      10.584   5.459  -3.031  1.00  0.00    -0.205 F 
HETATM   18  C   UNL     1      13.288   4.674  -3.366  1.00  0.00     0.051 C 
HETATM   19  C   UNL     1      12.594   2.555  -2.205  1.00  0.00     0.012 A 
HETATM   20  C   UNL     1      11.618   1.748  -1.611  1.00  0.00     0.030 A 
ENDBRANCH   9  13
ENDBRANCH   1   7
BRANCH   2  21
HETATM   21  C   UNL     1       5.650   2.148  -2.319  1.00  0.00     0.089 A 
HETATM   22  N   UNL     1       6.448   2.782  -3.126  1.00  0.00    -0.171 NA
HETATM   23  N   UNL     1       6.722   2.173  -4.317  1.00  0.00    -0.243 N 
HETATM   24  C   UNL     1       6.233   0.960  -4.727  1.00  0.00     0.261 A 
HETATM   25  H   UNL     1       7.355   2.661  -4.940  1.00  0.00     0.192 HD
HETATM   26  O   UNL     1       6.515   0.450  -5.806  1.00  0.00    -0.267 OA
HETATM   27  C   UNL     1       5.322   0.279  -3.787  1.00  0.00     0.078 A 
HETATM   28  C   UNL     1       5.019   0.841  -2.614  1.00  0.00     0.040 A 
ENDBRANCH   2  21
TORSDOF 3
