REMARK  9 active torsions:
REMARK  status: ('A' for Active; 'I' for Inactive)
REMARK    1  A    between atoms: C_2  and  N_3 
REMARK    2  A    between atoms: C_2  and  C_23 
REMARK       I    between atoms: N_3  and  C_4 
REMARK       I    between atoms: C_4  and  N_5 
REMARK    3  A    between atoms: N_5  and  C_6 
REMARK    4  A    between atoms: C_6  and  C_7 
REMARK    5  A    between atoms: C_7  and  N_8 
REMARK    6  A    between atoms: C_7  and  C_14 
REMARK    7  A    between atoms: C_15  and  O_16 
REMARK    8  A    between atoms: C_23  and  C_24 
REMARK    9  A    between atoms: C_27  and  O_28 
ROOT
HETATM    1  N   UNL     1       1.812  -2.232   3.845  1.00  0.00    -0.339 N 
HETATM    2  C   UNL     1       1.164  -1.138   3.355  1.00  0.00     0.316 C 
HETATM    3  N   UNL     1       2.050  -0.198   2.881  1.00  0.00    -0.341 N 
HETATM    4  O   UNL     1      -0.042  -0.951   3.396  1.00  0.00    -0.248 OA
HETATM    5  H   UNL     1       2.815  -2.171   3.931  1.00  0.00     0.164 HD
HETATM    6  H   UNL     1       2.875  -0.621   2.473  1.00  0.00     0.164 HD
ENDROOT
BRANCH   3   7
HETATM    7  C   UNL     1       1.538   0.964   2.168  1.00  0.00     0.162 C 
BRANCH   7   8
HETATM    8  C   UNL     1       0.570   1.932   2.931  1.00  0.00     0.241 C 
BRANCH   8   9
HETATM    9  N   UNL     1       1.249   2.569   4.165  1.00  0.00    -0.061 N 
HETATM   10  H   UNL     1       2.166   2.912   3.868  1.00  0.00     0.280 HD
HETATM   11  C   UNL     1       1.486   1.617   5.333  1.00  0.00     0.236 C 
HETATM   12  C   UNL     1       0.844   2.280   6.539  1.00  0.00     0.029 C 
HETATM   13  C   UNL     1       0.841   3.750   6.201  1.00  0.00     0.029 C 
HETATM   14  C   UNL     1       0.471   3.744   4.736  1.00  0.00     0.236 C 
ENDBRANCH   8   9
BRANCH   8  15
HETATM   15  C   UNL     1       0.088   2.973   1.915  1.00  0.00     0.007 A 
HETATM   16  C   UNL     1      -1.201   2.861   1.354  1.00  0.00     0.076 A 
HETATM   17  C   UNL     1      -1.640   3.801   0.419  1.00  0.00     0.037 A 
HETATM   18  C   UNL     1      -0.799   4.838   0.013  1.00  0.00     0.003 A 
HETATM   19  C   UNL     1       0.487   4.938   0.532  1.00  0.00     0.001 A 
HETATM   20  C   UNL     1       0.934   4.009   1.471  1.00  0.00     0.012 A 
BRANCH  16  21
HETATM   21  O   UNL     1      -1.954   1.808   1.798  1.00  0.00    -0.355 OA
HETATM   22  C   UNL     1      -3.086   1.439   1.013  1.00  0.00     0.210 C 
ENDBRANCH  16  21
ENDBRANCH   8  15
ENDBRANCH   7   8
ENDBRANCH   3   7
BRANCH   1  23
HETATM   23  C   UNL     1       1.159  -3.291   4.620  1.00  0.00     0.086 C 
HETATM   24  C   UNL     1       0.136  -4.057   3.778  1.00  0.00     0.032 C 
BRANCH  23  25
HETATM   25  C   UNL     1       0.515  -2.787   5.934  1.00  0.00     0.063 C 
BRANCH  25  26
HETATM   26  C   UNL     1       1.387  -2.020   6.914  1.00  0.00    -0.056 A 
HETATM   27  C   UNL     1       0.749  -1.301   7.942  1.00  0.00     0.010 A 
HETATM   28  C   UNL     1       1.488  -0.593   8.894  1.00  0.00     0.037 A 
HETATM   29  C   UNL     1       2.874  -0.592   8.815  1.00  0.00     0.065 A 
HETATM   30  C   UNL     1       3.527  -1.305   7.820  1.00  0.00     0.037 A 
HETATM   31  C   UNL     1       2.788  -2.035   6.886  1.00  0.00     0.010 A 
BRANCH  29  32
HETATM   32  O   UNL     1       3.636   0.099   9.707  1.00  0.00    -0.361 OA
HETATM   33  H   UNL     1       3.095   0.306  10.488  1.00  0.00     0.217 HD
ENDBRANCH  29  32
ENDBRANCH  25  26
ENDBRANCH  23  25
ENDBRANCH   1  23
TORSDOF 9
