REMARK  6 active torsions:
REMARK  status: ('A' for Active; 'I' for Inactive)
REMARK    1  A    between atoms: C_4  and  C_5 
REMARK    2  A    between atoms: N_6  and  C_7 
REMARK    3  A    between atoms: C_14  and  S_15 
REMARK    4  A    between atoms: S_15  and  C_16 
REMARK    5  A    between atoms: C_16  and  C_17 
REMARK       I    between atoms: C_17  and  N_18 
REMARK    6  A    between atoms: N_18  and  C_19 
ROOT
HETATM    1  C   UNL     1       2.949   0.150   0.129  1.00  0.00     0.169 A 
HETATM    2  N   UNL     1       3.820   1.244   0.136  1.00  0.00    -0.271 N 
HETATM    3  C   UNL     1       5.079   0.666   0.041  1.00  0.00     0.197 A 
HETATM    4  N   UNL     1       4.978  -0.636  -0.059  1.00  0.00    -0.122 NA
HETATM    5  N   UNL     1       3.654  -0.958  -0.025  1.00  0.00    -0.128 NA
ENDROOT
BRANCH   3   6
HETATM    6  S   UNL     1       6.578   1.521  -0.171  1.00  0.00    -0.080 SA
BRANCH   6   7
HETATM    7  C   UNL     1       7.783   0.172   0.038  1.00  0.00     0.185 C 
BRANCH   7   8
HETATM    8  C   UNL     1       7.899  -0.782  -1.147  1.00  0.00     0.231 C 
HETATM    9  N   UNL     1       7.468  -0.271  -2.358  1.00  0.00    -0.326 N 
HETATM   10  H   UNL     1       7.081   0.664  -2.322  1.00  0.00     0.169 HD
HETATM   11  O   UNL     1       8.438  -1.877  -0.989  1.00  0.00    -0.272 OA
BRANCH   9  12
HETATM   12  C   UNL     1       7.435  -0.916  -3.611  1.00  0.00     0.037 A 
HETATM   13  C   UNL     1       7.844  -2.240  -3.811  1.00  0.00     0.061 A 
HETATM   14  C   UNL     1       7.741  -2.742  -5.088  1.00  0.00     0.065 A 
HETATM   15  C   UNL     1       7.258  -1.986  -6.153  1.00  0.00     0.063 A 
HETATM   16  N   UNL     1       8.059  -4.007  -5.573  1.00  0.00    -0.306 N 
HETATM   17  N   UNL     1       7.279  -2.783  -7.291  1.00  0.00    -0.307 N 
HETATM   18  C   UNL     1       6.849  -0.686  -5.996  1.00  0.00     0.034 A 
HETATM   19  C   UNL     1       7.775  -4.050  -6.945  1.00  0.00     0.325 A 
HETATM   20  H   UNL     1       6.989  -2.533  -8.221  1.00  0.00     0.170 HD
HETATM   21  O   UNL     1       7.926  -4.998  -7.694  1.00  0.00    -0.247 OA
HETATM   22  C   UNL     1       6.941  -0.153  -4.703  1.00  0.00     0.032 A 
HETATM   23  H   UNL     1       8.426  -4.783  -5.046  1.00  0.00     0.170 HD
ENDBRANCH   9  12
ENDBRANCH   7   8
ENDBRANCH   6   7
ENDBRANCH   3   6
BRANCH   2  24
HETATM   24  C   UNL     1       3.479   2.627   0.179  1.00  0.00     0.043 A 
HETATM   25  C   UNL     1       4.229   3.521   0.956  1.00  0.00     0.032 A 
HETATM   26  C   UNL     1       3.881   4.875   1.000  1.00  0.00     0.026 A 
HETATM   27  C   UNL     1       2.788   5.337   0.270  1.00  0.00     0.034 A 
HETATM   28 CL   UNL     1       2.364   7.002   0.328  1.00  0.00    -0.084 Cl
HETATM   29  C   UNL     1       2.036   4.456  -0.503  1.00  0.00     0.026 A 
HETATM   30  C   UNL     1       2.378   3.101  -0.549  1.00  0.00     0.032 A 
ENDBRANCH   2  24
BRANCH   1  31
HETATM   31  C   UNL     1       1.499   0.156   0.336  1.00  0.00     0.012 A 
HETATM   32  C   UNL     1       0.685  -0.625  -0.498  1.00  0.00     0.015 A 
HETATM   33  C   UNL     1      -0.699  -0.658  -0.315  1.00  0.00     0.001 A 
HETATM   34  C   UNL     1      -1.283   0.082   0.711  1.00  0.00     0.000 A 
HETATM   35  C   UNL     1      -0.485   0.845   1.560  1.00  0.00     0.001 A 
HETATM   36  C   UNL     1       0.901   0.876   1.380  1.00  0.00     0.015 A 
ENDBRANCH   1  31
TORSDOF 6
