REMARK  4 active torsions:
REMARK  status: ('A' for Active; 'I' for Inactive)
REMARK    1  A    between atoms: S_2  and  N_3 
REMARK    2  A    between atoms: N_3  and  N_4 
REMARK    3  A    between atoms: C_10  and  C_11 
REMARK    4  A    between atoms: C_14  and  O_15 
ROOT
HETATM    1  N   UNL     1       2.650  -1.051  -2.276  1.00  0.00    -0.241 N 
HETATM    2  C   UNL     1       2.591  -2.360  -1.829  1.00  0.00     0.272 C 
HETATM    3  O   UNL     1       2.335  -2.643  -0.658  1.00  0.00    -0.266 OA
HETATM    4  C   UNL     1       2.932  -3.399  -2.818  1.00  0.00     0.054 A 
HETATM    5  C   UNL     1       3.623  -2.989  -3.968  1.00  0.00     0.026 A 
HETATM    6  N   UNL     1       3.932  -1.631  -4.169  1.00  0.00    -0.265 NA
HETATM    7  C   UNL     1       2.894  -0.707  -3.681  1.00  0.00     0.217 C 
HETATM    8  C   UNL     1       2.679  -4.749  -2.561  1.00  0.00     0.019 A 
HETATM    9  C   UNL     1       3.127  -5.710  -3.464  1.00  0.00     0.001 A 
HETATM   10  C   UNL     1       3.849  -5.321  -4.594  1.00  0.00     0.002 A 
HETATM   11  C   UNL     1       4.111  -3.969  -4.835  1.00  0.00     0.024 A 
HETATM   12  H   UNL     1       4.230  -1.422  -5.114  1.00  0.00     0.130 HD
ENDROOT
BRANCH   7  13
HETATM   13  C   UNL     1       1.644  -0.757  -4.577  1.00  0.00    -0.020 A 
HETATM   14  C   UNL     1       0.342  -0.739  -4.043  1.00  0.00     0.013 A 
HETATM   15  C   UNL     1      -0.787  -0.756  -4.871  1.00  0.00     0.037 A 
HETATM   16  C   UNL     1      -0.626  -0.794  -6.249  1.00  0.00     0.065 A 
HETATM   17  C   UNL     1       0.640  -0.800  -6.810  1.00  0.00     0.037 A 
HETATM   18  C   UNL     1       1.767  -0.764  -5.983  1.00  0.00     0.013 A 
BRANCH  16  19
HETATM   19  O   UNL     1      -1.697  -0.816  -7.092  1.00  0.00    -0.361 OA
HETATM   20  H   UNL     1      -2.510  -0.764  -6.564  1.00  0.00     0.217 HD
ENDBRANCH  16  19
ENDBRANCH   7  13
BRANCH   1  21
HETATM   21  N   UNL     1       3.033  -0.054  -1.244  1.00  0.00    -0.123 NA
HETATM   22  H   UNL     1       3.192  -0.483  -0.323  1.00  0.00     0.165 HD
BRANCH  21  23
HETATM   23  S   UNL     1       2.174   1.399  -1.118  1.00  0.00     0.222 S 
HETATM   24  C   UNL     1       0.742   0.857  -0.209  1.00  0.00     0.181 C 
HETATM   25  O   UNL     1       1.755   1.814  -2.438  1.00  0.00    -0.210 OA
HETATM   26  O   UNL     1       2.941   2.272  -0.258  1.00  0.00    -0.210 OA
ENDBRANCH  21  23
ENDBRANCH   1  21
TORSDOF 4
