REMARK  6 active torsions:
REMARK  status: ('A' for Active; 'I' for Inactive)
REMARK    1  A    between atoms: C_2  and  C_3 
REMARK    2  A    between atoms: C_8  and  C_9 
REMARK    3  A    between atoms: C_9  and  N_10 
REMARK    4  A    between atoms: C_12  and  C_13 
REMARK    5  A    between atoms: C_13  and  N_14 
REMARK       I    between atoms: N_14  and  C_15 
REMARK    6  A    between atoms: C_15  and  C_16 
ROOT
HETATM    1  N   UNL     1       3.662  -2.786   0.089  1.00  0.00    -0.061 N 
HETATM    2  H   UNL     1       2.710  -2.468   0.305  1.00  0.00     0.280 HD
HETATM    3  C   UNL     1       3.851  -4.134   0.812  1.00  0.00     0.206 C 
HETATM    4  C   UNL     1       3.589  -3.901   2.314  1.00  0.00     0.035 C 
HETATM    5  C   UNL     1       4.473  -2.807   2.899  1.00  0.00     0.004 C 
HETATM    6  C   UNL     1       4.329  -1.513   2.115  1.00  0.00     0.028 C 
HETATM    7  C   UNL     1       4.607  -1.732   0.637  1.00  0.00     0.236 C 
ENDROOT
BRANCH   1   8
HETATM    8  C   UNL     1       3.731  -2.822  -1.437  1.00  0.00     0.277 C 
BRANCH   8   9
HETATM    9  C   UNL     1       5.056  -3.124  -2.042  1.00  0.00     0.012 A 
HETATM   10  C   UNL     1       5.963  -2.309  -2.809  1.00  0.00     0.071 A 
HETATM   11  N   UNL     1       7.072  -3.005  -3.108  1.00  0.00    -0.178 NA
HETATM   12  N   UNL     1       6.869  -4.234  -2.644  1.00  0.00    -0.288 N 
HETATM   13  H   UNL     1       7.587  -4.937  -2.797  1.00  0.00     0.188 HD
HETATM   14  C   UNL     1       5.675  -4.362  -2.010  1.00  0.00     0.120 A 
BRANCH  10  15
HETATM   15  C   UNL     1       5.928  -0.862  -3.322  1.00  0.00    -0.004 C 
HETATM   16  C   UNL     1       6.172  -0.847  -4.853  1.00  0.00     0.021 C 
HETATM   17  C   UNL     1       7.046  -0.043  -2.639  1.00  0.00     0.021 C 
HETATM   18  C   UNL     1       4.602  -0.125  -3.086  1.00  0.00     0.021 C 
ENDBRANCH  10  15
ENDBRANCH   8   9
ENDBRANCH   1   8
BRANCH   3  19
HETATM   19  C   UNL     1       2.874  -5.225   0.277  1.00  0.00     0.156 C 
BRANCH  19  20
HETATM   20  N   UNL     1       2.960  -6.507   0.958  1.00  0.00    -0.355 N 
HETATM   21  C   UNL     1       4.135  -7.237   0.923  1.00  0.00     0.251 C 
HETATM   22  O   UNL     1       5.160  -6.782   0.425  1.00  0.00    -0.268 OA
HETATM   23  H   UNL     1       2.100  -7.021   1.122  1.00  0.00     0.162 HD
BRANCH  21  24
HETATM   24  C   UNL     1       4.103  -8.612   1.489  1.00  0.00     0.032 A 
HETATM   25  C   UNL     1       5.052  -9.537   1.033  1.00  0.00     0.017 A 
HETATM   26  C   UNL     1       5.065 -10.836   1.541  1.00  0.00     0.001 A 
HETATM   27  C   UNL     1       4.138 -11.214   2.511  1.00  0.00     0.000 A 
HETATM   28  C   UNL     1       3.202 -10.293   2.980  1.00  0.00     0.001 A 
HETATM   29  C   UNL     1       3.183  -8.991   2.475  1.00  0.00     0.017 A 
ENDBRANCH  21  24
ENDBRANCH  19  20
ENDBRANCH   3  19
TORSDOF 6
