REMARK  5 active torsions:
REMARK  status: ('A' for Active; 'I' for Inactive)
REMARK    1  A    between atoms: C_7  and  C_8 
REMARK    2  A    between atoms: C_16  and  C_17 
REMARK    3  A    between atoms: C_19  and  O_20 
REMARK    4  A    between atoms: C_24  and  C_25 
REMARK       I    between atoms: C_25  and  N_26 
REMARK    5  A    between atoms: N_26  and  C_27 
ROOT
HETATM    1  C   UNL     1       1.000   0.094   0.213  1.00  0.00     0.070 C 
HETATM    2  C   UNL     1       2.488   0.011   0.454  1.00  0.00     0.037 C 
HETATM    3  N   UNL     1       3.124   1.221   0.734  1.00  0.00    -0.192 N 
HETATM    4  C   UNL     1       4.465   1.354   0.736  1.00  0.00     0.726 A 
HETATM    5  N   UNL     1       5.242   0.235   0.663  1.00  0.00    -0.083 N 
HETATM    6  N   UNL     1       6.551   0.538   0.609  1.00  0.00    -0.135 NA
HETATM    7  C   UNL     1       6.514   1.880   0.704  1.00  0.00     0.199 A 
HETATM    8  N   UNL     1       5.234   2.410   0.772  1.00  0.00    -0.041 NA
HETATM    9  C   UNL     1       4.714  -1.130   0.660  1.00  0.00     0.202 C 
HETATM   10  C   UNL     1       3.210  -1.138   0.400  1.00  0.00     0.062 C 
HETATM   11  H   UNL     1       2.561   2.065   0.651  1.00  0.00     0.184 HD
ENDROOT
BRANCH  10  12
HETATM   12  C   UNL     1       2.602  -2.391  -0.138  1.00  0.00     0.256 C 
HETATM   13  N   UNL     1       2.891  -3.524   0.589  1.00  0.00    -0.323 N 
HETATM   14  H   UNL     1       3.443  -3.431   1.431  1.00  0.00     0.169 HD
HETATM   15  O   UNL     1       1.944  -2.335  -1.170  1.00  0.00    -0.267 OA
BRANCH  13  16
HETATM   16  C   UNL     1       2.508  -4.851   0.294  1.00  0.00     0.035 A 
HETATM   17  C   UNL     1       1.629  -5.205  -0.731  1.00  0.00     0.029 A 
HETATM   18  C   UNL     1       1.304  -6.547  -0.953  1.00  0.00     0.002 A 
HETATM   19  C   UNL     1       1.862  -7.546  -0.160  1.00  0.00     0.000 A 
HETATM   20  C   UNL     1       2.741  -7.205   0.863  1.00  0.00     0.002 A 
HETATM   21  C   UNL     1       3.057  -5.863   1.094  1.00  0.00     0.029 A 
ENDBRANCH  13  16
ENDBRANCH  10  12
BRANCH   9  22
HETATM   22  C   UNL     1       5.106  -1.805   1.976  1.00  0.00    -0.025 A 
HETATM   23  C   UNL     1       4.440  -1.516   3.183  1.00  0.00     0.046 A 
HETATM   24  C   UNL     1       4.814  -2.164   4.357  1.00  0.00     0.066 A 
HETATM   25  C   UNL     1       5.849  -3.089   4.362  1.00  0.00     0.036 A 
HETATM   26  C   UNL     1       6.532  -3.367   3.180  1.00  0.00     0.003 A 
HETATM   27  C   UNL     1       6.165  -2.730   1.994  1.00  0.00     0.010 A 
BRANCH  24  28
HETATM   28  O   UNL     1       4.179  -1.918   5.537  1.00  0.00    -0.361 OA
HETATM   29  H   UNL     1       3.551  -1.187   5.416  1.00  0.00     0.217 HD
ENDBRANCH  24  28
ENDBRANCH   9  22
BRANCH   7  30
HETATM   30  C   UNL     1       7.710   2.718   0.739  1.00  0.00     0.014 A 
HETATM   31  C   UNL     1       8.987   2.143   0.831  1.00  0.00     0.017 A 
HETATM   32  C   UNL     1      10.131   2.946   0.875  1.00  0.00     0.025 A 
HETATM   33  C   UNL     1      10.003   4.332   0.823  1.00  0.00     0.034 A 
HETATM   34 CL   UNL     1      11.409   5.322   0.879  1.00  0.00    -0.084 Cl
HETATM   35  C   UNL     1       8.744   4.921   0.730  1.00  0.00     0.025 A 
HETATM   36  C   UNL     1       7.600   4.116   0.689  1.00  0.00     0.017 A 
ENDBRANCH   7  30
TORSDOF 5
