REMARK  7 active torsions:
REMARK  status: ('A' for Active; 'I' for Inactive)
REMARK       I    between atoms: C_2  and  N_3 
REMARK       I    between atoms: C_2  and  N_12 
REMARK    1  A    between atoms: N_3  and  C_4 
REMARK    2  A    between atoms: C_16  and  C_17 
REMARK    3  A    between atoms: C_21  and  C_23 
REMARK       I    between atoms: C_23  and  N_25 
REMARK    4  A    between atoms: N_25  and  C_26 
REMARK    5  A    between atoms: C_29  and  C_30 
REMARK    6  A    between atoms: C_30  and  C_31 
REMARK    7  A    between atoms: C_31  and  N_32 
ROOT
HETATM    1  C   UNL     1       0.154  -2.958  -3.625  1.00  0.00     0.037 A 
HETATM    2  C   UNL     1       0.144  -3.914  -4.643  1.00  0.00     0.029 A 
HETATM    3  C   UNL     1      -1.022  -4.162  -5.374  1.00  0.00     0.004 A 
HETATM    4  C   UNL     1      -2.190  -3.457  -5.092  1.00  0.00     0.023 A 
HETATM    5  C   UNL     1      -2.194  -2.500  -4.075  1.00  0.00     0.046 A 
HETATM    6  C   UNL     1      -1.025  -2.253  -3.345  1.00  0.00     0.052 A 
HETATM    7  C   UNL     1      -3.397  -1.783  -3.768  1.00  0.00     0.099 C 
HETATM    8  N   UNL     1      -4.373  -1.211  -3.509  1.00  0.00    -0.191 NA
ENDROOT
BRANCH   1   9
HETATM    9  N   UNL     1       1.271  -2.691  -2.810  1.00  0.00    -0.309 N 
HETATM   10  C   UNL     1       2.540  -3.214  -2.908  1.00  0.00     0.323 C 
HETATM   11  O   UNL     1       2.970  -3.829  -3.881  1.00  0.00    -0.247 OA
HETATM   12  N   UNL     1       3.325  -3.027  -1.784  1.00  0.00    -0.325 N 
HETATM   13  C   UNL     1       4.699  -3.499  -1.770  1.00  0.00     0.128 C 
HETATM   14  C   UNL     1       2.989  -2.341  -0.533  1.00  0.00     0.122 C 
HETATM   15  C   UNL     1       5.103  -3.485  -0.305  1.00  0.00     0.022 C 
HETATM   16  C   UNL     1       4.300  -2.321   0.265  1.00  0.00     0.032 C 
HETATM   17  H   UNL     1       1.128  -2.017  -2.079  1.00  0.00     0.170 HD
BRANCH  14  18
HETATM   18  C   UNL     1       1.840  -2.998   0.211  1.00  0.00    -0.034 A 
HETATM   19  C   UNL     1       1.731  -4.392   0.343  1.00  0.00     0.009 A 
HETATM   20  C   UNL     1       0.630  -4.970   0.978  1.00  0.00     0.002 A 
HETATM   21  C   UNL     1      -0.393  -4.165   1.478  1.00  0.00     0.017 A 
HETATM   22  C   UNL     1      -0.307  -2.775   1.347  1.00  0.00     0.033 A 
HETATM   23  C   UNL     1       0.817  -2.196   0.743  1.00  0.00     0.026 A 
BRANCH  22  24
HETATM   24  C   UNL     1      -1.387  -1.876   1.838  1.00  0.00     0.256 C 
HETATM   25  O   UNL     1      -1.062  -0.801   2.327  1.00  0.00    -0.267 OA
HETATM   26  N   UNL     1      -2.669  -2.345   1.624  1.00  0.00    -0.323 N 
HETATM   27  H   UNL     1      -2.768  -3.182   1.063  1.00  0.00     0.169 HD
BRANCH  26  28
HETATM   28  C   UNL     1      -3.877  -1.752   2.046  1.00  0.00     0.035 A 
HETATM   29  C   UNL     1      -3.945  -0.627   2.867  1.00  0.00     0.030 A 
HETATM   30  C   UNL     1      -5.183  -0.129   3.288  1.00  0.00     0.009 A 
HETATM   31  C   UNL     1      -6.377  -0.740   2.887  1.00  0.00    -0.056 A 
HETATM   32  C   UNL     1      -6.309  -1.859   2.052  1.00  0.00     0.009 A 
HETATM   33  C   UNL     1      -5.070  -2.361   1.637  1.00  0.00     0.030 A 
BRANCH  31  34
HETATM   34  C   UNL     1      -7.711  -0.238   3.393  1.00  0.00     0.068 C 
BRANCH  34  35
HETATM   35  C   UNL     1      -8.036   1.195   2.931  1.00  0.00     0.277 C 
BRANCH  35  36
HETATM   36  N   UNL     1      -9.361   1.653   3.393  1.00  0.00     0.092 N 
HETATM   37  C   UNL     1      -9.419   1.913   4.850  1.00  0.00     0.298 C 
HETATM   38  C   UNL     1      -8.683   3.188   5.295  1.00  0.00     0.198 C 
HETATM   39  O   UNL     1      -9.161   4.339   4.589  1.00  0.00    -0.388 OA
HETATM   40  C   UNL     1      -9.030   4.157   3.173  1.00  0.00     0.198 C 
HETATM   41  C   UNL     1      -9.772   2.896   2.698  1.00  0.00     0.298 C 
ENDBRANCH  35  36
ENDBRANCH  34  35
ENDBRANCH  31  34
ENDBRANCH  26  28
ENDBRANCH  22  24
ENDBRANCH  14  18
ENDBRANCH   1   9
TORSDOF 7
