REMARK  10 active torsions:
REMARK  status: ('A' for Active; 'I' for Inactive)
REMARK    1  A    between atoms: O_2  and  C_3 
REMARK    2  A    between atoms: C_6  and  C_7 
REMARK       I    between atoms: C_7  and  N_8 
REMARK    3  A    between atoms: N_8  and  C_9 
REMARK    4  A    between atoms: C_9  and  N_10 
REMARK    5  A    between atoms: N_10  and  C_11 
REMARK    6  A    between atoms: C_12  and  C_13 
REMARK       I    between atoms: C_13  and  N_14 
REMARK    7  A    between atoms: N_14  and  C_15 
REMARK    8  A    between atoms: C_15  and  C_16 
REMARK    9  A    between atoms: C_16  and  C_17 
REMARK   10  A    between atoms: C_17  and  O_18 
ROOT
HETATM    1  N   UNL     1       1.809   5.925  -1.364  1.00  0.00    -0.332 N 
HETATM    2  H   UNL     1       0.824   6.047  -1.164  1.00  0.00     0.168 HD
ENDROOT
BRANCH   1   3
HETATM    3  C   UNL     1       2.227   6.635  -2.472  1.00  0.00     0.179 C 
HETATM    4  S   UNL     1       3.289   6.126  -3.665  1.00  0.00    -0.040 SA
BRANCH   3   5
HETATM    5  N   UNL     1       1.582   7.841  -2.698  1.00  0.00    -0.299 N 
HETATM    6  C   UNL     1       0.428   8.266  -2.076  1.00  0.00     0.257 C 
HETATM    7  O   UNL     1      -0.662   8.245  -2.636  1.00  0.00    -0.267 OA
HETATM    8  H   UNL     1       1.548   7.992  -3.700  1.00  0.00     0.171 HD
BRANCH   6   9
HETATM    9  C   UNL     1       0.547   8.762  -0.687  1.00  0.00     0.032 A 
HETATM   10  C   UNL     1       1.483   9.750  -0.365  1.00  0.00     0.020 A 
HETATM   11  C   UNL     1       1.491  10.301   0.920  1.00  0.00     0.038 A 
HETATM   12  C   UNL     1       0.573   9.852   1.872  1.00  0.00     0.068 A 
HETATM   13  C   UNL     1      -0.324   8.829   1.564  1.00  0.00     0.038 A 
HETATM   14  C   UNL     1      -0.360   8.302   0.274  1.00  0.00     0.020 A 
BRANCH  12  15
HETATM   15  O   UNL     1       0.531  10.350   3.146  1.00  0.00    -0.356 OA
HETATM   16  C   UNL     1       0.279  11.754   3.161  1.00  0.00     0.210 C 
ENDBRANCH  12  15
ENDBRANCH   6   9
ENDBRANCH   3   5
ENDBRANCH   1   3
BRANCH   1  17
HETATM   17  C   UNL     1       2.343   4.711  -0.861  1.00  0.00     0.050 A 
HETATM   18  C   UNL     1       3.704   4.448  -0.624  1.00  0.00     0.058 A 
HETATM   19  C   UNL     1       4.098   3.182  -0.145  1.00  0.00     0.019 A 
HETATM   20  C   UNL     1       3.151   2.189   0.103  1.00  0.00     0.001 A 
HETATM   21  C   UNL     1       1.801   2.459  -0.090  1.00  0.00     0.002 A 
HETATM   22  C   UNL     1       1.400   3.715  -0.552  1.00  0.00     0.030 A 
BRANCH  18  23
HETATM   23  C   UNL     1       4.746   5.508  -0.678  1.00  0.00     0.253 C 
HETATM   24  N   UNL     1       5.934   5.144  -1.283  1.00  0.00    -0.357 N 
HETATM   25  H   UNL     1       6.030   4.214  -1.673  1.00  0.00     0.162 HD
HETATM   26  O   UNL     1       4.542   6.611  -0.185  1.00  0.00    -0.268 OA
BRANCH  24  27
HETATM   27  C   UNL     1       7.069   6.040  -1.310  1.00  0.00     0.125 C 
BRANCH  27  28
HETATM   28  C   UNL     1       8.015   5.761  -2.470  1.00  0.00     0.046 C 
BRANCH  28  29
HETATM   29  C   UNL     1       7.379   6.043  -3.824  1.00  0.00     0.165 C 
BRANCH  29  30
HETATM   30  O   UNL     1       8.353   5.872  -4.848  1.00  0.00    -0.401 OA
HETATM   31  H   UNL     1       8.986   6.606  -4.772  1.00  0.00     0.209 HD
ENDBRANCH  29  30
ENDBRANCH  28  29
ENDBRANCH  27  28
ENDBRANCH  24  27
ENDBRANCH  18  23
ENDBRANCH   1  17
TORSDOF 10
