REMARK  5 active torsions:
REMARK  status: ('A' for Active; 'I' for Inactive)
REMARK    1  A    between atoms: C_5  and  N_6 
REMARK       I    between atoms: N_6  and  C_7 
REMARK       I    between atoms: C_7  and  N_8 
REMARK    2  A    between atoms: N_8  and  C_9 
REMARK    3  A    between atoms: C_11  and  C_12 
REMARK       I    between atoms: C_12  and  N_13 
REMARK    4  A    between atoms: N_13  and  C_14 
REMARK    5  A    between atoms: C_14  and  C_15 
ROOT
HETATM    1  C   UNL     1       4.984  -2.418  -0.142  1.00  0.00     0.175 A 
HETATM    2  S   UNL     1       3.999  -3.724  -0.586  1.00  0.00    -0.044 SA
HETATM    3  C   UNL     1       2.666  -2.982   0.224  1.00  0.00     0.100 A 
HETATM    4  C   UNL     1       3.099  -1.802   0.822  1.00  0.00     0.056 A 
HETATM    5  C   UNL     1       2.304  -0.809   1.596  1.00  0.00     0.072 C 
HETATM    6  N   UNL     1       4.440  -1.495   0.609  1.00  0.00    -0.228 NA
ENDROOT
BRANCH   1   7
HETATM    7  N   UNL     1       6.251  -2.449  -0.643  1.00  0.00    -0.287 N 
HETATM    8  C   UNL     1       7.175  -1.444  -0.572  1.00  0.00     0.326 C 
HETATM    9  N   UNL     1       6.806  -0.317   0.113  1.00  0.00    -0.309 N 
HETATM   10  O   UNL     1       8.250  -1.623  -1.143  1.00  0.00    -0.247 OA
HETATM   11  H   UNL     1       5.914  -0.384   0.595  1.00  0.00     0.170 HD
HETATM   12  H   UNL     1       6.520  -3.244  -1.202  1.00  0.00     0.172 HD
BRANCH   9  13
HETATM   13  C   UNL     1       7.493   0.907   0.224  1.00  0.00     0.036 A 
HETATM   14  C   UNL     1       8.683   1.199  -0.442  1.00  0.00     0.030 A 
HETATM   15  C   UNL     1       9.282   2.457  -0.306  1.00  0.00     0.009 A 
HETATM   16  C   UNL     1       8.700   3.444   0.495  1.00  0.00    -0.062 A 
HETATM   17  C   UNL     1       9.361   4.782   0.642  1.00  0.00     0.048 C 
HETATM   18  C   UNL     1       7.516   3.147   1.177  1.00  0.00     0.009 A 
HETATM   19  C   UNL     1       6.916   1.891   1.036  1.00  0.00     0.030 A 
ENDBRANCH   9  13
ENDBRANCH   1   7
BRANCH   3  20
HETATM   20  C   UNL     1       1.358  -3.609   0.124  1.00  0.00     0.260 C 
HETATM   21  N   UNL     1       0.456  -3.276   1.112  1.00  0.00    -0.352 N 
HETATM   22  H   UNL     1       0.774  -2.827   1.957  1.00  0.00     0.163 HD
HETATM   23  O   UNL     1       1.044  -4.380  -0.781  1.00  0.00    -0.267 OA
BRANCH  21  24
HETATM   24  C   UNL     1      -0.922  -3.710   1.079  1.00  0.00     0.163 C 
BRANCH  24  25
HETATM   25  C   UNL     1      -1.197  -4.819   2.059  1.00  0.00    -0.019 A 
HETATM   26  C   UNL     1      -1.255  -4.607   3.446  1.00  0.00     0.042 A 
HETATM   27 CL   UNL     1      -0.957  -3.050   4.138  1.00  0.00    -0.084 Cl
HETATM   28  C   UNL     1      -1.555  -5.659   4.317  1.00  0.00     0.024 A 
HETATM   29  C   UNL     1      -1.794  -6.938   3.814  1.00  0.00     0.002 A 
HETATM   30  C   UNL     1      -1.722  -7.168   2.443  1.00  0.00     0.001 A 
HETATM   31  C   UNL     1      -1.420  -6.119   1.573  1.00  0.00     0.010 A 
ENDBRANCH  24  25
ENDBRANCH  21  24
ENDBRANCH   3  20
TORSDOF 5
