REMARK  8 active torsions:
REMARK  status: ('A' for Active; 'I' for Inactive)
REMARK    1  A    between atoms: C_2  and  C_3 
REMARK    2  A    between atoms: C_3  and  O_4 
REMARK    3  A    between atoms: O_4  and  C_5 
REMARK    4  A    between atoms: C_6  and  C_7 
REMARK    5  A    between atoms: C_11  and  C_12 
REMARK       I    between atoms: C_12  and  N_13 
REMARK    6  A    between atoms: N_13  and  N_14 
REMARK    7  A    between atoms: C_15  and  C_16 
REMARK    8  A    between atoms: C_19  and  N_20 
ROOT
HETATM    1  C   UNL     1       4.116   3.946   0.065  1.00  0.00     0.092 A 
HETATM    2  N   UNL     1       3.675   3.111   1.023  1.00  0.00    -0.174 NA
HETATM    3  N   UNL     1       3.022   3.899   1.887  1.00  0.00    -0.272 N 
HETATM    4  H   UNL     1       2.600   3.484   2.713  1.00  0.00     0.189 HD
HETATM    5  C   UNL     1       2.988   5.218   1.533  1.00  0.00     0.121 A 
HETATM    6  C   UNL     1       3.689   5.276   0.346  1.00  0.00     0.071 A 
ENDROOT
BRANCH   5   7
HETATM    7  C   UNL     1       2.307   6.188   2.354  1.00  0.00     0.289 C 
HETATM    8  N   UNL     1       2.359   7.491   1.880  1.00  0.00    -0.242 N 
HETATM    9  H   UNL     1       2.850   7.706   1.023  1.00  0.00     0.192 HD
HETATM   10  O   UNL     1       1.731   5.849   3.385  1.00  0.00    -0.264 OA
BRANCH   8  11
HETATM   11  N   UNL     1       1.713   8.486   2.554  1.00  0.00    -0.184 NA
HETATM   12  C   UNL     1       1.797   9.669   2.034  1.00  0.00     0.150 C 
BRANCH  12  13
HETATM   13  C   UNL     1       1.125  10.830   2.650  1.00  0.00    -0.017 A 
HETATM   14  C   UNL     1       0.372  10.689   3.814  1.00  0.00     0.015 A 
HETATM   15  C   UNL     1      -0.280  11.799   4.366  1.00  0.00     0.030 A 
HETATM   16  C   UNL     1      -0.189  13.075   3.786  1.00  0.00     0.029 A 
HETATM   17  C   UNL     1       0.575  13.181   2.608  1.00  0.00     0.030 A 
HETATM   18  C   UNL     1       1.229  12.079   2.042  1.00  0.00     0.015 A 
BRANCH  16  19
HETATM   19  N   UNL     1      -0.852  14.201   4.299  1.00  0.00    -0.390 N 
HETATM   20  C   UNL     1      -0.002  15.378   4.503  1.00  0.00     0.149 C 
HETATM   21  C   UNL     1      -1.859  13.997   5.341  1.00  0.00     0.149 C 
ENDBRANCH  16  19
ENDBRANCH  12  13
ENDBRANCH   8  11
ENDBRANCH   5   7
BRANCH   1  22
HETATM   22  C   UNL     1       4.886   3.443  -1.085  1.00  0.00     0.028 A 
HETATM   23  C   UNL     1       5.830   4.225  -1.785  1.00  0.00     0.081 A 
HETATM   24  C   UNL     1       6.513   3.663  -2.877  1.00  0.00     0.038 A 
HETATM   25  C   UNL     1       6.278   2.343  -3.269  1.00  0.00     0.003 A 
HETATM   26  C   UNL     1       5.358   1.566  -2.578  1.00  0.00     0.001 A 
HETATM   27  C   UNL     1       4.670   2.112  -1.496  1.00  0.00     0.017 A 
BRANCH  23  28
HETATM   28  O   UNL     1       6.036   5.511  -1.350  1.00  0.00    -0.350 OA
BRANCH  28  29
HETATM   29  C   UNL     1       7.111   6.250  -1.929  1.00  0.00     0.175 C 
BRANCH  29  30
HETATM   30  C   UNL     1       7.190   7.594  -1.210  1.00  0.00     0.022 C 
HETATM   31  C   UNL     1       8.302   8.466  -1.764  1.00  0.00     0.007 C 
ENDBRANCH  29  30
ENDBRANCH  28  29
ENDBRANCH  23  28
ENDBRANCH   1  22
TORSDOF 8
