REMARK  8 active torsions:
REMARK  status: ('A' for Active; 'I' for Inactive)
REMARK    1  A    between atoms: C_2  and  C_3 
REMARK    2  A    between atoms: C_3  and  C_4 
REMARK    3  A    between atoms: C_3  and  C_38 
REMARK    4  A    between atoms: C_6  and  C_7 
REMARK    5  A    between atoms: C_14  and  C_15 
REMARK    6  A    between atoms: C_18  and  C_19 
REMARK    7  A    between atoms: C_19  and  N_20 
REMARK       I    between atoms: N_20  and  C_21 
REMARK       I    between atoms: C_21  and  N_22 
REMARK    8  A    between atoms: N_22  and  C_23 
ROOT
HETATM    1  C   UNL     1      -0.766 -10.633   5.386  1.00  0.00     0.037 A 
HETATM    2  C   UNL     1       0.565 -10.523   4.971  1.00  0.00     0.052 A 
HETATM    3  C   UNL     1       1.415 -11.637   5.001  1.00  0.00     0.046 A 
HETATM    4  C   UNL     1       2.778 -11.500   4.579  1.00  0.00     0.099 C 
HETATM    5  N   UNL     1       3.875 -11.364   4.227  1.00  0.00    -0.191 NA
HETATM    6  C   UNL     1       0.935 -12.869   5.451  1.00  0.00     0.023 A 
HETATM    7  C   UNL     1      -0.389 -12.985   5.872  1.00  0.00     0.004 A 
HETATM    8  C   UNL     1      -1.233 -11.870   5.844  1.00  0.00     0.029 A 
ENDROOT
BRANCH   1   9
HETATM    9  N   UNL     1      -1.662  -9.543   5.412  1.00  0.00    -0.309 N 
HETATM   10  C   UNL     1      -1.484  -8.321   4.817  1.00  0.00     0.320 C 
HETATM   11  N   UNL     1      -2.435  -7.410   5.215  1.00  0.00    -0.341 N 
HETATM   12  O   UNL     1      -0.631  -8.024   3.987  1.00  0.00    -0.247 OA
HETATM   13  H   UNL     1      -2.819  -7.601   6.134  1.00  0.00     0.164 HD
HETATM   14  H   UNL     1      -2.582  -9.732   5.789  1.00  0.00     0.170 HD
BRANCH  11  15
HETATM   15  C   UNL     1      -2.349  -5.993   4.858  1.00  0.00     0.157 C 
BRANCH  15  16
HETATM   16  C   UNL     1      -2.544  -5.689   3.352  1.00  0.00     0.206 C 
HETATM   17  C   UNL     1      -2.841  -4.210   3.051  1.00  0.00     0.040 C 
HETATM   18  C   UNL     1      -2.088  -3.758   1.778  1.00  0.00     0.001 C 
HETATM   19  C   UNL     1      -0.560  -3.757   2.059  1.00  0.00     0.068 C 
HETATM   20  C   UNL     1      -2.355  -4.796   0.661  1.00  0.00     0.033 C 
HETATM   21  C   UNL     1      -0.165  -5.132   2.643  1.00  0.00     0.246 C 
HETATM   22  N   UNL     1      -1.349  -6.080   2.486  1.00  0.00    -0.065 N 
HETATM   23  C   UNL     1      -1.767  -6.161   1.040  1.00  0.00     0.236 C 
HETATM   24  H   UNL     1      -1.016  -7.014   2.811  1.00  0.00     0.280 HD
BRANCH  19  25
HETATM   25  C   UNL     1      -0.114  -2.582   2.905  1.00  0.00     0.045 A 
HETATM   26  N   UNL     1       0.227  -2.818   4.186  1.00  0.00    -0.233 NA
HETATM   27  C   UNL     1       0.650  -1.762   4.917  1.00  0.00     0.160 A 
HETATM   28  N   UNL     1       0.688  -0.497   4.461  1.00  0.00    -0.233 NA
HETATM   29  C   UNL     1       0.330  -0.275   3.182  1.00  0.00     0.043 A 
HETATM   30  C   UNL     1      -0.076  -1.311   2.358  1.00  0.00     0.055 A 
BRANCH  27  31
HETATM   31  C   UNL     1       1.146  -2.023   6.281  1.00  0.00     0.014 A 
HETATM   32  C   UNL     1       1.730  -1.009   7.055  1.00  0.00     0.034 A 
HETATM   33  C   UNL     1       2.209  -1.303   8.322  1.00  0.00     0.117 A 
HETATM   34  N   UNL     1       2.146  -2.529   8.877  1.00  0.00    -0.273 NA
HETATM   35  C   UNL     1       1.588  -3.502   8.133  1.00  0.00     0.117 A 
HETATM   36  C   UNL     1       1.084  -3.301   6.857  1.00  0.00     0.034 A 
ENDBRANCH  27  31
BRANCH  29  37
HETATM   37  C   UNL     1       0.355   1.154   2.654  1.00  0.00     0.037 C 
BRANCH  37  38
HETATM   38  C   UNL     1       1.689   1.872   2.972  1.00  0.00     0.006 C 
HETATM   39  C   UNL     1       1.798   2.521   4.347  1.00  0.00     0.006 C 
ENDBRANCH  37  38
BRANCH  37  40
HETATM   40  C   UNL     1      -0.878   1.958   3.112  1.00  0.00     0.006 C 
HETATM   41  C   UNL     1      -2.185   1.459   2.507  1.00  0.00     0.006 C 
ENDBRANCH  37  40
ENDBRANCH  29  37
ENDBRANCH  19  25
ENDBRANCH  15  16
ENDBRANCH  11  15
ENDBRANCH   1   9
TORSDOF 8
