REMARK  5 active torsions:
REMARK  status: ('A' for Active; 'I' for Inactive)
REMARK    1  A    between atoms: C_2  and  C_3 
REMARK    2  A    between atoms: C_6  and  N_7 
REMARK       I    between atoms: N_7  and  C_8 
REMARK       I    between atoms: C_8  and  N_9 
REMARK    3  A    between atoms: N_9  and  C_10 
REMARK    4  A    between atoms: N_20  and  N_21 
REMARK       I    between atoms: N_21  and  C_22 
REMARK    5  A    between atoms: C_22  and  C_23 
ROOT
HETATM    1  C   UNL     1       3.103   1.458   0.762  1.00  0.00    -0.010 A 
HETATM    2  C   UNL     1       2.962   2.790   1.163  1.00  0.00     0.016 A 
HETATM    3  C   UNL     1       3.815   3.320   2.139  1.00  0.00     0.030 A 
HETATM    4  C   UNL     1       4.807   2.520   2.718  1.00  0.00     0.036 A 
HETATM    5  C   UNL     1       4.919   1.180   2.333  1.00  0.00     0.030 A 
HETATM    6  C   UNL     1       4.093   0.657   1.337  1.00  0.00     0.016 A 
ENDROOT
BRANCH   1   7
HETATM    7  C   UNL     1       2.214   0.883  -0.281  1.00  0.00     0.061 C 
HETATM    8  C   UNL     1       2.104   1.649  -1.581  1.00  0.00     0.073 C 
HETATM    9  N   UNL     1       1.554  -0.235  -0.197  1.00  0.00    -0.176 NA
BRANCH   9  10
HETATM   10  N   UNL     1       1.535  -0.914   0.985  1.00  0.00    -0.243 N 
HETATM   11  C   UNL     1       1.050  -2.214   1.025  1.00  0.00     0.273 C 
HETATM   12  O   UNL     1       0.599  -2.832   0.065  1.00  0.00    -0.266 OA
HETATM   13  H   UNL     1       1.741  -0.401   1.832  1.00  0.00     0.192 HD
BRANCH  11  14
HETATM   14  C   UNL     1       1.095  -2.887   2.348  1.00  0.00     0.051 A 
HETATM   15  C   UNL     1       1.994  -2.530   3.346  1.00  0.00     0.133 A 
HETATM   16  N   UNL     1       2.067  -3.134   4.558  1.00  0.00    -0.272 NA
HETATM   17  C   UNL     1       1.217  -4.162   4.774  1.00  0.00     0.116 A 
HETATM   18  C   UNL     1       0.301  -4.613   3.837  1.00  0.00     0.020 A 
HETATM   19  C   UNL     1       0.244  -3.965   2.605  1.00  0.00     0.020 A 
ENDBRANCH  11  14
ENDBRANCH   9  10
ENDBRANCH   1   7
BRANCH   4  20
HETATM   20  N   UNL     1       5.674   2.965   3.727  1.00  0.00    -0.309 N 
HETATM   21  C   UNL     1       6.157   4.202   4.058  1.00  0.00     0.325 C 
HETATM   22  N   UNL     1       6.088   5.163   3.084  1.00  0.00    -0.309 N 
HETATM   23  O   UNL     1       6.710   4.317   5.149  1.00  0.00    -0.247 OA
HETATM   24  H   UNL     1       5.763   4.844   2.185  1.00  0.00     0.170 HD
HETATM   25  H   UNL     1       6.060   2.259   4.344  1.00  0.00     0.170 HD
BRANCH  22  26
HETATM   26  C   UNL     1       6.651   6.456   3.109  1.00  0.00     0.036 A 
HETATM   27  C   UNL     1       7.306   7.005   4.215  1.00  0.00     0.031 A 
HETATM   28  C   UNL     1       7.890   8.275   4.139  1.00  0.00     0.026 A 
HETATM   29  C   UNL     1       7.810   9.008   2.959  1.00  0.00     0.034 A 
HETATM   30 CL   UNL     1       8.541  10.562   2.862  1.00  0.00    -0.084 Cl
HETATM   31  C   UNL     1       7.143   8.485   1.856  1.00  0.00     0.026 A 
HETATM   32  C   UNL     1       6.566   7.213   1.931  1.00  0.00     0.031 A 
ENDBRANCH  22  26
ENDBRANCH   4  20
TORSDOF 5
