REMARK  7 active torsions:
REMARK  status: ('A' for Active; 'I' for Inactive)
REMARK    1  A    between atoms: C_2  and  C_3 
REMARK    2  A    between atoms: C_4  and  N_5 
REMARK       I    between atoms: N_5  and  C_6 
REMARK    3  A    between atoms: C_6  and  C_7 
REMARK    4  A    between atoms: C_8  and  N_9 
REMARK       I    between atoms: N_9  and  C_10 
REMARK    5  A    between atoms: C_10  and  C_11 
REMARK    6  A    between atoms: C_11  and  N_12 
REMARK    7  A    between atoms: C_25  and  C_26 
ROOT
HETATM    1  C   UNL     1       1.549   5.577   0.707  1.00  0.00     0.073 A 
HETATM    2  C   UNL     1       1.374   6.918   0.428  1.00  0.00     0.093 A 
HETATM    3  S   UNL     1       1.972   7.955   1.628  1.00  0.00    -0.075 SA
HETATM    4  C   UNL     1       2.332   6.642   2.639  1.00  0.00    -0.008 A 
HETATM    5  C   UNL     1       2.093   5.418   2.042  1.00  0.00    -0.026 A 
HETATM    6  C   UNL     1       2.497   4.132   2.707  1.00  0.00     0.041 C 
HETATM    7  C   UNL     1       3.015   4.324   4.146  1.00  0.00     0.010 C 
HETATM    8  C   UNL     1       3.774   5.650   4.445  1.00  0.00    -0.002 C 
HETATM    9  C   UNL     1       2.891   6.844   4.008  1.00  0.00     0.052 C 
ENDROOT
BRANCH   1  10
HETATM   10  C   UNL     1       1.344   4.517  -0.286  1.00  0.00     0.259 C 
HETATM   11  N   UNL     1       0.565   3.473   0.168  1.00  0.00    -0.322 N 
HETATM   12  H   UNL     1      -0.027   3.680   0.957  1.00  0.00     0.169 HD
HETATM   13  O   UNL     1       1.805   4.627  -1.418  1.00  0.00    -0.267 OA
BRANCH  11  14
HETATM   14  C   UNL     1       0.413   2.213  -0.454  1.00  0.00     0.041 A 
HETATM   15  C   UNL     1      -0.717   1.416  -0.171  1.00  0.00    -0.032 A 
HETATM   16  C   UNL     1      -0.808   0.130  -0.741  1.00  0.00     0.009 A 
HETATM   17  C   UNL     1       0.200  -0.365  -1.566  1.00  0.00     0.001 A 
HETATM   18  C   UNL     1       1.308   0.425  -1.847  1.00  0.00     0.002 A 
HETATM   19  C   UNL     1       1.411   1.705  -1.299  1.00  0.00     0.030 A 
BRANCH  15  20
HETATM   20  C   UNL     1      -1.905   1.911   0.623  1.00  0.00     0.036 C 
HETATM   21  C   UNL     1      -2.840   2.743  -0.247  1.00  0.00     0.010 C 
ENDBRANCH  15  20
ENDBRANCH  11  14
ENDBRANCH   1  10
BRANCH   2  22
HETATM   22  N   UNL     1       0.797   7.610  -0.613  1.00  0.00    -0.319 N 
HETATM   23  C   UNL     1      -0.388   7.167  -1.160  1.00  0.00     0.248 C 
HETATM   24  O   UNL     1      -1.028   6.173  -0.813  1.00  0.00    -0.271 OA
HETATM   25  H   UNL     1       1.042   8.593  -0.648  1.00  0.00     0.169 HD
BRANCH  23  26
HETATM   26  C   UNL     1      -1.046   8.155  -2.122  1.00  0.00     0.337 C 
BRANCH  26  27
HETATM   27  N   UNL     1      -2.478   8.441  -1.662  1.00  0.00    -0.059 N 
HETATM   28  H   UNL     1      -2.881   7.505  -1.479  1.00  0.00     0.280 HD
HETATM   29  C   UNL     1      -2.533   9.209  -0.345  1.00  0.00     0.261 C 
HETATM   30  C   UNL     1      -3.993   9.442   0.058  1.00  0.00     0.195 C 
HETATM   31  O   UNL     1      -4.703  10.125  -0.980  1.00  0.00    -0.388 OA
HETATM   32  C   UNL     1      -4.732   9.362  -2.191  1.00  0.00     0.195 C 
HETATM   33  C   UNL     1      -3.314   9.126  -2.724  1.00  0.00     0.261 C 
ENDBRANCH  26  27
ENDBRANCH  23  26
ENDBRANCH   2  22
BRANCH   8  34
HETATM   34  C   UNL     1       5.287   5.711   3.999  1.00  0.00    -0.047 C 
HETATM   35  C   UNL     1       5.528   5.466   2.501  1.00  0.00     0.015 C 
HETATM   36  C   UNL     1       5.900   7.089   4.347  1.00  0.00     0.015 C 
HETATM   37  C   UNL     1       6.094   4.651   4.786  1.00  0.00     0.015 C 
ENDBRANCH   8  34
TORSDOF 7
