REMARK  10 active torsions:
REMARK  status: ('A' for Active; 'I' for Inactive)
REMARK    1  A    between atoms: C_4  and  C_5 
REMARK    2  A    between atoms: C_5  and  C_6 
REMARK    3  A    between atoms: C_6  and  N_7 
REMARK    4  A    between atoms: C_6  and  C_15 
REMARK       I    between atoms: N_7  and  C_8 
REMARK    5  A    between atoms: C_8  and  C_9 
REMARK       I    between atoms: C_15  and  N_16 
REMARK    6  A    between atoms: N_16  and  C_17 
REMARK    7  A    between atoms: C_17  and  C_18 
REMARK    8  A    between atoms: C_18  and  C_19 
REMARK    9  A    between atoms: C_21  and  O_22 
REMARK   10  A    between atoms: C_23  and  O_24 
ROOT
HETATM    1  C   UNL     1       3.601  -1.181   0.051  1.00  0.00     0.181 C 
ENDROOT
BRANCH   1   2
HETATM    2  C   UNL     1       3.362  -1.743   1.464  1.00  0.00     0.073 C 
BRANCH   2   3
HETATM    3  C   UNL     1       1.903  -1.785   1.862  1.00  0.00    -0.056 A 
HETATM    4  C   UNL     1       1.262  -3.010   2.092  1.00  0.00     0.007 A 
HETATM    5  C   UNL     1      -0.083  -3.046   2.467  1.00  0.00     0.001 A 
HETATM    6  C   UNL     1      -0.799  -1.860   2.617  1.00  0.00     0.000 A 
HETATM    7  C   UNL     1      -0.170  -0.637   2.396  1.00  0.00     0.001 A 
HETATM    8  C   UNL     1       1.175  -0.598   2.024  1.00  0.00     0.007 A 
ENDBRANCH   2   3
ENDBRANCH   1   2
BRANCH   1   9
HETATM    9  N   UNL     1       2.982  -2.026  -0.975  1.00  0.00    -0.342 N 
HETATM   10  C   UNL     1       2.604  -1.562  -2.213  1.00  0.00     0.276 C 
HETATM   11  O   UNL     1       2.869  -0.419  -2.581  1.00  0.00    -0.265 OA
HETATM   12  H   UNL     1       2.752  -2.989  -0.754  1.00  0.00     0.163 HD
BRANCH  10  13
HETATM   13  C   UNL     1       1.920  -2.536  -3.035  1.00  0.00     0.142 A 
HETATM   14  O   UNL     1       1.711  -3.802  -2.550  1.00  0.00    -0.317 OA
HETATM   15  C   UNL     1       1.059  -4.498  -3.518  1.00  0.00     0.143 A 
HETATM   16  C   UNL     1       0.846  -3.707  -4.622  1.00  0.00     0.027 A 
HETATM   17  C   UNL     1       1.401  -2.442  -4.312  1.00  0.00     0.045 A 
ENDBRANCH  10  13
ENDBRANCH   1   9
BRANCH   1  18
HETATM   18  C   UNL     1       5.120  -1.037  -0.212  1.00  0.00     0.240 C 
HETATM   19  N   UNL     1       5.424  -0.451  -1.424  1.00  0.00    -0.359 N 
HETATM   20  H   UNL     1       4.647  -0.170  -2.024  1.00  0.00     0.162 HD
HETATM   21  O   UNL     1       5.980  -1.357   0.606  1.00  0.00    -0.271 OA
BRANCH  19  22
HETATM   22  C   UNL     1       6.776  -0.156  -1.850  1.00  0.00     0.127 C 
BRANCH  22  23
HETATM   23  C   UNL     1       7.014   1.347  -2.043  1.00  0.00     0.058 C 
BRANCH  23  24
HETATM   24  C   UNL     1       6.841   2.205  -0.808  1.00  0.00    -0.054 A 
HETATM   25  C   UNL     1       7.467   1.877   0.406  1.00  0.00     0.046 A 
HETATM   26  C   UNL     1       7.315   2.712   1.509  1.00  0.00     0.099 A 
HETATM   27  C   UNL     1       6.560   3.877   1.414  1.00  0.00     0.098 A 
HETATM   28  C   UNL     1       5.940   4.223   0.225  1.00  0.00     0.040 A 
HETATM   29  C   UNL     1       6.083   3.389  -0.886  1.00  0.00     0.010 A 
BRANCH  26  30
HETATM   30  O   UNL     1       7.895   2.426   2.714  1.00  0.00    -0.358 OA
HETATM   31  H   UNL     1       8.297   1.542   2.645  1.00  0.00     0.218 HD
ENDBRANCH  26  30
BRANCH  27  32
HETATM   32  O   UNL     1       6.426   4.693   2.501  1.00  0.00    -0.358 OA
HETATM   33  H   UNL     1       6.951   4.253   3.198  1.00  0.00     0.218 HD
ENDBRANCH  27  32
ENDBRANCH  23  24
ENDBRANCH  22  23
ENDBRANCH  19  22
ENDBRANCH   1  18
TORSDOF 10
