REMARK  3 active torsions:
REMARK  status: ('A' for Active; 'I' for Inactive)
REMARK       I    between atoms: C_2  and  N_3 
REMARK    1  A    between atoms: N_3  and  C_4 
REMARK    2  A    between atoms: C_7  and  N_8 
REMARK       I    between atoms: N_8  and  C_9 
REMARK    3  A    between atoms: C_9  and  C_10 
ROOT
HETATM    1  C   UNL     1       2.789   1.552  -1.983  1.00  0.00     0.034 A 
HETATM    2  C   UNL     1       2.091   1.090  -3.103  1.00  0.00     0.032 A 
HETATM    3  C   UNL     1       1.614   1.981  -4.073  1.00  0.00     0.032 A 
HETATM    4  C   UNL     1       1.828   3.351  -3.937  1.00  0.00     0.035 A 
HETATM    5  C   UNL     1       2.499   3.816  -2.803  1.00  0.00     0.032 A 
HETATM    6  C   UNL     1       2.978   2.925  -1.834  1.00  0.00     0.032 A 
ENDROOT
BRANCH   4   7
HETATM    7  N   UNL     1       1.434   4.305  -4.890  1.00  0.00    -0.322 N 
HETATM    8  C   UNL     1       0.826   4.094  -6.112  1.00  0.00     0.274 C 
HETATM    9  O   UNL     1       0.434   3.029  -6.575  1.00  0.00    -0.266 OA
HETATM   10  H   UNL     1       1.669   5.278  -4.706  1.00  0.00     0.169 HD
BRANCH   8  11
HETATM   11  C   UNL     1       0.685   5.354  -6.914  1.00  0.00     0.126 A 
HETATM   12  N   UNL     1       1.132   6.497  -6.316  1.00  0.00    -0.255 NA
HETATM   13  C   UNL     1       1.044   7.634  -7.038  1.00  0.00     0.119 A 
HETATM   14  C   UNL     1       0.537   7.686  -8.324  1.00  0.00     0.043 A 
HETATM   15  C   UNL     1       0.092   6.500  -8.896  1.00  0.00     0.037 A 
HETATM   16 CL   UNL     1      -0.539   6.515 -10.497  1.00  0.00    -0.084 Cl
HETATM   17  C   UNL     1       0.157   5.307  -8.194  1.00  0.00     0.061 A 
ENDBRANCH   8  11
ENDBRANCH   4   7
BRANCH   1  18
HETATM   18  N   UNL     1       3.276   0.585  -1.081  1.00  0.00    -0.328 N 
HETATM   19  C   UNL     1       4.032   0.800   0.058  1.00  0.00     0.218 C 
HETATM   20  C   UNL     1       4.419  -0.496   0.726  1.00  0.00     0.117 C 
HETATM   21  O   UNL     1       4.394   1.878   0.515  1.00  0.00    -0.274 OA
HETATM   22  H   UNL     1       3.074  -0.379  -1.316  1.00  0.00     0.169 HD
ENDBRANCH   1  18
TORSDOF 3
