REMARK  9 active torsions:
REMARK  status: ('A' for Active; 'I' for Inactive)
REMARK    1  A    between atoms: C_2  and  N_3 
REMARK       I    between atoms: N_3  and  C_4 
REMARK    2  A    between atoms: C_4  and  C_5 
REMARK    3  A    between atoms: C_5  and  S_6 
REMARK    4  A    between atoms: S_6  and  C_7 
REMARK    5  A    between atoms: N_8  and  C_9 
REMARK    6  A    between atoms: C_9  and  C_10 
REMARK    7  A    between atoms: C_10  and  C_11 
REMARK    8  A    between atoms: C_17  and  C_18 
REMARK    9  A    between atoms: C_19  and  O_20 
ROOT
HETATM    1  C   UNL     1       6.488   1.007   2.427  1.00  0.00     0.192 A 
HETATM    2  N   UNL     1       6.532   2.242   3.019  1.00  0.00    -0.307 N 
HETATM    3  C   UNL     1       7.432   2.115   4.063  1.00  0.00     0.167 A 
HETATM    4  N   UNL     1       7.939   0.893   4.031  1.00  0.00    -0.128 NA
HETATM    5  N   UNL     1       7.356   0.207   3.001  1.00  0.00    -0.122 NA
ENDROOT
BRANCH   1   6
HETATM    6  S   UNL     1       5.410   0.567   1.151  1.00  0.00    -0.081 SA
BRANCH   6   7
HETATM    7  C   UNL     1       5.893  -1.153   0.840  1.00  0.00     0.185 C 
BRANCH   7   8
HETATM    8  C   UNL     1       5.383  -2.082   1.930  1.00  0.00     0.227 C 
HETATM    9  N   UNL     1       6.316  -2.380   2.903  1.00  0.00    -0.361 N 
HETATM   10  H   UNL     1       7.076  -1.706   3.020  1.00  0.00     0.162 HD
HETATM   11  O   UNL     1       4.244  -2.544   1.921  1.00  0.00    -0.273 OA
BRANCH   9  12
HETATM   12  C   UNL     1       6.001  -3.208   4.045  1.00  0.00     0.118 C 
HETATM   13  C   UNL     1       5.328  -2.416   5.151  1.00  0.00     0.026 C 
ENDBRANCH   9  12
ENDBRANCH   7   8
ENDBRANCH   6   7
ENDBRANCH   1   6
BRANCH   2  14
HETATM   14  C   UNL     1       5.794   3.433   2.648  1.00  0.00     0.137 C 
BRANCH  14  15
HETATM   15  C   UNL     1       6.651   4.595   2.134  1.00  0.00     0.059 C 
BRANCH  15  16
HETATM   16  C   UNL     1       7.357   4.303   0.834  1.00  0.00    -0.057 A 
HETATM   17  C   UNL     1       6.700   4.479  -0.390  1.00  0.00     0.007 A 
HETATM   18  C   UNL     1       7.361   4.214  -1.591  1.00  0.00     0.001 A 
HETATM   19  C   UNL     1       8.680   3.766  -1.579  1.00  0.00     0.000 A 
HETATM   20  C   UNL     1       9.340   3.579  -0.366  1.00  0.00     0.001 A 
HETATM   21  C   UNL     1       8.682   3.846   0.835  1.00  0.00     0.007 A 
ENDBRANCH  15  16
ENDBRANCH  14  15
ENDBRANCH   2  14
BRANCH   3  22
HETATM   22  C   UNL     1       7.793   3.152   5.027  1.00  0.00     0.045 A 
HETATM   23  C   UNL     1       9.115   3.609   5.139  1.00  0.00     0.082 A 
HETATM   24  C   UNL     1       9.448   4.630   6.034  1.00  0.00     0.038 A 
HETATM   25  C   UNL     1       8.468   5.175   6.860  1.00  0.00     0.003 A 
HETATM   26  C   UNL     1       7.158   4.704   6.789  1.00  0.00     0.001 A 
HETATM   27  C   UNL     1       6.823   3.695   5.882  1.00  0.00     0.018 A 
BRANCH  23  28
HETATM   28  O   UNL     1      10.091   3.126   4.304  1.00  0.00    -0.355 OA
HETATM   29  C   UNL     1      10.907   2.180   4.998  1.00  0.00     0.210 C 
ENDBRANCH  23  28
ENDBRANCH   3  22
TORSDOF 9
