REMARK  3 active torsions:
REMARK  status: ('A' for Active; 'I' for Inactive)
REMARK    1  A    between atoms: C_3  and  N_4 
REMARK       I    between atoms: N_4  and  C_5 
REMARK    2  A    between atoms: C_5  and  C_6 
REMARK    3  A    between atoms: C_7  and  C_8 
ROOT
HETATM    1  C   UNL     1       4.635   3.693  -0.294  1.00  0.00     0.063 A 
HETATM    2  C   UNL     1       5.162   5.090  -0.600  1.00  0.00     0.216 A 
HETATM    3  N   UNL     1       6.497   5.292  -0.048  1.00  0.00    -0.091 N 
HETATM    4  C   UNL     1       7.152   4.386   0.738  1.00  0.00     0.735 A 
HETATM    5  N   UNL     1       6.573   3.197   0.992  1.00  0.00    -0.191 N 
HETATM    6  N   UNL     1       7.198   6.435  -0.117  1.00  0.00     0.012 NA
HETATM    7  N   UNL     1       8.307   6.188   0.574  1.00  0.00     0.033 NA
HETATM    8  N   UNL     1       8.289   4.917   1.114  1.00  0.00     0.030 NA
HETATM    9  C   UNL     1       5.339   2.821   0.470  1.00  0.00     0.037 A 
HETATM   10  C   UNL     1       4.874   1.430   0.827  1.00  0.00     0.070 C 
HETATM   11  H   UNL     1       7.075   2.511   1.552  1.00  0.00     0.184 HD
ENDROOT
BRANCH   1  12
HETATM   12  C   UNL     1       3.380   3.262  -0.974  1.00  0.00     0.256 C 
HETATM   13  N   UNL     1       2.318   4.112  -0.761  1.00  0.00    -0.323 N 
HETATM   14  H   UNL     1       2.480   4.925  -0.187  1.00  0.00     0.169 HD
HETATM   15  O   UNL     1       3.394   2.231  -1.636  1.00  0.00    -0.267 OA
BRANCH  13  16
HETATM   16  C   UNL     1       1.011   4.013  -1.303  1.00  0.00     0.041 A 
HETATM   17  C   UNL     1       0.066   5.015  -0.984  1.00  0.00    -0.035 A 
HETATM   18  C   UNL     1       0.395   6.185  -0.096  1.00  0.00     0.050 C 
HETATM   19  C   UNL     1      -1.233   4.936  -1.519  1.00  0.00     0.009 A 
HETATM   20  C   UNL     1      -1.600   3.885  -2.356  1.00  0.00     0.001 A 
HETATM   21  C   UNL     1      -0.672   2.901  -2.669  1.00  0.00     0.002 A 
HETATM   22  C   UNL     1       0.623   2.965  -2.146  1.00  0.00     0.030 A 
ENDBRANCH  13  16
ENDBRANCH   1  12
BRANCH   2  23
HETATM   23  C   UNL     1       5.118   5.435  -2.077  1.00  0.00     0.064 A 
HETATM   24  N   UNL     1       4.149   6.316  -2.449  1.00  0.00    -0.263 NA
HETATM   25  C   UNL     1       4.037   6.603  -3.765  1.00  0.00     0.117 A 
HETATM   26  C   UNL     1       4.843   6.051  -4.743  1.00  0.00     0.019 A 
HETATM   27  C   UNL     1       5.823   5.147  -4.353  1.00  0.00     0.003 A 
HETATM   28  C   UNL     1       5.964   4.827  -3.006  1.00  0.00     0.030 A 
ENDBRANCH   2  23
TORSDOF 3
