REMARK  3 active torsions:
REMARK  status: ('A' for Active; 'I' for Inactive)
REMARK    1  A    between atoms: C_5  and  N_6 
REMARK       I    between atoms: N_6  and  C_7 
REMARK    2  A    between atoms: C_7  and  C_8 
REMARK    3  A    between atoms: C_13  and  O_14 
ROOT
HETATM    1  C   UNL     1      -7.921   7.801  -0.656  1.00  0.00     0.001 A 
HETATM    2  C   UNL     1      -6.695   8.395  -0.342  1.00  0.00     0.013 A 
HETATM    3  C   UNL     1      -5.581   7.582  -0.224  1.00  0.00    -0.017 A 
HETATM    4  C   UNL     1      -5.687   6.185  -0.412  1.00  0.00    -0.020 A 
HETATM    5  C   UNL     1      -4.325   5.530  -0.251  1.00  0.00     0.153 A 
HETATM    6  C   UNL     1      -3.436   6.724   0.052  1.00  0.00    -0.020 A 
HETATM    7  C   UNL     1      -4.200   7.913   0.058  1.00  0.00    -0.017 A 
HETATM    8  C   UNL     1      -2.068   6.742   0.280  1.00  0.00     0.010 A 
HETATM    9  C   UNL     1      -1.459   7.975   0.519  1.00  0.00     0.001 A 
HETATM   10  C   UNL     1      -2.214   9.160   0.525  1.00  0.00     0.001 A 
HETATM   11  C   UNL     1      -3.593   9.135   0.293  1.00  0.00     0.013 A 
HETATM   12  C   UNL     1      -6.899   5.592  -0.737  1.00  0.00     0.010 A 
HETATM   13  C   UNL     1      -8.022   6.413  -0.853  1.00  0.00     0.001 A 
ENDROOT
BRANCH   5  14
HETATM   14  N   UNL     1      -4.323   4.604   0.862  1.00  0.00    -0.346 N 
HETATM   15  C   UNL     1      -4.394   3.250   0.683  1.00  0.00     0.249 C 
HETATM   16  O   UNL     1      -4.537   2.722  -0.417  1.00  0.00    -0.271 OA
HETATM   17  H   UNL     1      -4.410   5.021   1.788  1.00  0.00     0.163 HD
BRANCH  15  18
HETATM   18  C   UNL     1      -4.466   2.397   1.961  1.00  0.00     0.279 C 
HETATM   19  N   UNL     1      -5.890   2.358   2.500  1.00  0.00    -0.060 N 
HETATM   20  H   UNL     1      -6.405   3.143   2.070  1.00  0.00     0.278 HD
HETATM   21  H   UNL     1      -6.379   1.496   2.229  1.00  0.00     0.278 HD
HETATM   22  C   UNL     1      -5.816   2.592   3.977  1.00  0.00     0.264 C 
HETATM   23  C   UNL     1      -4.598   3.506   4.096  1.00  0.00     0.146 C 
HETATM   24  C   UNL     1      -3.607   2.860   3.141  1.00  0.00     0.076 C 
BRANCH  23  25
HETATM   25  O   UNL     1      -4.918   4.801   3.584  1.00  0.00    -0.394 OA
HETATM   26  H   UNL     1      -4.984   5.422   4.340  1.00  0.00     0.210 HD
ENDBRANCH  23  25
ENDBRANCH  15  18
ENDBRANCH   5  14
TORSDOF 3
