REMARK  6 active torsions:
REMARK  status: ('A' for Active; 'I' for Inactive)
REMARK    1  A    between atoms: C_2  and  O_3 
REMARK    2  A    between atoms: O_3  and  C_4 
REMARK    3  A    between atoms: C_5  and  O_6 
REMARK    4  A    between atoms: C_10  and  C_11 
REMARK    5  A    between atoms: C_20  and  C_21 
REMARK       I    between atoms: C_21  and  N_22 
REMARK    6  A    between atoms: N_22  and  C_23 
ROOT
HETATM    1  C   UNL     1       6.582  -2.560  -2.206  1.00  0.00     0.202 A 
HETATM    2  N   UNL     1       6.040  -3.866  -1.812  1.00  0.00    -0.084 N 
HETATM    3  C   UNL     1       6.200  -5.012  -2.537  1.00  0.00     0.725 A 
HETATM    4  N   UNL     1       5.663  -6.015  -1.892  1.00  0.00    -0.054 NA
HETATM    5  C   UNL     1       5.227  -5.431  -0.731  1.00  0.00     0.275 A 
HETATM    6  N   UNL     1       5.472  -4.120  -0.613  1.00  0.00    -0.149 NA
HETATM    7  N   UNL     1       6.868  -4.963  -3.703  1.00  0.00    -0.192 N 
HETATM    8  C   UNL     1       7.465  -3.810  -4.200  1.00  0.00     0.037 A 
HETATM    9  C   UNL     1       8.223  -3.979  -5.495  1.00  0.00     0.070 C 
HETATM   10  C   UNL     1       7.362  -2.641  -3.515  1.00  0.00     0.062 A 
HETATM   11  H   UNL     1       6.991  -5.825  -4.229  1.00  0.00     0.184 HD
ENDROOT
BRANCH   1  12
HETATM   12  C   UNL     1       5.473  -1.509  -2.196  1.00  0.00    -0.024 A 
HETATM   13  C   UNL     1       5.274  -0.731  -1.040  1.00  0.00     0.031 A 
HETATM   14  C   UNL     1       4.270   0.238  -0.997  1.00  0.00     0.047 A 
HETATM   15  C   UNL     1       3.457   0.437  -2.110  1.00  0.00     0.116 A 
HETATM   16 BR   UNL     1       4.056   1.253   0.588  1.00  0.00    -0.048 Br
HETATM   17  C   UNL     1       3.630  -0.329  -3.270  1.00  0.00     0.103 A 
HETATM   18  C   UNL     1       4.625  -1.310  -3.304  1.00  0.00     0.049 A 
BRANCH  15  19
HETATM   19  O   UNL     1       2.470   1.391  -2.090  1.00  0.00    -0.357 OA
HETATM   20  H   UNL     1       2.040   1.336  -2.966  1.00  0.00     0.218 HD
ENDBRANCH  15  19
BRANCH  17  21
HETATM   21  O   UNL     1       2.765  -0.029  -4.292  1.00  0.00    -0.349 OA
BRANCH  21  22
HETATM   22  C   UNL     1       3.022  -0.639  -5.558  1.00  0.00     0.171 C 
HETATM   23  C   UNL     1       2.039  -0.062  -6.560  1.00  0.00     0.034 C 
ENDBRANCH  21  22
ENDBRANCH  17  21
ENDBRANCH   1  12
BRANCH  10  24
HETATM   24  C   UNL     1       7.910  -1.375  -4.095  1.00  0.00     0.256 C 
HETATM   25  N   UNL     1       8.515  -0.542  -3.178  1.00  0.00    -0.323 N 
HETATM   26  H   UNL     1       8.524  -0.810  -2.206  1.00  0.00     0.169 HD
HETATM   27  O   UNL     1       7.748  -1.148  -5.289  1.00  0.00    -0.267 OA
BRANCH  25  28
HETATM   28  C   UNL     1       9.117   0.709  -3.441  1.00  0.00     0.035 A 
HETATM   29  C   UNL     1       9.373   1.200  -4.723  1.00  0.00     0.029 A 
HETATM   30  C   UNL     1       9.989   2.444  -4.896  1.00  0.00     0.002 A 
HETATM   31  C   UNL     1      10.346   3.211  -3.790  1.00  0.00     0.000 A 
HETATM   32  C   UNL     1      10.094   2.732  -2.508  1.00  0.00     0.002 A 
HETATM   33  C   UNL     1       9.490   1.484  -2.334  1.00  0.00     0.029 A 
ENDBRANCH  25  28
ENDBRANCH  10  24
TORSDOF 6
