REMARK  7 active torsions:
REMARK  status: ('A' for Active; 'I' for Inactive)
REMARK    1  A    between atoms: C_3  and  C_4 
REMARK    2  A    between atoms: C_4  and  N_5 
REMARK    3  A    between atoms: C_4  and  C_9 
REMARK       I    between atoms: N_5  and  C_6 
REMARK       I    between atoms: C_6  and  N_7 
REMARK    4  A    between atoms: C_9  and  C_10 
REMARK       I    between atoms: C_10  and  N_11 
REMARK    5  A    between atoms: N_11  and  C_12 
REMARK    6  A    between atoms: C_12  and  C_13 
REMARK    7  A    between atoms: C_13  and  N_14 
ROOT
HETATM    1  C   UNL     1       2.991   3.535  -0.271  1.00  0.00     0.132 C 
ENDROOT
BRANCH   1   2
HETATM    2  C   UNL     1       4.395   3.456   0.357  1.00  0.00     0.128 C 
BRANCH   2   3
HETATM    3  C   UNL     1       5.222   2.344  -0.287  1.00  0.00    -0.029 A 
HETATM    4  C   UNL     1       6.532   2.568  -0.767  1.00  0.00    -0.054 A 
HETATM    5  C   UNL     1       7.202   3.914  -0.685  1.00  0.00     0.049 C 
HETATM    6  C   UNL     1       7.243   1.505  -1.351  1.00  0.00     0.007 A 
HETATM    7  C   UNL     1       6.684   0.233  -1.449  1.00  0.00     0.001 A 
HETATM    8  C   UNL     1       5.406  -0.001  -0.959  1.00  0.00     0.001 A 
HETATM    9  C   UNL     1       4.684   1.042  -0.379  1.00  0.00     0.010 A 
ENDBRANCH   2   3
BRANCH   2  10
HETATM   10  N   UNL     1       4.338   3.214   1.797  1.00  0.00    -0.334 N 
HETATM   11  C   UNL     1       4.036   4.167   2.716  1.00  0.00     0.314 C 
HETATM   12  N   UNL     1       4.102   3.706   3.988  1.00  0.00    -0.352 N 
HETATM   13  O   UNL     1       3.682   5.312   2.466  1.00  0.00    -0.248 OA
HETATM   14  H   UNL     1       4.753   2.965   4.211  1.00  0.00     0.160 HD
HETATM   15  H   UNL     1       3.983   4.398   4.716  1.00  0.00     0.160 HD
HETATM   16  H   UNL     1       4.685   2.326   2.133  1.00  0.00     0.165 HD
ENDBRANCH   2  10
ENDBRANCH   1   2
BRANCH   1  17
HETATM   17  C   UNL     1       2.410   4.923  -0.144  1.00  0.00     0.219 C 
HETATM   18  N   UNL     1       1.156   4.987   0.414  1.00  0.00    -0.359 N 
HETATM   19  H   UNL     1       0.694   4.118   0.665  1.00  0.00     0.162 HD
HETATM   20  O   UNL     1       3.003   5.939  -0.503  1.00  0.00    -0.274 OA
BRANCH  18  21
HETATM   21  C   UNL     1       0.409   6.227   0.563  1.00  0.00     0.150 C 
BRANCH  21  22
HETATM   22  C   UNL     1       1.000   7.226   1.583  1.00  0.00     0.254 C 
BRANCH  22  23
HETATM   23  N   UNL     1       2.282   7.868   1.119  1.00  0.00    -0.065 N 
HETATM   24  H   UNL     1       2.863   7.098   0.725  1.00  0.00     0.280 HD
HETATM   25  C   UNL     1       2.115   8.839  -0.032  1.00  0.00     0.274 C 
HETATM   26  C   UNL     1       3.381   9.566  -0.345  1.00  0.00    -0.019 A 
HETATM   27  C   UNL     1       4.466   9.558   0.510  1.00  0.00    -0.008 A 
HETATM   28  C   UNL     1       3.652  10.352  -1.508  1.00  0.00     0.017 A 
HETATM   29  S   UNL     1       5.777  10.469  -0.066  1.00  0.00    -0.106 SA
HETATM   30  C   UNL     1       4.517   8.807   1.802  1.00  0.00     0.074 C 
HETATM   31  C   UNL     1       4.918  10.899  -1.483  1.00  0.00     0.051 A 
HETATM   32  C   UNL     1       3.091   8.462   2.260  1.00  0.00     0.240 C 
ENDBRANCH  22  23
ENDBRANCH  21  22
ENDBRANCH  18  21
ENDBRANCH   1  17
TORSDOF 7
