REMARK  2 active torsions:
REMARK  status: ('A' for Active; 'I' for Inactive)
REMARK    1  A    between atoms: C_2  and  C_3 
REMARK    2  A    between atoms: C_4  and  N_5 
ROOT
HETATM    1  N   UNL     1       2.111   2.660  -0.524  1.00  0.00    -0.321 N 
HETATM    2  C   UNL     1       1.229   3.696  -0.978  1.00  0.00     0.141 C 
HETATM    3  N   UNL     1       0.590   3.618  -2.111  1.00  0.00    -0.380 N 
HETATM    4  H   UNL     1       0.698   2.787  -2.677  1.00  0.00     0.158 HD
HETATM    5  H   UNL     1      -0.007   4.378  -2.404  1.00  0.00     0.158 HD
HETATM    6  S   UNL     1       1.164   5.059   0.079  1.00  0.00    -0.086 SA
HETATM    7  C   UNL     1       2.743   4.544   0.829  1.00  0.00     0.093 C 
HETATM    8  C   UNL     1       2.669   3.003   0.799  1.00  0.00     0.121 C 
HETATM    9  C   UNL     1       3.092   4.894   2.255  1.00  0.00     0.158 C 
HETATM   10  S   UNL     1       4.349   3.654   2.635  1.00  0.00     0.147 S 
HETATM   11  O   UNL     1       5.654   4.257   2.470  1.00  0.00    -0.228 OA
HETATM   12  O   UNL     1       3.953   2.965   3.845  1.00  0.00    -0.228 OA
HETATM   13  C   UNL     1       4.047   2.561   1.232  1.00  0.00     0.167 C 
ENDROOT
BRANCH   1  14
HETATM   14  C   UNL     1       2.838   1.806  -1.364  1.00  0.00     0.043 A 
HETATM   15  C   UNL     1       2.742   0.400  -1.327  1.00  0.00    -0.028 A 
HETATM   16  C   UNL     1       3.529  -0.338  -2.247  1.00  0.00     0.010 A 
HETATM   17  C   UNL     1       4.370   0.278  -3.172  1.00  0.00     0.001 A 
HETATM   18  C   UNL     1       4.446   1.659  -3.213  1.00  0.00     0.002 A 
HETATM   19  C   UNL     1       3.686   2.411  -2.321  1.00  0.00     0.030 A 
BRANCH  15  20
HETATM   20  C   UNL     1       1.834  -0.448  -0.434  1.00  0.00     0.013 C 
HETATM   21  C   UNL     1       0.615   0.218   0.204  1.00  0.00     0.015 C 
HETATM   22  C   UNL     1       2.647  -1.182   0.641  1.00  0.00     0.015 C 
ENDBRANCH  15  20
ENDBRANCH   1  14
TORSDOF 2
