REMARK  8 active torsions:
REMARK  status: ('A' for Active; 'I' for Inactive)
REMARK    1  A    between atoms: C_4  and  C_5 
REMARK    2  A    between atoms: C_5  and  C_6 
REMARK    3  A    between atoms: C_6  and  C_7 
REMARK    4  A    between atoms: C_7  and  N_8 
REMARK       I    between atoms: N_8  and  C_9 
REMARK    5  A    between atoms: C_9  and  C_10 
REMARK    6  A    between atoms: C_11  and  N_12 
REMARK    7  A    between atoms: N_13  and  N_14 
REMARK    8  A    between atoms: C_15  and  C_16 
ROOT
HETATM    1  C   UNL     1       6.515  -0.205  -0.797  1.00  0.00     0.104 C 
HETATM    2  C   UNL     1       7.220  -0.506  -1.957  1.00  0.00     0.123 C 
HETATM    3  N   UNL     1       8.004   0.617  -2.225  1.00  0.00    -0.202 N 
HETATM    4  C   UNL     1       7.300   1.710  -1.756  1.00  0.00     0.183 A 
HETATM    5  C   UNL     1       6.419   1.220  -0.793  1.00  0.00     0.124 A 
HETATM    6  N   UNL     1       5.697   2.068  -0.017  1.00  0.00    -0.242 NA
HETATM    7  C   UNL     1       5.851   3.371  -0.309  1.00  0.00     0.086 A 
HETATM    8  C   UNL     1       6.739   3.837  -1.315  1.00  0.00     0.088 A 
HETATM    9  N   UNL     1       7.513   3.015  -2.041  1.00  0.00    -0.225 NA
HETATM   10  C   UNL     1       5.100   4.299   0.402  1.00  0.00     0.034 A 
HETATM   11  C   UNL     1       5.185   5.667   0.139  1.00  0.00     0.002 A 
HETATM   12  C   UNL     1       6.044   6.120  -0.853  1.00  0.00     0.002 A 
HETATM   13  C   UNL     1       6.815   5.201  -1.565  1.00  0.00     0.034 A 
ENDROOT
BRANCH   1  14
HETATM   14  C   UNL     1       6.076  -1.154   0.222  1.00  0.00     0.257 C 
HETATM   15  N   UNL     1       6.536  -2.448   0.002  1.00  0.00    -0.357 N 
HETATM   16  H   UNL     1       7.022  -2.546  -0.883  1.00  0.00     0.162 HD
HETATM   17  O   UNL     1       5.500  -0.823   1.251  1.00  0.00    -0.267 OA
BRANCH  15  18
HETATM   18  C   UNL     1       7.202  -3.179   1.060  1.00  0.00     0.123 C 
BRANCH  18  19
HETATM   19  C   UNL     1       6.369  -3.617   2.256  1.00  0.00     0.024 C 
BRANCH  19  20
HETATM   20  C   UNL     1       5.168  -4.486   1.873  1.00  0.00     0.040 C 
BRANCH  20  21
HETATM   21  C   UNL     1       4.757  -5.489   2.931  1.00  0.00    -0.058 A 
HETATM   22  C   UNL     1       4.954  -5.268   4.302  1.00  0.00     0.007 A 
HETATM   23  C   UNL     1       4.590  -6.235   5.241  1.00  0.00     0.001 A 
HETATM   24  C   UNL     1       3.996  -7.424   4.826  1.00  0.00     0.000 A 
HETATM   25  C   UNL     1       3.758  -7.643   3.471  1.00  0.00     0.001 A 
HETATM   26  C   UNL     1       4.132  -6.680   2.531  1.00  0.00     0.007 A 
ENDBRANCH  20  21
ENDBRANCH  19  20
ENDBRANCH  18  19
ENDBRANCH  15  18
ENDBRANCH   1  14
BRANCH   2  27
HETATM   27  N   UNL     1       7.369  -1.678  -2.655  1.00  0.00    -0.286 NA
HETATM   28  H   UNL     1       6.509  -2.213  -2.816  1.00  0.00     0.125 HD
HETATM   29  H   UNL     1       7.850  -1.592  -3.559  1.00  0.00     0.125 HD
ENDBRANCH   2  27
BRANCH   3  30
HETATM   30  N   UNL     1       9.288   0.637  -2.722  1.00  0.00    -0.176 NA
HETATM   31  C   UNL     1       9.993  -0.351  -2.268  1.00  0.00     0.153 C 
BRANCH  31  32
HETATM   32  C   UNL     1      11.400  -0.497  -2.556  1.00  0.00     0.011 A 
HETATM   33  C   UNL     1      12.178  -1.679  -2.336  1.00  0.00     0.004 A 
HETATM   34  C   UNL     1      13.506  -1.361  -2.614  1.00  0.00     0.043 A 
HETATM   35  C   UNL     1      11.874  -2.990  -1.907  1.00  0.00     0.014 A 
HETATM   36  C   UNL     1      14.550  -2.282  -2.462  1.00  0.00     0.030 A 
HETATM   37  N   UNL     1      13.529  -0.046  -3.022  1.00  0.00    -0.364 N 
HETATM   38  C   UNL     1      14.222  -3.573  -2.033  1.00  0.00     0.002 A 
HETATM   39  C   UNL     1      12.902  -3.927  -1.764  1.00  0.00     0.001 A 
HETATM   40  H   UNL     1      14.366   0.461  -3.274  1.00  0.00     0.165 HD
HETATM   41  C   UNL     1      12.263   0.479  -3.008  1.00  0.00     0.102 A 
ENDBRANCH  31  32
ENDBRANCH   3  30
TORSDOF 8
