REMARK  7 active torsions:
REMARK  status: ('A' for Active; 'I' for Inactive)
REMARK    1  A    between atoms: C_4  and  C_5 
REMARK    2  A    between atoms: C_5  and  N_6 
REMARK       I    between atoms: N_6  and  C_7 
REMARK    3  A    between atoms: N_6  and  C_22 
REMARK    4  A    between atoms: C_7  and  C_8 
REMARK    5  A    between atoms: C_13  and  C_14 
REMARK    6  A    between atoms: C_15  and  O_16 
REMARK    7  A    between atoms: C_22  and  C_23 
ROOT
HETATM    1  N   UNL     1       3.399  -1.329  -0.128  1.00  0.00    -0.343 N 
HETATM    2  C   UNL     1       2.678  -2.475  -0.442  1.00  0.00     0.235 C 
HETATM    3  O   UNL     1       1.496  -2.411  -0.809  1.00  0.00    -0.272 OA
ENDROOT
BRANCH   2   4
HETATM    4  C   UNL     1       3.332  -3.832  -0.357  1.00  0.00     0.195 C 
HETATM    5  C   UNL     1       2.960  -4.584   0.886  1.00  0.00     0.247 C 
HETATM    6  O   UNL     1       2.772  -4.141   2.007  1.00  0.00    -0.271 OA
HETATM    7  N   UNL     1       2.879  -5.923   0.538  1.00  0.00    -0.290 N 
HETATM    8  N   UNL     1       2.946  -6.137  -0.842  1.00  0.00    -0.228 NA
HETATM    9  H   UNL     1       2.609  -6.627   1.219  1.00  0.00     0.183 HD
HETATM   10  C   UNL     1       2.761  -4.782  -1.425  1.00  0.00     0.134 C 
HETATM   11  H   UNL     1       2.170  -6.731  -1.150  1.00  0.00     0.147 HD
BRANCH  10  12
HETATM   12  C   UNL     1       3.425  -4.587  -2.772  1.00  0.00    -0.004 A 
HETATM   13  C   UNL     1       2.957  -3.652  -3.709  1.00  0.00     0.073 A 
HETATM   14  C   UNL     1       3.606  -3.477  -4.933  1.00  0.00     0.037 A 
HETATM   15  C   UNL     1       4.742  -4.221  -5.243  1.00  0.00     0.003 A 
HETATM   16  C   UNL     1       5.232  -5.143  -4.326  1.00  0.00     0.001 A 
HETATM   17  C   UNL     1       4.583  -5.320  -3.102  1.00  0.00     0.012 A 
BRANCH  13  18
HETATM   18  O   UNL     1       1.862  -2.853  -3.526  1.00  0.00    -0.360 OA
HETATM   19  H   UNL     1       1.541  -2.844  -2.604  1.00  0.00     0.217 HD
ENDBRANCH  13  18
ENDBRANCH  10  12
ENDBRANCH   2   4
BRANCH   1  20
HETATM   20  C   UNL     1       2.690  -0.047  -0.216  1.00  0.00     0.164 C 
BRANCH  20  21
HETATM   21  C   UNL     1       2.490   0.614   1.126  1.00  0.00    -0.040 A 
HETATM   22  C   UNL     1       2.871   1.949   1.326  1.00  0.00     0.009 A 
HETATM   23  C   UNL     1       2.630   2.580   2.548  1.00  0.00     0.001 A 
HETATM   24  C   UNL     1       2.005   1.885   3.582  1.00  0.00     0.000 A 
HETATM   25  C   UNL     1       1.616   0.561   3.395  1.00  0.00     0.001 A 
HETATM   26  C   UNL     1       1.848  -0.068   2.171  1.00  0.00     0.009 A 
ENDBRANCH  20  21
ENDBRANCH   1  20
BRANCH   1  27
HETATM   27  C   UNL     1       4.865  -1.248  -0.155  1.00  0.00     0.164 C 
BRANCH  27  28
HETATM   28  C   UNL     1       5.617  -1.989   0.922  1.00  0.00    -0.040 A 
HETATM   29  C   UNL     1       6.814  -2.652   0.595  1.00  0.00     0.009 A 
HETATM   30  C   UNL     1       7.548  -3.329   1.570  1.00  0.00     0.001 A 
HETATM   31  C   UNL     1       7.104  -3.341   2.889  1.00  0.00     0.000 A 
HETATM   32  C   UNL     1       5.934  -2.668   3.233  1.00  0.00     0.001 A 
HETATM   33  C   UNL     1       5.201  -1.988   2.258  1.00  0.00     0.009 A 
ENDBRANCH  27  28
ENDBRANCH   1  27
TORSDOF 7
