REMARK  9 active torsions:
REMARK  status: ('A' for Active; 'I' for Inactive)
REMARK    1  A    between atoms: C_5  and  N_6 
REMARK       I    between atoms: N_6  and  C_7 
REMARK    2  A    between atoms: C_7  and  C_8 
REMARK    3  A    between atoms: C_8  and  S_9 
REMARK    4  A    between atoms: S_9  and  C_10 
REMARK    5  A    between atoms: C_11  and  C_12 
REMARK       I    between atoms: C_12  and  N_13 
REMARK    6  A    between atoms: N_13  and  C_14 
REMARK    7  A    between atoms: C_14  and  C_15 
REMARK    8  A    between atoms: C_15  and  N_16 
REMARK    9  A    between atoms: C_15  and  C_22 
ROOT
HETATM    1  C   UNL     1       5.537  -5.256  -0.549  1.00  0.00     0.016 A 
HETATM    2  C   UNL     1       5.552  -5.369   0.850  1.00  0.00     0.048 A 
HETATM    3  C   UNL     1       4.465  -5.931   1.541  1.00  0.00     0.018 A 
HETATM    4  C   UNL     1       3.350  -6.383   0.841  1.00  0.00     0.001 A 
HETATM    5  C   UNL     1       3.302  -6.239  -0.542  1.00  0.00     0.001 A 
HETATM    6  C   UNL     1       4.376  -5.661  -1.224  1.00  0.00     0.019 A 
ENDROOT
BRANCH   2   7
HETATM    7  C   UNL     1       6.652  -4.864   1.696  1.00  0.00     0.253 C 
HETATM    8  N   UNL     1       7.787  -5.655   1.756  1.00  0.00    -0.354 N 
HETATM    9  H   UNL     1       7.721  -6.544   1.270  1.00  0.00     0.162 HD
HETATM   10  O   UNL     1       6.496  -3.860   2.378  1.00  0.00    -0.268 OA
BRANCH   8  11
HETATM   11  C   UNL     1       8.629  -5.603   2.953  1.00  0.00     0.161 C 
BRANCH  11  12
HETATM   12  C   UNL     1      10.154  -5.453   2.691  1.00  0.00     0.245 C 
BRANCH  12  13
HETATM   13  N   UNL     1      10.653  -4.077   2.228  1.00  0.00    -0.061 N 
HETATM   14  H   UNL     1      11.304  -3.785   2.969  1.00  0.00     0.280 HD
HETATM   15  C   UNL     1       9.684  -2.925   2.067  1.00  0.00     0.236 C 
HETATM   16  C   UNL     1       9.593  -2.667   0.571  1.00  0.00     0.029 C 
HETATM   17  C   UNL     1      10.393  -3.772  -0.094  1.00  0.00     0.029 C 
HETATM   18  C   UNL     1      11.437  -4.114   0.941  1.00  0.00     0.236 C 
ENDBRANCH  12  13
BRANCH  12  19
HETATM   19  C   UNL     1      10.929  -5.899   3.916  1.00  0.00     0.015 A 
HETATM   20  S   UNL     1      11.157  -4.825   5.239  1.00  0.00    -0.104 SA
HETATM   21  C   UNL     1      12.020  -5.998   6.129  1.00  0.00     0.050 A 
HETATM   22  C   UNL     1      12.133  -7.186   5.444  1.00  0.00     0.008 A 
HETATM   23  C   UNL     1      11.508  -7.130   4.164  1.00  0.00     0.017 A 
ENDBRANCH  12  19
ENDBRANCH  11  12
ENDBRANCH   8  11
ENDBRANCH   2   7
BRANCH   1  24
HETATM   24  S   UNL     1       6.879  -4.527  -1.480  1.00  0.00    -0.120 SA
BRANCH  24  25
HETATM   25  C   UNL     1       7.463  -5.951  -2.472  1.00  0.00     0.182 C 
BRANCH  25  26
HETATM   26  C   UNL     1       6.463  -6.339  -3.548  1.00  0.00     0.231 C 
HETATM   27  N   UNL     1       6.051  -7.660  -3.442  1.00  0.00    -0.327 N 
HETATM   28  H   UNL     1       6.584  -8.275  -2.843  1.00  0.00     0.169 HD
HETATM   29  O   UNL     1       6.070  -5.525  -4.377  1.00  0.00    -0.272 OA
BRANCH  27  30
HETATM   30  C   UNL     1       4.933  -8.253  -4.063  1.00  0.00     0.034 A 
HETATM   31  C   UNL     1       4.001  -7.551  -4.827  1.00  0.00     0.030 A 
HETATM   32  C   UNL     1       2.872  -8.199  -5.339  1.00  0.00     0.009 A 
HETATM   33  C   UNL     1       2.657  -9.558  -5.094  1.00  0.00    -0.062 A 
HETATM   34  C   UNL     1       1.450 -10.245  -5.660  1.00  0.00     0.048 C 
HETATM   35  C   UNL     1       3.605 -10.270  -4.355  1.00  0.00     0.009 A 
HETATM   36  C   UNL     1       4.729  -9.621  -3.838  1.00  0.00     0.030 A 
ENDBRANCH  27  30
ENDBRANCH  25  26
ENDBRANCH  24  25
ENDBRANCH   1  24
TORSDOF 9
