REMARK  7 active torsions:
REMARK  status: ('A' for Active; 'I' for Inactive)
REMARK    1  A    between atoms: C_4  and  C_5 
REMARK    2  A    between atoms: C_5  and  C_6 
REMARK    3  A    between atoms: C_8  and  C_9 
REMARK    4  A    between atoms: C_9  and  C_10 
REMARK       I    between atoms: C_10  and  N_11 
REMARK    5  A    between atoms: N_11  and  N_12 
REMARK       I    between atoms: N_12  and  C_13 
REMARK       I    between atoms: C_13  and  N_14 
REMARK    6  A    between atoms: N_14  and  C_15 
REMARK    7  A    between atoms: C_17  and  C_18 
ROOT
HETATM    1  C   UNL     1       6.869  -4.289  -0.835  1.00  0.00     0.238 C 
HETATM    2  N   UNL     1       8.133  -4.464  -1.353  1.00  0.00    -0.266 N 
HETATM    3  O   UNL     1       6.191  -5.218  -0.400  1.00  0.00    -0.272 OA
HETATM    4  H   UNL     1       8.684  -3.725  -1.792  1.00  0.00     0.190 HD
ENDROOT
BRANCH   1   5
HETATM    5  C   UNL     1       6.421  -2.850  -0.851  1.00  0.00     0.139 C 
BRANCH   5   6
HETATM    6  C   UNL     1       5.097  -2.655  -0.116  1.00  0.00     0.185 C 
HETATM    7  N   UNL     1       5.261  -2.953   1.305  1.00  0.00    -0.363 N 
HETATM    8  C   UNL     1       4.538  -2.242   2.235  1.00  0.00     0.125 C 
HETATM    9  H   UNL     1       5.366  -3.950   1.493  1.00  0.00     0.161 HD
HETATM   10  N   UNL     1       3.950  -1.105   2.001  1.00  0.00    -0.159 NA
HETATM   11  N   UNL     1       4.040  -0.595   0.741  1.00  0.00    -0.244 N 
HETATM   12  C   UNL     1       4.614  -1.220  -0.341  1.00  0.00     0.261 C 
HETATM   13  H   UNL     1       3.666   0.338   0.603  1.00  0.00     0.192 HD
HETATM   14  O   UNL     1       4.676  -0.660  -1.435  1.00  0.00    -0.269 OA
BRANCH   8  15
HETATM   15  C   UNL     1       4.418  -2.824   3.639  1.00  0.00     0.118 C 
BRANCH  15  16
HETATM   16  C   UNL     1       3.296  -3.828   3.746  1.00  0.00    -0.051 A 
HETATM   17  C   UNL     1       3.563  -5.195   3.889  1.00  0.00     0.007 A 
HETATM   18  C   UNL     1       2.515  -6.112   3.990  1.00  0.00     0.001 A 
HETATM   19  C   UNL     1       1.193  -5.672   3.947  1.00  0.00     0.000 A 
HETATM   20  C   UNL     1       0.917  -4.315   3.802  1.00  0.00     0.001 A 
HETATM   21  C   UNL     1       1.962  -3.397   3.701  1.00  0.00     0.007 A 
ENDBRANCH  15  16
ENDBRANCH   8  15
ENDBRANCH   5   6
ENDBRANCH   1   5
BRANCH   2  22
HETATM   22  N   UNL     1       8.683  -5.753  -1.386  1.00  0.00    -0.249 N 
HETATM   23  C   UNL     1       9.799  -5.931  -2.192  1.00  0.00     0.339 C 
HETATM   24  N   UNL     1      10.207  -7.246  -2.209  1.00  0.00    -0.308 N 
HETATM   25  O   UNL     1      10.329  -4.981  -2.760  1.00  0.00    -0.245 OA
HETATM   26  H   UNL     1       9.740  -7.855  -1.552  1.00  0.00     0.170 HD
HETATM   27  H   UNL     1       8.007  -6.506  -1.288  1.00  0.00     0.192 HD
BRANCH  24  28
HETATM   28  C   UNL     1      11.286  -7.801  -2.924  1.00  0.00     0.037 A 
HETATM   29  C   UNL     1      12.056  -7.091  -3.849  1.00  0.00     0.045 A 
HETATM   30  C   UNL     1      13.127  -7.706  -4.523  1.00  0.00     0.050 A 
HETATM   31  C   UNL     1      13.407  -9.056  -4.269  1.00  0.00     0.016 A 
HETATM   32  C   UNL     1      12.640  -9.773  -3.353  1.00  0.00     0.003 A 
HETATM   33  C   UNL     1      11.586  -9.148  -2.686  1.00  0.00     0.029 A 
BRANCH  30  34
HETATM   34  C   UNL     1      13.943  -6.940  -5.534  1.00  0.00     0.417 C 
HETATM   35  F   UNL     1      13.867  -5.588  -5.391  1.00  0.00    -0.166 F 
HETATM   36  F   UNL     1      15.271  -7.243  -5.475  1.00  0.00    -0.166 F 
HETATM   37  F   UNL     1      13.560  -7.205  -6.814  1.00  0.00    -0.166 F 
ENDBRANCH  30  34
ENDBRANCH  24  28
ENDBRANCH   2  22
TORSDOF 7
