REMARK  9 active torsions:
REMARK  status: ('A' for Active; 'I' for Inactive)
REMARK    1  A    between atoms: C_2  and  C_3 
REMARK    2  A    between atoms: C_6  and  N_7 
REMARK    3  A    between atoms: N_7  and  C_8 
REMARK    4  A    between atoms: C_12  and  C_13 
REMARK       I    between atoms: C_13  and  N_14 
REMARK    5  A    between atoms: N_14  and  C_15 
REMARK    6  A    between atoms: C_15  and  C_16 
REMARK    7  A    between atoms: C_16  and  C_17 
REMARK    8  A    between atoms: C_17  and  N_18 
REMARK    9  A    between atoms: N_22  and  C_23 
ROOT
HETATM    1  C   UNL     1       3.110   1.386  -6.227  1.00  0.00     0.129 A 
HETATM    2  N   UNL     1       3.505   1.880  -7.411  1.00  0.00    -0.231 NA
HETATM    3  C   UNL     1       3.990   1.071  -8.363  1.00  0.00     0.070 A 
HETATM    4  C   UNL     1       4.134  -0.320  -8.195  1.00  0.00     0.009 A 
HETATM    5  C   UNL     1       3.652  -0.837  -6.965  1.00  0.00     0.048 A 
HETATM    6  C   UNL     1       3.143   0.026  -5.986  1.00  0.00     0.068 A 
HETATM    7  C   UNL     1       4.392   1.663  -9.552  1.00  0.00     0.032 A 
HETATM    8  C   UNL     1       4.967   0.928 -10.587  1.00  0.00     0.002 A 
HETATM    9  C   UNL     1       5.169  -0.432 -10.425  1.00  0.00     0.001 A 
HETATM   10  C   UNL     1       4.770  -1.050  -9.240  1.00  0.00     0.015 A 
ENDROOT
BRANCH   5  11
HETATM   11  C   UNL     1       3.702  -2.267  -6.562  1.00  0.00     0.252 C 
HETATM   12  N   UNL     1       3.512  -3.234  -7.523  1.00  0.00    -0.357 N 
HETATM   13  H   UNL     1       3.104  -2.944  -8.409  1.00  0.00     0.162 HD
HETATM   14  O   UNL     1       3.892  -2.570  -5.384  1.00  0.00    -0.268 OA
BRANCH  12  15
HETATM   15  C   UNL     1       3.462  -4.646  -7.196  1.00  0.00     0.124 C 
BRANCH  15  16
HETATM   16  C   UNL     1       4.836  -5.322  -7.108  1.00  0.00     0.047 C 
BRANCH  16  17
HETATM   17  C   UNL     1       5.840  -4.781  -6.084  1.00  0.00     0.236 C 
BRANCH  17  18
HETATM   18  N   UNL     1       5.279  -4.626  -4.703  1.00  0.00    -0.068 N 
HETATM   19  H   UNL     1       4.459  -3.989  -4.793  1.00  0.00     0.280 HD
HETATM   20  C   UNL     1       4.837  -5.914  -4.024  1.00  0.00     0.254 C 
HETATM   21  C   UNL     1       4.182  -5.614  -2.657  1.00  0.00     0.150 C 
HETATM   22  N   UNL     1       5.023  -4.755  -1.802  1.00  0.00    -0.375 N 
HETATM   23  C   UNL     1       5.500  -3.515  -2.451  1.00  0.00     0.150 C 
HETATM   24  C   UNL     1       6.216  -3.835  -3.782  1.00  0.00     0.254 C 
BRANCH  22  25
HETATM   25  C   UNL     1       5.865  -5.320  -0.838  1.00  0.00     0.069 A 
HETATM   26  C   UNL     1       6.328  -6.650  -0.854  1.00  0.00     0.142 A 
HETATM   27  F   UNL     1       6.006  -7.469  -1.868  1.00  0.00    -0.204 F 
HETATM   28  C   UNL     1       7.164  -7.163   0.139  1.00  0.00     0.044 A 
HETATM   29  C   UNL     1       7.555  -6.355   1.201  1.00  0.00     0.003 A 
HETATM   30  C   UNL     1       7.102  -5.042   1.264  1.00  0.00     0.002 A 
HETATM   31  C   UNL     1       6.268  -4.537   0.260  1.00  0.00     0.032 A 
ENDBRANCH  22  25
ENDBRANCH  17  18
ENDBRANCH  16  17
ENDBRANCH  15  16
ENDBRANCH  12  15
ENDBRANCH   5  11
BRANCH   1  32
HETATM   32  N   UNL     1       2.708   2.231  -5.173  1.00  0.00    -0.341 N 
HETATM   33  H   UNL     1       1.804   1.957  -4.806  1.00  0.00     0.167 HD
BRANCH  32  34
HETATM   34  C   UNL     1       2.966   3.606  -4.983  1.00  0.00     0.033 A 
HETATM   35  C   UNL     1       4.013   4.281  -5.617  1.00  0.00     0.030 A 
HETATM   36  C   UNL     1       4.294   5.623  -5.331  1.00  0.00     0.010 A 
HETATM   37  C   UNL     1       3.551   6.322  -4.373  1.00  0.00    -0.055 A 
HETATM   38  C   UNL     1       2.522   5.643  -3.710  1.00  0.00     0.010 A 
HETATM   39  C   UNL     1       2.243   4.303  -4.004  1.00  0.00     0.030 A 
BRANCH  37  40
HETATM   40  C   UNL     1       3.838   7.777  -4.046  1.00  0.00     0.010 C 
HETATM   41  C   UNL     1       3.537   8.682  -5.243  1.00  0.00     0.015 C 
HETATM   42  C   UNL     1       5.274   7.980  -3.557  1.00  0.00     0.015 C 
ENDBRANCH  37  40
ENDBRANCH  32  34
ENDBRANCH   1  32
TORSDOF 9
