REMARK  5 active torsions:
REMARK  status: ('A' for Active; 'I' for Inactive)
REMARK    1  A    between atoms: C_2  and  C_3 
REMARK    2  A    between atoms: C_5  and  C_6 
REMARK    3  A    between atoms: C_6  and  C_7 
REMARK       I    between atoms: C_7  and  N_8 
REMARK    4  A    between atoms: N_8  and  C_9 
REMARK    5  A    between atoms: C_16  and  C_17 
REMARK       I    between atoms: C_17  and  N_18 
ROOT
HETATM    1  C   UNL     1       0.912   4.543  -2.425  1.00  0.00     0.035 A 
HETATM    2  C   UNL     1       1.769   4.524  -3.538  1.00  0.00     0.046 A 
HETATM    3  C   UNL     1       1.228   4.407  -4.835  1.00  0.00     0.030 A 
HETATM    4  C   UNL     1      -0.148   4.301  -4.977  1.00  0.00     0.063 A 
HETATM    5  N   UNL     1      -0.365   4.180  -6.322  1.00  0.00    -0.277 N 
HETATM    6  H   UNL     1      -1.256   4.069  -6.791  1.00  0.00     0.189 HD
HETATM    7  N   UNL     1       0.752   4.218  -7.070  1.00  0.00    -0.168 NA
HETATM    8  C   UNL     1       1.744   4.362  -6.163  1.00  0.00     0.156 A 
HETATM    9  C   UNL     1      -1.028   4.322  -3.894  1.00  0.00     0.034 A 
HETATM   10  C   UNL     1      -0.469   4.451  -2.615  1.00  0.00     0.032 A 
ENDROOT
BRANCH   1  11
HETATM   11  N   UNL     1       1.523   4.598  -1.157  1.00  0.00    -0.327 N 
HETATM   12  C   UNL     1       0.896   4.674   0.077  1.00  0.00     0.226 C 
HETATM   13  O   UNL     1      -0.288   4.925   0.279  1.00  0.00    -0.273 OA
HETATM   14  H   UNL     1       2.531   4.498  -1.147  1.00  0.00     0.169 HD
BRANCH  12  15
HETATM   15  C   UNL     1       1.846   4.390   1.234  1.00  0.00     0.141 C 
BRANCH  15  16
HETATM   16  C   UNL     1       2.356   2.966   1.226  1.00  0.00    -0.049 A 
HETATM   17  C   UNL     1       1.467   1.893   1.050  1.00  0.00     0.014 A 
HETATM   18  C   UNL     1       1.927   0.571   1.007  1.00  0.00    -0.058 A 
HETATM   19  C   UNL     1       3.296   0.324   1.162  1.00  0.00     0.007 A 
HETATM   20  C   UNL     1       4.184   1.380   1.366  1.00  0.00     0.001 A 
HETATM   21  C   UNL     1       3.719   2.695   1.401  1.00  0.00     0.007 A 
BRANCH  18  22
HETATM   22  C   UNL     1       0.964  -0.562   0.755  1.00  0.00     0.034 C 
HETATM   23  C   UNL     1       0.951  -0.978  -0.709  1.00  0.00     0.010 C 
ENDBRANCH  18  22
ENDBRANCH  15  16
ENDBRANCH  12  15
ENDBRANCH   1  11
BRANCH   8  24
HETATM   24  C   UNL     1       3.151   4.458  -6.573  1.00  0.00     0.270 C 
HETATM   25  N   UNL     1       3.346   4.386  -7.924  1.00  0.00    -0.365 N 
HETATM   26  H   UNL     1       2.537   4.287  -8.526  1.00  0.00     0.159 HD
HETATM   27  H   UNL     1       4.277   4.464  -8.303  1.00  0.00     0.159 HD
HETATM   28  O   UNL     1       4.092   4.597  -5.797  1.00  0.00    -0.266 OA
ENDBRANCH   8  24
TORSDOF 5
