REMARK  3 active torsions:
REMARK  status: ('A' for Active; 'I' for Inactive)
REMARK    1  A    between atoms: C_2  and  N_3 
REMARK    2  A    between atoms: C_2  and  C_10 
REMARK    3  A    between atoms: C_13  and  C_14 
ROOT
HETATM    1  C   UNL     1       2.956  -1.242   0.866  1.00  0.00    -0.028 A 
HETATM    2  C   UNL     1       2.094  -2.131   1.528  1.00  0.00     0.010 A 
HETATM    3  C   UNL     1       2.604  -3.220   2.244  1.00  0.00     0.014 A 
HETATM    4  C   UNL     1       3.985  -3.458   2.323  1.00  0.00    -0.006 A 
HETATM    5  C   UNL     1       4.837  -2.577   1.638  1.00  0.00     0.014 A 
HETATM    6  C   UNL     1       4.337  -1.482   0.925  1.00  0.00     0.010 A 
ENDROOT
BRANCH   4   7
HETATM    7  C   UNL     1       4.537  -4.595   3.062  1.00  0.00     0.082 A 
HETATM    8  N   UNL     1       5.489  -5.341   2.443  1.00  0.00    -0.240 NA
HETATM    9  C   UNL     1       6.004  -6.394   3.108  1.00  0.00     0.236 A 
HETATM   10  N   UNL     1       5.709  -6.809   4.350  1.00  0.00    -0.224 NA
HETATM   11  C   UNL     1       4.786  -6.028   4.927  1.00  0.00     0.141 A 
HETATM   12  C   UNL     1       4.158  -4.922   4.372  1.00  0.00     0.041 A 
HETATM   13  N   UNL     1       4.308  -6.203   6.197  1.00  0.00    -0.350 N 
HETATM   14  C   UNL     1       3.283  -4.411   5.375  1.00  0.00     0.034 A 
HETATM   15  C   UNL     1       3.394  -5.222   6.486  1.00  0.00     0.091 A 
HETATM   16  H   UNL     1       4.609  -6.946   6.813  1.00  0.00     0.166 HD
ENDBRANCH   4   7
BRANCH   1  17
HETATM   17  C   UNL     1       2.385  -0.040   0.132  1.00  0.00     0.217 C 
HETATM   18  C   UNL     1       2.833  -0.056  -1.334  1.00  0.00     0.045 C 
BRANCH  17  19
HETATM   19  N   UNL     1       2.774   1.288   0.812  1.00  0.00    -0.063 N 
HETATM   20  H   UNL     1       3.801   1.317   0.810  1.00  0.00     0.280 HD
HETATM   21  C   UNL     1       2.272   2.512   0.073  1.00  0.00     0.235 C 
HETATM   22  C   UNL     1       2.764   3.781   0.756  1.00  0.00     0.028 C 
HETATM   23  C   UNL     1       2.360   3.831   2.221  1.00  0.00     0.003 C 
HETATM   24  C   UNL     1       2.834   2.582   2.947  1.00  0.00     0.028 C 
HETATM   25  C   UNL     1       2.335   1.314   2.270  1.00  0.00     0.235 C 
ENDBRANCH  17  19
ENDBRANCH   1  17
TORSDOF 3
