REMARK  8 active torsions:
REMARK  status: ('A' for Active; 'I' for Inactive)
REMARK    1  A    between atoms: C_5  and  S_6 
REMARK    2  A    between atoms: S_6  and  C_7 
REMARK    3  A    between atoms: C_7  and  C_8 
REMARK       I    between atoms: C_8  and  N_9 
REMARK    4  A    between atoms: N_9  and  N_10 
REMARK       I    between atoms: N_10  and  C_11 
REMARK    5  A    between atoms: C_11  and  C_12 
REMARK    6  A    between atoms: C_15  and  O_16 
REMARK    7  A    between atoms: C_23  and  C_24 
REMARK    8  A    between atoms: C_24  and  C_25 
ROOT
HETATM    1  C   UNL     1       5.989   2.943  -0.356  1.00  0.00     0.187 C 
ENDROOT
BRANCH   1   2
HETATM    2  S   UNL     1       6.803   1.410  -0.873  1.00  0.00    -0.083 SA
BRANCH   2   3
HETATM    3  C   UNL     1       7.442   0.838   0.624  1.00  0.00     0.167 A 
HETATM    4  N   UNL     1       8.396   1.529   1.309  1.00  0.00    -0.337 N 
HETATM    5  C   UNL     1       8.733   0.792   2.417  1.00  0.00     0.032 A 
HETATM    6  H   UNL     1       8.749   2.444   1.055  1.00  0.00     0.168 HD
HETATM    7  C   UNL     1       9.741   1.241   3.400  1.00  0.00     0.070 C 
HETATM    8  C   UNL     1       7.952  -0.351   2.330  1.00  0.00     0.063 A 
HETATM    9  N   UNL     1       7.132  -0.287   1.217  1.00  0.00    -0.227 NA
BRANCH   8  10
HETATM   10  C   UNL     1       7.886  -1.520   3.253  1.00  0.00     0.100 C 
BRANCH  10  11
HETATM   11  C   UNL     1       8.849  -2.547   2.708  1.00  0.00    -0.052 A 
HETATM   12  C   UNL     1      10.139  -2.681   3.242  1.00  0.00     0.007 A 
HETATM   13  C   UNL     1      11.023  -3.634   2.732  1.00  0.00     0.001 A 
HETATM   14  C   UNL     1      10.627  -4.465   1.684  1.00  0.00     0.000 A 
HETATM   15  C   UNL     1       9.350  -4.341   1.143  1.00  0.00     0.001 A 
HETATM   16  C   UNL     1       8.466  -3.388   1.650  1.00  0.00     0.007 A 
ENDBRANCH  10  11
ENDBRANCH   8  10
ENDBRANCH   2   3
ENDBRANCH   1   2
BRANCH   1  17
HETATM   17  C   UNL     1       7.003   4.066  -0.273  1.00  0.00     0.245 C 
HETATM   18  N   UNL     1       6.915   5.006  -1.282  1.00  0.00    -0.267 N 
HETATM   19  H   UNL     1       6.505   4.764  -2.187  1.00  0.00     0.190 HD
HETATM   20  O   UNL     1       7.856   4.143   0.616  1.00  0.00    -0.271 OA
BRANCH  18  21
HETATM   21  N   UNL     1       7.951   5.959  -1.344  1.00  0.00    -0.263 N 
HETATM   22  C   UNL     1       8.476   6.242  -2.592  1.00  0.00     0.270 C 
HETATM   23  O   UNL     1       7.969   5.823  -3.628  1.00  0.00    -0.266 OA
HETATM   24  H   UNL     1       8.527   6.023  -0.506  1.00  0.00     0.190 HD
BRANCH  22  25
HETATM   25  C   UNL     1       9.726   7.051  -2.612  1.00  0.00     0.033 A 
HETATM   26  C   UNL     1      10.559   6.967  -3.732  1.00  0.00     0.020 A 
HETATM   27  C   UNL     1      11.744   7.706  -3.781  1.00  0.00     0.038 A 
HETATM   28  C   UNL     1      12.109   8.541  -2.722  1.00  0.00     0.068 A 
HETATM   29  C   UNL     1      11.272   8.638  -1.610  1.00  0.00     0.038 A 
HETATM   30  C   UNL     1      10.082   7.900  -1.555  1.00  0.00     0.020 A 
BRANCH  28  31
HETATM   31  O   UNL     1      13.291   9.204  -2.897  1.00  0.00    -0.356 OA
HETATM   32  C   UNL     1      13.705  10.075  -1.851  1.00  0.00     0.210 C 
ENDBRANCH  28  31
ENDBRANCH  22  25
ENDBRANCH  18  21
ENDBRANCH   1  17
TORSDOF 8
