REMARK  6 active torsions:
REMARK  status: ('A' for Active; 'I' for Inactive)
REMARK    1  A    between atoms: C_2  and  N_3 
REMARK    2  A    between atoms: C_2  and  C_21 
REMARK    3  A    between atoms: N_3  and  C_6 
REMARK    4  A    between atoms: C_6  and  C_7 
REMARK       I    between atoms: C_7  and  N_8 
REMARK    5  A    between atoms: N_8  and  C_9 
REMARK    6  A    between atoms: C_16  and  C_17 
REMARK       I    between atoms: C_17  and  N_18 
ROOT
HETATM    1  C   UNL     1       3.090  -0.560  -3.597  1.00  0.00     0.248 C 
HETATM    2  N   UNL     1       4.289  -0.056  -4.038  1.00  0.00    -0.319 N 
HETATM    3  O   UNL     1       2.110  -0.912  -4.252  1.00  0.00    -0.271 OA
HETATM    4  H   UNL     1       5.061   0.076  -3.380  1.00  0.00     0.169 HD
ENDROOT
BRANCH   2   5
HETATM    5  C   UNL     1       4.662   0.195  -5.353  1.00  0.00     0.093 A 
HETATM    6  S   UNL     1       3.522   0.164  -6.625  1.00  0.00    -0.075 SA
HETATM    7  C   UNL     1       4.706   0.567  -7.726  1.00  0.00    -0.008 A 
HETATM    8  C   UNL     1       5.952   0.728  -7.182  1.00  0.00    -0.026 A 
HETATM    9  C   UNL     1       4.638   0.779  -9.191  1.00  0.00     0.047 C 
HETATM   10  C   UNL     1       6.933   1.083  -8.244  1.00  0.00     0.041 C 
HETATM   11  C   UNL     1       5.960   0.510  -5.773  1.00  0.00     0.072 A 
HETATM   12  C   UNL     1       6.019   1.444  -9.455  1.00  0.00     0.010 C 
BRANCH  11  13
HETATM   13  C   UNL     1       7.068   0.563  -4.818  1.00  0.00     0.252 C 
HETATM   14  N   UNL     1       8.321   0.738  -5.316  1.00  0.00    -0.366 N 
HETATM   15  H   UNL     1       8.536   0.757  -6.300  1.00  0.00     0.159 HD
HETATM   16  H   UNL     1       9.096   0.732  -4.665  1.00  0.00     0.159 HD
HETATM   17  O   UNL     1       6.889   0.425  -3.607  1.00  0.00    -0.268 OA
ENDBRANCH  11  13
ENDBRANCH   2   5
BRANCH   1  18
HETATM   18  C   UNL     1       3.034  -0.774  -2.085  1.00  0.00     0.335 C 
BRANCH  18  19
HETATM   19  N   UNL     1       2.211  -1.994  -1.796  1.00  0.00    -0.057 N 
HETATM   20  H   UNL     1       2.706  -2.829  -2.152  1.00  0.00     0.278 HD
HETATM   21  H   UNL     1       1.373  -1.963  -2.401  1.00  0.00     0.278 HD
BRANCH  19  22
HETATM   22  C   UNL     1       1.857  -2.259  -0.371  1.00  0.00     0.239 C 
HETATM   23  C   UNL     1       0.437  -1.764  -0.127  1.00  0.00     0.047 C 
BRANCH  22  24
HETATM   24  C   UNL     1       2.000  -3.711  -0.060  1.00  0.00     0.082 A 
HETATM   25  O   UNL     1       2.257  -4.533  -1.125  1.00  0.00    -0.325 OA
HETATM   26  C   UNL     1       2.368  -5.794  -0.635  1.00  0.00     0.142 A 
HETATM   27  C   UNL     1       2.204  -5.795   0.730  1.00  0.00     0.027 A 
HETATM   28  C   UNL     1       1.969  -4.449   1.105  1.00  0.00     0.037 A 
ENDBRANCH  22  24
ENDBRANCH  19  22
ENDBRANCH  18  19
ENDBRANCH   1  18
TORSDOF 6
