REMARK  7 active torsions:
REMARK  status: ('A' for Active; 'I' for Inactive)
REMARK    1  A    between atoms: O_2  and  C_3 
REMARK    2  A    between atoms: C_5  and  N_6 
REMARK    3  A    between atoms: C_7  and  C_9 
REMARK    4  A    between atoms: C_7  and  O_8 
REMARK       I    between atoms: C_9  and  N_10 
REMARK    5  A    between atoms: N_10  and  C_11 
REMARK    6  A    between atoms: C_11  and  C_12 
REMARK    7  A    between atoms: C_12  and  C_13 
ROOT
HETATM    1  N   UNL     1       2.298   4.921  -0.217  1.00  0.00    -0.254 N 
HETATM    2  C   UNL     1       0.938   4.949  -0.814  1.00  0.00     0.256 C 
HETATM    3  C   UNL     1       0.571   6.215  -1.559  1.00  0.00     0.034 A 
HETATM    4  C   UNL     1       1.464   7.269  -1.595  1.00  0.00     0.048 A 
HETATM    5  N   UNL     1       2.657   7.151  -0.910  1.00  0.00    -0.308 N 
HETATM    6  C   UNL     1       3.077   6.073  -0.197  1.00  0.00     0.330 C 
HETATM    7  O   UNL     1       4.138   6.223   0.411  1.00  0.00    -0.246 OA
HETATM    8  C   UNL     1      -0.669   6.366  -2.207  1.00  0.00     0.015 A 
HETATM    9  C   UNL     1      -0.976   7.541  -2.895  1.00  0.00     0.001 A 
HETATM   10  C   UNL     1      -0.052   8.581  -2.937  1.00  0.00     0.002 A 
HETATM   11  C   UNL     1       1.169   8.450  -2.278  1.00  0.00     0.030 A 
HETATM   12  H   UNL     1       3.285   7.943  -0.861  1.00  0.00     0.170 HD
ENDROOT
BRANCH   2  13
HETATM   13  C   UNL     1       0.839   3.753  -1.880  1.00  0.00     0.279 C 
HETATM   14  N   UNL     1       1.828   3.750  -2.853  1.00  0.00    -0.356 N 
HETATM   15  H   UNL     1       2.516   4.494  -2.848  1.00  0.00     0.162 HD
HETATM   16  O   UNL     1      -0.077   2.928  -1.878  1.00  0.00    -0.268 OA
BRANCH  14  17
HETATM   17  C   UNL     1       1.921   2.726  -3.875  1.00  0.00     0.127 C 
BRANCH  17  18
HETATM   18  C   UNL     1       0.776   2.732  -4.897  1.00  0.00     0.058 C 
BRANCH  18  19
HETATM   19  C   UNL     1       0.597   4.034  -5.643  1.00  0.00    -0.057 A 
HETATM   20  C   UNL     1       1.616   4.554  -6.453  1.00  0.00     0.009 A 
HETATM   21  C   UNL     1       1.426   5.750  -7.150  1.00  0.00     0.024 A 
HETATM   22  C   UNL     1       0.213   6.427  -7.048  1.00  0.00     0.034 A 
HETATM   23 CL   UNL     1      -0.021   7.900  -7.906  1.00  0.00    -0.084 Cl
HETATM   24  C   UNL     1      -0.814   5.916  -6.260  1.00  0.00     0.024 A 
HETATM   25  C   UNL     1      -0.622   4.724  -5.560  1.00  0.00     0.009 A 
ENDBRANCH  18  19
ENDBRANCH  17  18
ENDBRANCH  14  17
ENDBRANCH   2  13
BRANCH   2  26
HETATM   26  O   UNL     1       0.014   4.918   0.263  1.00  0.00    -0.359 OA
HETATM   27  H   UNL     1       0.557   4.803   1.058  1.00  0.00     0.213 HD
ENDBRANCH   2  26
BRANCH   1  28
HETATM   28  C   UNL     1       2.788   3.673   0.380  1.00  0.00     0.045 A 
HETATM   29  C   UNL     1       4.159   3.457   0.625  1.00  0.00     0.066 A 
HETATM   30  C   UNL     1       4.639   2.275   1.208  1.00  0.00     0.070 A 
HETATM   31  C   UNL     1       3.749   1.254   1.521  1.00  0.00     0.037 A 
HETATM   32  C   UNL     1       2.394   1.419   1.271  1.00  0.00     0.005 A 
HETATM   33  C   UNL     1       1.922   2.612   0.710  1.00  0.00     0.030 A 
BRANCH  30  34
HETATM   34  O   UNL     1       5.949   1.997   1.490  1.00  0.00    -0.356 OA
HETATM   35  C   UNL     1       6.849   3.100   1.487  1.00  0.00     0.210 C 
ENDBRANCH  30  34
ENDBRANCH   1  28
TORSDOF 7
