REMARK  8 active torsions:
REMARK  status: ('A' for Active; 'I' for Inactive)
REMARK    1  A    between atoms: C_7  and  C_8 
REMARK    2  A    between atoms: C_8  and  O_9 
REMARK    3  A    between atoms: O_9  and  C_10 
REMARK    4  A    between atoms: C_12  and  C_13 
REMARK       I    between atoms: C_13  and  N_14 
REMARK    5  A    between atoms: N_14  and  C_15 
REMARK    6  A    between atoms: C_15  and  C_16 
REMARK    7  A    between atoms: C_17  and  C_18 
REMARK    8  A    between atoms: C_18  and  N_19 
ROOT
HETATM    1  C   UNL     1       1.203  -7.368   0.162  1.00  0.00     0.252 C 
HETATM    2  N   UNL     1       0.814  -8.588  -0.363  1.00  0.00    -0.353 N 
HETATM    3  O   UNL     1       0.431  -6.423   0.275  1.00  0.00    -0.268 OA
HETATM    4  H   UNL     1       1.551  -9.223  -0.648  1.00  0.00     0.163 HD
ENDROOT
BRANCH   1   5
HETATM    5  C   UNL     1       2.641  -7.234   0.501  1.00  0.00     0.034 A 
HETATM    6  C   UNL     1       3.288  -6.034   0.187  1.00  0.00     0.053 A 
HETATM    7  C   UNL     1       4.656  -5.881   0.429  1.00  0.00     0.070 A 
HETATM    8  C   UNL     1       5.364  -6.922   1.034  1.00  0.00     0.037 A 
HETATM    9  C   UNL     1       4.713  -8.115   1.369  1.00  0.00     0.004 A 
HETATM   10  C   UNL     1       3.354  -8.278   1.097  1.00  0.00     0.017 A 
BRANCH   7  11
HETATM   11  O   UNL     1       5.173  -4.682   0.028  1.00  0.00    -0.346 OA
BRANCH  11  12
HETATM   12  C   UNL     1       6.595  -4.537   0.041  1.00  0.00     0.219 C 
BRANCH  12  13
HETATM   13  C   UNL     1       6.994  -3.315  -0.705  1.00  0.00     0.024 A 
HETATM   14  C   UNL     1       7.306  -2.025  -0.197  1.00  0.00     0.069 A 
HETATM   15  C   UNL     1       7.309  -1.563   1.211  1.00  0.00     0.073 C 
HETATM   16  N   UNL     1       7.631  -1.177  -1.179  1.00  0.00    -0.133 NA
HETATM   17  O   UNL     1       7.522  -1.897  -2.351  1.00  0.00    -0.217 OA
HETATM   18  C   UNL     1       7.140  -3.169  -2.068  1.00  0.00     0.085 A 
HETATM   19  C   UNL     1       6.969  -4.074  -3.220  1.00  0.00     0.079 C 
ENDBRANCH  12  13
ENDBRANCH  11  12
ENDBRANCH   7  11
ENDBRANCH   1   5
BRANCH   2  20
HETATM   20  C   UNL     1      -0.438  -8.646  -1.074  1.00  0.00     0.162 C 
BRANCH  20  21
HETATM   21  C   UNL     1      -0.779 -10.048  -1.513  1.00  0.00    -0.033 A 
HETATM   22  C   UNL     1      -1.803 -10.829  -0.929  1.00  0.00    -0.025 A 
HETATM   23  C   UNL     1      -2.002 -12.146  -1.395  1.00  0.00     0.009 A 
HETATM   24  C   UNL     1      -1.223 -12.675  -2.423  1.00  0.00     0.001 A 
HETATM   25  C   UNL     1      -0.229 -11.901  -3.006  1.00  0.00     0.001 A 
HETATM   26  C   UNL     1      -0.008 -10.602  -2.555  1.00  0.00     0.009 A 
BRANCH  22  27
HETATM   27  C   UNL     1      -2.717 -10.316   0.160  1.00  0.00     0.274 C 
BRANCH  27  28
HETATM   28  N   UNL     1      -3.769  -9.341  -0.328  1.00  0.00    -0.067 N 
HETATM   29  H   UNL     1      -3.272  -8.571  -0.790  1.00  0.00     0.280 HD
HETATM   30  C   UNL     1      -4.602  -8.761   0.787  1.00  0.00     0.235 C 
HETATM   31  C   UNL     1      -5.737  -9.751   0.934  1.00  0.00     0.029 C 
HETATM   32  C   UNL     1      -5.984 -10.288  -0.467  1.00  0.00     0.029 C 
HETATM   33  C   UNL     1      -4.774  -9.899  -1.303  1.00  0.00     0.235 C 
ENDBRANCH  27  28
ENDBRANCH  22  27
ENDBRANCH  20  21
ENDBRANCH   2  20
TORSDOF 8
