REMARK  4 active torsions:
REMARK  status: ('A' for Active; 'I' for Inactive)
REMARK    1  A    between atoms: C_3  and  C_4 
REMARK    2  A    between atoms: C_9  and  N_10 
REMARK       I    between atoms: N_10  and  C_11 
REMARK    3  A    between atoms: C_11  and  C_12 
REMARK    4  A    between atoms: C_16  and  C_17 
ROOT
HETATM    1  N   UNL     1       4.977  -2.629   0.128  1.00  0.00    -0.322 N 
HETATM    2  C   UNL     1       4.146  -3.728   0.033  1.00  0.00     0.276 C 
HETATM    3  O   UNL     1       2.920  -3.723   0.010  1.00  0.00    -0.266 OA
HETATM    4  H   UNL     1       5.965  -2.877   0.138  1.00  0.00     0.169 HD
ENDROOT
BRANCH   2   5
HETATM    5  C   UNL     1       4.913  -4.987   0.010  1.00  0.00     0.147 A 
HETATM    6  N   UNL     1       6.260  -5.004  -0.044  1.00  0.00    -0.169 NA
HETATM    7  N   UNL     1       6.566  -6.313  -0.004  1.00  0.00    -0.277 N 
HETATM    8  H   UNL     1       7.544  -6.571  -0.054  1.00  0.00     0.189 HD
HETATM    9  C   UNL     1       5.487  -7.152   0.128  1.00  0.00     0.063 A 
HETATM   10  C   UNL     1       4.396  -6.303   0.094  1.00  0.00     0.071 A 
BRANCH   9  11
HETATM   11  C   UNL     1       5.580  -8.609   0.280  1.00  0.00    -0.008 A 
HETATM   12  C   UNL     1       6.804  -9.251   0.530  1.00  0.00     0.014 A 
HETATM   13  C   UNL     1       6.867 -10.638   0.702  1.00  0.00     0.001 A 
HETATM   14  C   UNL     1       5.708 -11.406   0.631  1.00  0.00     0.000 A 
HETATM   15  C   UNL     1       4.486 -10.788   0.384  1.00  0.00     0.001 A 
HETATM   16  C   UNL     1       4.424  -9.402   0.209  1.00  0.00     0.014 A 
ENDBRANCH   9  11
ENDBRANCH   2   5
BRANCH   1  17
HETATM   17  C   UNL     1       4.627  -1.284   0.319  1.00  0.00     0.035 A 
HETATM   18  C   UNL     1       3.314  -0.819   0.332  1.00  0.00     0.030 A 
HETATM   19  C   UNL     1       3.045   0.531   0.577  1.00  0.00     0.018 A 
HETATM   20  C   UNL     1       4.088   1.435   0.821  1.00  0.00     0.015 A 
HETATM   21  C   UNL     1       5.421   0.985   0.799  1.00  0.00    -0.046 A 
HETATM   22  C   UNL     1       6.587   1.902   1.048  1.00  0.00     0.049 C 
HETATM   23  C   UNL     1       5.672  -0.375   0.534  1.00  0.00     0.037 A 
BRANCH  20  24
HETATM   24  C   UNL     1       3.751   2.861   1.097  1.00  0.00     0.156 C 
HETATM   25  C   UNL     1       2.528   3.154   1.928  1.00  0.00     0.097 C 
HETATM   26  O   UNL     1       4.446   3.766   0.642  1.00  0.00    -0.293 OA
ENDBRANCH  20  24
ENDBRANCH   1  17
TORSDOF 4
