REMARK  6 active torsions:
REMARK  status: ('A' for Active; 'I' for Inactive)
REMARK    1  A    between atoms: C_3  and  C_4 
REMARK    2  A    between atoms: C_4  and  C_5 
REMARK       I    between atoms: C_5  and  N_6 
REMARK    3  A    between atoms: N_6  and  C_7 
REMARK    4  A    between atoms: C_7  and  C_8 
REMARK    5  A    between atoms: C_8  and  C_9 
REMARK    6  A    between atoms: C_27  and  O_28 
ROOT
HETATM    1  C   UNL     1       3.784   3.653  -0.303  1.00  0.00     0.222 C 
HETATM    2  N   UNL     1       5.156   3.687  -0.472  1.00  0.00    -0.360 N 
HETATM    3  O   UNL     1       3.107   4.607   0.063  1.00  0.00    -0.273 OA
HETATM    4  H   UNL     1       5.517   2.996  -1.119  1.00  0.00     0.162 HD
ENDROOT
BRANCH   1   5
HETATM    5  C   UNL     1       3.170   2.287  -0.624  1.00  0.00     0.148 C 
BRANCH   5   6
HETATM    6  C   UNL     1       2.285   2.277  -1.851  1.00  0.00     0.033 C 
HETATM    7  C   UNL     1       1.233   1.446  -2.035  1.00  0.00    -0.036 C 
HETATM    8  C   UNL     1       0.819   0.376  -1.057  1.00  0.00     0.050 C 
HETATM    9  C   UNL     1       0.441   1.572  -3.277  1.00  0.00     0.006 A 
HETATM   10  C   UNL     1       0.664   2.677  -4.099  1.00  0.00     0.093 A 
HETATM   11  C   UNL     1      -0.548   0.661  -3.673  1.00  0.00     0.041 A 
HETATM   12  O   UNL     1       1.698   3.583  -3.834  1.00  0.00    -0.274 OA
HETATM   13  C   UNL     1      -0.083   2.919  -5.255  1.00  0.00     0.076 A 
HETATM   14  C   UNL     1       2.684   3.204  -2.946  1.00  0.00     0.295 C 
HETATM   15  O   UNL     1       3.833   3.619  -3.054  1.00  0.00    -0.259 OA
HETATM   16  C   UNL     1      -1.062   2.006  -5.627  1.00  0.00     0.090 A 
HETATM   17  C   UNL     1      -1.287   0.870  -4.845  1.00  0.00     0.068 A 
HETATM   18 CL   UNL     1      -2.469  -0.307  -5.291  1.00  0.00    -0.081 Cl
BRANCH  16  19
HETATM   19  O   UNL     1      -1.793   2.213  -6.763  1.00  0.00    -0.359 OA
HETATM   20  H   UNL     1      -1.530   3.054  -7.173  1.00  0.00     0.218 HD
ENDBRANCH  16  19
ENDBRANCH   5   6
ENDBRANCH   1   5
BRANCH   2  21
HETATM   21  C   UNL     1       5.879   4.946  -0.490  1.00  0.00     0.127 C 
BRANCH  21  22
HETATM   22  C   UNL     1       6.052   5.597   0.884  1.00  0.00     0.060 C 
BRANCH  22  23
HETATM   23  C   UNL     1       7.099   6.670   0.836  1.00  0.00    -0.029 A 
HETATM   24  C   UNL     1       8.476   6.547   1.215  1.00  0.00    -0.000 A 
HETATM   25  C   UNL     1       9.096   7.767   0.940  1.00  0.00     0.043 A 
HETATM   26  C   UNL     1       9.256   5.502   1.753  1.00  0.00     0.038 A 
HETATM   27  C   UNL     1      10.459   7.996   1.167  1.00  0.00     0.032 A 
HETATM   28  N   UNL     1       8.130   8.605   0.433  1.00  0.00    -0.365 N 
HETATM   29  C   UNL     1      11.211   6.946   1.702  1.00  0.00     0.026 A 
HETATM   30  C   UNL     1      10.616   5.721   1.991  1.00  0.00     0.035 A 
HETATM   31 CL   UNL     1      11.573   4.449   2.653  1.00  0.00    -0.084 Cl
HETATM   32  H   UNL     1       8.295   9.558   0.140  1.00  0.00     0.165 HD
HETATM   33  C   UNL     1       6.928   7.958   0.368  1.00  0.00     0.096 A 
ENDBRANCH  22  23
ENDBRANCH  21  22
ENDBRANCH   2  21
TORSDOF 6
