REMARK  7 active torsions:
REMARK  status: ('A' for Active; 'I' for Inactive)
REMARK    1  A    between atoms: O_2  and  C_3 
REMARK    2  A    between atoms: C_4  and  N_5 
REMARK       I    between atoms: N_5  and  C_6 
REMARK       I    between atoms: C_6  and  N_7 
REMARK    3  A    between atoms: N_7  and  C_8 
REMARK    4  A    between atoms: C_8  and  C_9 
REMARK    5  A    between atoms: C_9  and  C_10 
REMARK    6  A    between atoms: C_10  and  N_11 
REMARK    7  A    between atoms: C_12  and  C_13 
ROOT
HETATM    1  N   UNL     1       4.290   1.889   0.296  1.00  0.00    -0.306 N 
HETATM    2  C   UNL     1       4.096   2.955  -0.555  1.00  0.00     0.320 C 
HETATM    3  N   UNL     1       3.262   3.887   0.027  1.00  0.00    -0.343 N 
HETATM    4  O   UNL     1       4.504   3.089  -1.701  1.00  0.00    -0.247 OA
HETATM    5  H   UNL     1       3.476   1.689   0.860  1.00  0.00     0.171 HD
HETATM    6  H   UNL     1       3.164   3.864   1.033  1.00  0.00     0.164 HD
ENDROOT
BRANCH   3   7
HETATM    7  C   UNL     1       2.639   4.951  -0.724  1.00  0.00     0.126 C 
BRANCH   7   8
HETATM    8  C   UNL     1       3.502   6.198  -0.882  1.00  0.00     0.040 C 
BRANCH   8   9
HETATM    9  C   UNL     1       4.646   6.031  -1.882  1.00  0.00     0.131 C 
BRANCH   9  10
HETATM   10  N   UNL     1       5.179   7.350  -2.277  1.00  0.00    -0.341 N 
HETATM   11  C   UNL     1       4.734   8.187  -3.256  1.00  0.00     0.117 A 
HETATM   12  N   UNL     1       5.580   9.241  -3.197  1.00  0.00    -0.350 N 
HETATM   13  H   UNL     1       5.504  10.053  -3.797  1.00  0.00     0.166 HD
HETATM   14  C   UNL     1       6.540   9.096  -2.236  1.00  0.00     0.107 A 
HETATM   15  C   UNL     1       6.298   7.899  -1.649  1.00  0.00     0.109 A 
BRANCH  11  16
HETATM   16  C   UNL     1       3.572   8.106  -4.242  1.00  0.00     0.008 A 
HETATM   17  C   UNL     1       2.644   7.062  -4.251  1.00  0.00     0.015 A 
HETATM   18  C   UNL     1       1.595   7.042  -5.179  1.00  0.00     0.001 A 
HETATM   19  C   UNL     1       1.457   8.067  -6.108  1.00  0.00     0.000 A 
HETATM   20  C   UNL     1       2.368   9.116  -6.112  1.00  0.00     0.001 A 
HETATM   21  C   UNL     1       3.419   9.136  -5.188  1.00  0.00     0.015 A 
ENDBRANCH  11  16
ENDBRANCH   9  10
ENDBRANCH   8   9
ENDBRANCH   7   8
ENDBRANCH   3   7
BRANCH   1  22
HETATM   22  C   UNL     1       5.130   0.782   0.027  1.00  0.00     0.071 A 
HETATM   23  C   UNL     1       6.414   0.884  -0.549  1.00  0.00     0.095 A 
HETATM   24  C   UNL     1       7.142  -0.289  -0.796  1.00  0.00     0.041 A 
HETATM   25  C   UNL     1       6.624  -1.540  -0.448  1.00  0.00     0.026 A 
HETATM   26  C   UNL     1       5.381  -1.626   0.166  1.00  0.00     0.036 A 
HETATM   27  C   UNL     1       4.640  -0.475   0.416  1.00  0.00     0.056 A 
HETATM   28 CL   UNL     1       4.751  -3.162   0.616  1.00  0.00    -0.084 Cl
BRANCH  23  29
HETATM   29  O   UNL     1       6.912   2.146  -0.751  1.00  0.00    -0.354 OA
HETATM   30  C   UNL     1       8.189   2.254  -1.370  1.00  0.00     0.210 C 
ENDBRANCH  23  29
ENDBRANCH   1  22
TORSDOF 7
