REMARK  6 active torsions:
REMARK  status: ('A' for Active; 'I' for Inactive)
REMARK    1  A    between atoms: C_7  and  C_8 
REMARK    2  A    between atoms: C_8  and  N_9 
REMARK       I    between atoms: N_9  and  C_10 
REMARK       I    between atoms: C_10  and  N_11 
REMARK    3  A    between atoms: N_11  and  C_12 
REMARK    4  A    between atoms: C_14  and  C_15 
REMARK    5  A    between atoms: C_15  and  O_16 
REMARK    6  A    between atoms: O_16  and  C_17 
ROOT
HETATM    1  C   UNL     1       1.248  -4.760  -0.185  1.00  0.00     0.036 A 
HETATM    2  C   UNL     1       0.134  -5.366  -0.775  1.00  0.00     0.038 A 
HETATM    3  C   UNL     1      -1.155  -4.829  -0.599  1.00  0.00    -0.032 A 
HETATM    4  C   UNL     1      -1.314  -3.666   0.167  1.00  0.00     0.009 A 
HETATM    5  C   UNL     1      -0.208  -3.039   0.732  1.00  0.00     0.003 A 
HETATM    6  C   UNL     1       1.063  -3.582   0.552  1.00  0.00     0.029 A 
ENDROOT
BRANCH   1   7
HETATM    7  N   UNL     1       2.574  -5.212  -0.306  1.00  0.00    -0.309 N 
HETATM    8  C   UNL     1       3.147  -6.349  -0.778  1.00  0.00     0.320 C 
HETATM    9  N   UNL     1       2.354  -7.424  -1.013  1.00  0.00    -0.339 N 
HETATM   10  O   UNL     1       4.367  -6.376  -0.933  1.00  0.00    -0.247 OA
HETATM   11  H   UNL     1       1.564  -7.502  -0.391  1.00  0.00     0.164 HD
HETATM   12  H   UNL     1       3.292  -4.555  -0.023  1.00  0.00     0.170 HD
BRANCH   9  13
HETATM   13  C   UNL     1       2.961  -8.669  -1.418  1.00  0.00     0.166 C 
BRANCH  13  14
HETATM   14  C   UNL     1       1.926  -9.542  -2.025  1.00  0.00     0.003 A 
HETATM   15  C   UNL     1       1.344  -9.449  -3.282  1.00  0.00     0.035 A 
HETATM   16  C   UNL     1       1.539  -8.450  -4.364  1.00  0.00     0.070 C 
HETATM   17  N   UNL     1       0.514 -10.537  -3.390  1.00  0.00    -0.278 N 
HETATM   18  C   UNL     1      -0.263 -10.962  -4.530  1.00  0.00     0.179 C 
HETATM   19  N   UNL     1       0.474 -11.288  -2.274  1.00  0.00    -0.185 NA
HETATM   20  C   UNL     1       1.343 -10.695  -1.457  1.00  0.00     0.149 A 
ENDBRANCH  13  14
ENDBRANCH   9  13
ENDBRANCH   1   7
BRANCH   3  21
HETATM   21  C   UNL     1      -2.365  -5.506  -1.193  1.00  0.00     0.206 C 
BRANCH  21  22
HETATM   22  O   UNL     1      -3.114  -4.551  -1.942  1.00  0.00    -0.381 OA
BRANCH  22  23
HETATM   23  C   UNL     1      -4.425  -5.008  -2.289  1.00  0.00     0.121 C 
HETATM   24  C   UNL     1      -5.419  -4.673  -1.169  1.00  0.00     0.032 C 
HETATM   25  C   UNL     1      -5.609  -3.166  -0.994  1.00  0.00     0.002 C 
HETATM   26  C   UNL     1      -6.008  -2.492  -2.303  1.00  0.00     0.000 C 
HETATM   27  C   UNL     1      -5.020  -2.809  -3.422  1.00  0.00     0.002 C 
HETATM   28  C   UNL     1      -4.831  -4.316  -3.595  1.00  0.00     0.032 C 
ENDBRANCH  22  23
ENDBRANCH  21  22
ENDBRANCH   3  21
TORSDOF 6
