REMARK  4 active torsions:
REMARK  status: ('A' for Active; 'I' for Inactive)
REMARK    1  A    between atoms: O_2  and  C_3 
REMARK    2  A    between atoms: C_4  and  O_5 
REMARK    3  A    between atoms: C_8  and  C_9 
REMARK    4  A    between atoms: C_9  and  N_10 
ROOT
HETATM    1  N   UNL     1       6.523   4.041  -2.152  1.00  0.00    -0.066 N 
HETATM    2  H   UNL     1       6.789   3.841  -3.128  1.00  0.00     0.280 HD
HETATM    3  C   UNL     1       7.273   5.313  -1.798  1.00  0.00     0.246 C 
HETATM    4  C   UNL     1       7.516   5.483  -0.283  1.00  0.00     0.062 C 
HETATM    5  C   UNL     1       8.233   4.252   0.257  1.00  0.00     0.020 C 
HETATM    6  C   UNL     1       7.299   3.064   0.081  1.00  0.00     0.031 C 
HETATM    7  C   UNL     1       6.044   3.270   0.928  1.00  0.00     0.138 C 
HETATM    8  N   UNL     1       5.502   4.628   0.953  1.00  0.00    -0.317 N 
HETATM    9  C   UNL     1       6.228   5.725   0.481  1.00  0.00     0.020 A 
HETATM   10  C   UNL     1       5.764   6.970   0.688  1.00  0.00     0.026 A 
HETATM   11  C   UNL     1       4.269   4.773   1.608  1.00  0.00     0.247 A 
HETATM   12  O   UNL     1       3.576   3.826   1.971  1.00  0.00    -0.268 OA
HETATM   13  C   UNL     1       3.792   6.159   1.819  1.00  0.00     0.074 A 
HETATM   14  C   UNL     1       4.521   7.190   1.381  1.00  0.00     0.007 A 
HETATM   15  C   UNL     1       6.994   2.819  -1.398  1.00  0.00     0.241 C 
ENDROOT
BRANCH   1  16
HETATM   16  C   UNL     1       5.022   4.248  -2.296  1.00  0.00     0.274 C 
BRANCH  16  17
HETATM   17  C   UNL     1       4.220   3.033  -2.686  1.00  0.00    -0.012 A 
HETATM   18  C   UNL     1       4.411   2.340  -3.893  1.00  0.00     0.054 A 
HETATM   19  C   UNL     1       3.632   1.213  -4.179  1.00  0.00     0.117 A 
HETATM   20 BR   UNL     1       5.729   2.907  -5.149  1.00  0.00    -0.047 Br
HETATM   21  C   UNL     1       2.636   0.771  -3.298  1.00  0.00     0.102 A 
HETATM   22  C   UNL     1       2.435   1.460  -2.107  1.00  0.00     0.040 A 
HETATM   23  C   UNL     1       3.220   2.578  -1.804  1.00  0.00     0.013 A 
BRANCH  19  24
HETATM   24  O   UNL     1       3.836   0.513  -5.341  1.00  0.00    -0.357 OA
HETATM   25  H   UNL     1       3.177  -0.211  -5.340  1.00  0.00     0.218 HD
ENDBRANCH  19  24
BRANCH  21  26
HETATM   26  O   UNL     1       1.946  -0.338  -3.712  1.00  0.00    -0.353 OA
HETATM   27  C   UNL     1       0.817  -0.721  -2.932  1.00  0.00     0.210 C 
ENDBRANCH  21  26
ENDBRANCH  16  17
ENDBRANCH   1  16
TORSDOF 4
