REMARK  4 active torsions:
REMARK  status: ('A' for Active; 'I' for Inactive)
REMARK    1  A    between atoms: O_2  and  C_3 
REMARK    2  A    between atoms: C_7  and  C_8 
REMARK       I    between atoms: C_8  and  N_9 
REMARK    3  A    between atoms: N_9  and  C_10 
REMARK    4  A    between atoms: C_12  and  C_13 
ROOT
HETATM    1  C   UNL     1       8.101  -1.377   2.832  1.00  0.00     0.254 C 
HETATM    2  N   UNL     1       8.793  -2.570   2.798  1.00  0.00    -0.323 N 
HETATM    3  O   UNL     1       8.513  -0.313   3.280  1.00  0.00    -0.268 OA
HETATM    4  H   UNL     1       8.346  -3.352   2.341  1.00  0.00     0.169 HD
ENDROOT
BRANCH   1   5
HETATM    5  C   UNL     1       6.751  -1.417   2.180  1.00  0.00     0.035 C 
HETATM    6  C   UNL     1       5.996  -2.522   2.096  1.00  0.00     0.029 C 
HETATM    7  C   UNL     1       4.724  -2.420   1.388  1.00  0.00     0.001 A 
HETATM    8  C   UNL     1       4.212  -1.164   1.041  1.00  0.00     0.112 A 
HETATM    9  C   UNL     1       3.998  -3.573   1.071  1.00  0.00     0.014 A 
HETATM   10  C   UNL     1       2.963  -1.053   0.406  1.00  0.00     0.102 A 
HETATM   11  O   UNL     1       4.870  -0.002   1.351  1.00  0.00    -0.343 OA
HETATM   12  C   UNL     1       2.257  -2.214   0.080  1.00  0.00     0.040 A 
HETATM   13  C   UNL     1       2.774  -3.469   0.410  1.00  0.00     0.004 A 
HETATM   14  C   UNL     1       6.272  -0.094   1.645  1.00  0.00     0.220 C 
BRANCH  10  15
HETATM   15  O   UNL     1       2.535   0.220   0.123  1.00  0.00    -0.353 OA
HETATM   16  C   UNL     1       1.161   0.382  -0.200  1.00  0.00     0.210 C 
ENDBRANCH  10  15
ENDBRANCH   1   5
BRANCH   2  17
HETATM   17  C   UNL     1      10.093  -2.828   3.288  1.00  0.00     0.035 A 
HETATM   18  C   UNL     1      10.929  -1.858   3.851  1.00  0.00     0.042 A 
HETATM   19  C   UNL     1      12.227  -2.176   4.291  1.00  0.00    -0.021 A 
HETATM   20  C   UNL     1      12.665  -3.502   4.180  1.00  0.00     0.012 A 
HETATM   21  C   UNL     1      11.836  -4.481   3.632  1.00  0.00     0.003 A 
HETATM   22  C   UNL     1      10.560  -4.143   3.182  1.00  0.00     0.029 A 
BRANCH  19  23
HETATM   23  C   UNL     1      13.114  -1.157   4.841  1.00  0.00     0.010 A 
HETATM   24  C   UNL     1      14.321  -1.273   5.574  1.00  0.00     0.152 A 
HETATM   25  N   UNL     1      14.861  -0.092   5.886  1.00  0.00    -0.187 NA
HETATM   26  N   UNL     1      14.001   0.792   5.356  1.00  0.00    -0.289 N 
HETATM   27  H   UNL     1      14.198   1.781   5.463  1.00  0.00     0.188 HD
HETATM   28  C   UNL     1      12.945   0.207   4.718  1.00  0.00     0.123 A 
ENDBRANCH  19  23
ENDBRANCH   2  17
TORSDOF 4
