REMARK  9 active torsions:
REMARK  status: ('A' for Active; 'I' for Inactive)
REMARK    1  A    between atoms: C_2  and  O_3 
REMARK    2  A    between atoms: O_3  and  C_4 
REMARK    3  A    between atoms: C_5  and  C_6 
REMARK    4  A    between atoms: C_7  and  C_8 
REMARK       I    between atoms: C_8  and  N_9 
REMARK    5  A    between atoms: N_9  and  C_10 
REMARK    6  A    between atoms: C_20  and  S_21 
REMARK    7  A    between atoms: S_21  and  C_22 
REMARK    8  A    between atoms: C_22  and  C_23 
REMARK       I    between atoms: C_23  and  N_24 
REMARK    9  A    between atoms: N_24  and  C_25 
ROOT
HETATM    1  C   UNL     1       4.314   0.865  -1.241  1.00  0.00     0.107 C 
HETATM    2  C   UNL     1       3.667   0.901   0.150  1.00  0.00     0.046 C 
HETATM    3  C   UNL     1       3.519   2.077   0.805  1.00  0.00     0.019 C 
HETATM    4  C   UNL     1       2.704   2.264   2.064  1.00  0.00     0.069 C 
HETATM    5  N   UNL     1       4.065   3.242   0.281  1.00  0.00    -0.353 N 
HETATM    6  C   UNL     1       4.546   3.373  -1.013  1.00  0.00     0.087 C 
HETATM    7  C   UNL     1       4.719   2.265  -1.776  1.00  0.00     0.055 C 
HETATM    8  C   UNL     1       4.867   2.366  -3.285  1.00  0.00     0.019 C 
HETATM    9  N   UNL     1       4.991   2.450  -4.537  1.00  0.00    -0.096 N 
HETATM   10  H   UNL     1       3.673   4.104   0.653  1.00  0.00     0.166 HD
ENDROOT
BRANCH   1  11
HETATM   11  C   UNL     1       3.461   0.128  -2.293  1.00  0.00    -0.011 A 
HETATM   12  C   UNL     1       2.195   0.606  -2.702  1.00  0.00     0.076 A 
HETATM   13  C   UNL     1       1.492  -0.065  -3.707  1.00  0.00     0.037 A 
HETATM   14  C   UNL     1       2.038  -1.196  -4.318  1.00  0.00     0.003 A 
HETATM   15  C   UNL     1       3.284  -1.672  -3.924  1.00  0.00     0.001 A 
HETATM   16  C   UNL     1       3.992  -1.018  -2.917  1.00  0.00     0.011 A 
BRANCH  12  17
HETATM   17  O   UNL     1       1.741   1.733  -2.067  1.00  0.00    -0.351 OA
BRANCH  17  18
HETATM   18  C   UNL     1       0.656   2.436  -2.667  1.00  0.00     0.171 C 
HETATM   19  C   UNL     1       0.438   3.712  -1.874  1.00  0.00     0.034 C 
ENDBRANCH  17  18
ENDBRANCH  12  17
ENDBRANCH   1  11
BRANCH   6  20
HETATM   20  S   UNL     1       4.700   4.974  -1.729  1.00  0.00    -0.102 SA
BRANCH  20  21
HETATM   21  C   UNL     1       5.636   5.878  -0.464  1.00  0.00     0.184 C 
BRANCH  21  22
HETATM   22  C   UNL     1       7.141   5.785  -0.658  1.00  0.00     0.231 C 
HETATM   23  N   UNL     1       7.538   5.882  -1.980  1.00  0.00    -0.327 N 
HETATM   24  H   UNL     1       6.801   5.776  -2.671  1.00  0.00     0.169 HD
HETATM   25  O   UNL     1       7.882   5.725   0.320  1.00  0.00    -0.272 OA
BRANCH  23  26
HETATM   26  C   UNL     1       8.841   6.052  -2.482  1.00  0.00     0.034 A 
HETATM   27  C   UNL     1       9.957   6.289  -1.679  1.00  0.00     0.030 A 
HETATM   28  C   UNL     1      11.213   6.495  -2.259  1.00  0.00     0.009 A 
HETATM   29  C   UNL     1      11.372   6.471  -3.648  1.00  0.00    -0.062 A 
HETATM   30  C   UNL     1      12.727   6.674  -4.256  1.00  0.00     0.048 C 
HETATM   31  C   UNL     1      10.257   6.213  -4.451  1.00  0.00     0.009 A 
HETATM   32  C   UNL     1       9.001   6.012  -3.871  1.00  0.00     0.030 A 
ENDBRANCH  23  26
ENDBRANCH  21  22
ENDBRANCH  20  21
ENDBRANCH   6  20
BRANCH   2  33
HETATM   33  C   UNL     1       3.143  -0.394   0.703  1.00  0.00     0.255 C 
HETATM   34  N   UNL     1       3.538  -0.643   2.004  1.00  0.00    -0.323 N 
HETATM   35  H   UNL     1       4.111   0.057   2.456  1.00  0.00     0.169 HD
HETATM   36  O   UNL     1       2.438  -1.125   0.022  1.00  0.00    -0.268 OA
BRANCH  34  37
HETATM   37  C   UNL     1       3.101  -1.709   2.823  1.00  0.00     0.035 A 
HETATM   38  C   UNL     1       2.406  -2.824   2.349  1.00  0.00     0.029 A 
HETATM   39  C   UNL     1       1.978  -3.824   3.227  1.00  0.00     0.002 A 
HETATM   40  C   UNL     1       2.234  -3.716   4.590  1.00  0.00     0.000 A 
HETATM   41  C   UNL     1       2.931  -2.613   5.075  1.00  0.00     0.002 A 
HETATM   42  C   UNL     1       3.372  -1.619   4.195  1.00  0.00     0.029 A 
ENDBRANCH  34  37
ENDBRANCH   2  33
TORSDOF 9
