REMARK  13 active torsions:
REMARK  status: ('A' for Active; 'I' for Inactive)
REMARK    1  A    between atoms: C_2  and  N_3 
REMARK    2  A    between atoms: N_3  and  C_5 
REMARK    3  A    between atoms: N_3  and  C_34 
REMARK    4  A    between atoms: C_5  and  C_6 
REMARK    5  A    between atoms: C_6  and  O_7 
REMARK    6  A    between atoms: O_7  and  C_8 
REMARK    7  A    between atoms: N_15  and  N_16 
REMARK    8  A    between atoms: C_20  and  O_21 
REMARK    9  A    between atoms: O_21  and  C_22 
REMARK   10  A    between atoms: C_22  and  C_23 
REMARK   11  A    between atoms: C_23  and  N_24 
REMARK   12  A    between atoms: N_24  and  C_26 
REMARK   13  A    between atoms: N_24  and  C_28 
ROOT
HETATM    1  C   UNL     1      -0.925   2.891   2.384  1.00  0.00     0.091 A 
HETATM    2  C   UNL     1      -1.512   4.171   2.518  1.00  0.00     0.068 A 
HETATM    3 CL   UNL     1      -0.550   5.597   2.334  1.00  0.00    -0.081 Cl
HETATM    4  C   UNL     1      -2.881   4.327   2.782  1.00  0.00     0.040 A 
HETATM    5  C   UNL     1      -3.655   3.187   2.929  1.00  0.00    -0.011 A 
HETATM    6  C   UNL     1      -3.060   1.912   2.833  1.00  0.00     0.009 A 
HETATM    7  C   UNL     1      -4.136   0.909   3.057  1.00  0.00     0.093 A 
HETATM    8  N   UNL     1      -4.140  -0.386   3.096  1.00  0.00    -0.203 NA
HETATM    9  C   UNL     1      -5.384   1.678   3.264  1.00  0.00     0.009 A 
HETATM   10  C   UNL     1      -5.074   3.041   3.182  1.00  0.00    -0.011 A 
HETATM   11  C   UNL     1      -6.662   1.192   3.498  1.00  0.00     0.053 A 
HETATM   12  C   UNL     1      -7.686   2.125   3.664  1.00  0.00     0.091 A 
HETATM   13  C   UNL     1      -7.392   3.509   3.561  1.00  0.00     0.068 A 
HETATM   14 CL   UNL     1      -8.652   4.684   3.736  1.00  0.00    -0.081 Cl
HETATM   15  C   UNL     1      -6.086   3.974   3.327  1.00  0.00     0.040 A 
HETATM   16  C   UNL     1      -1.709   1.746   2.563  1.00  0.00     0.053 A 
ENDROOT
BRANCH   1  17
HETATM   17  O   UNL     1       0.422   2.846   2.114  1.00  0.00    -0.348 OA
BRANCH  17  18
HETATM   18  C   UNL     1       0.883   1.694   1.399  1.00  0.00     0.203 C 
BRANCH  18  19
HETATM   19  C   UNL     1       2.259   2.027   0.809  1.00  0.00     0.261 C 
BRANCH  19  20
HETATM   20  N   UNL     1       3.202   2.614   1.858  1.00  0.00    -0.070 N 
HETATM   21  H   UNL     1       2.678   3.411   2.255  1.00  0.00     0.279 HD
BRANCH  20  22
HETATM   22  C   UNL     1       4.474   3.186   1.257  1.00  0.00     0.230 C 
HETATM   23  C   UNL     1       4.204   4.517   0.578  1.00  0.00     0.034 C 
ENDBRANCH  20  22
BRANCH  20  24
HETATM   24  C   UNL     1       3.485   1.717   3.049  1.00  0.00     0.230 C 
HETATM   25  C   UNL     1       4.152   0.414   2.651  1.00  0.00     0.034 C 
ENDBRANCH  20  24
ENDBRANCH  19  20
ENDBRANCH  18  19
ENDBRANCH  17  18
ENDBRANCH   1  17
BRANCH   8  26
HETATM   26  N   UNL     1      -2.960  -1.013   2.926  1.00  0.00    -0.226 NA
HETATM   27  H   UNL     1      -3.118  -1.846   2.347  1.00  0.00     0.145 HD
HETATM   28  H   UNL     1      -2.683  -1.433   3.821  1.00  0.00     0.145 HD
ENDBRANCH   8  26
BRANCH  12  29
HETATM   29  O   UNL     1      -8.998   1.781   3.893  1.00  0.00    -0.348 OA
BRANCH  29  30
HETATM   30  C   UNL     1      -9.226   0.494   4.476  1.00  0.00     0.203 C 
BRANCH  30  31
HETATM   31  C   UNL     1     -10.668   0.464   4.998  1.00  0.00     0.261 C 
BRANCH  31  32
HETATM   32  N   UNL     1     -11.678   0.903   3.935  1.00  0.00    -0.070 N 
HETATM   33  H   UNL     1     -11.316   1.817   3.615  1.00  0.00     0.279 HD
BRANCH  32  34
HETATM   34  C   UNL     1     -11.717   0.037   2.692  1.00  0.00     0.230 C 
HETATM   35  C   UNL     1     -12.183  -1.379   2.973  1.00  0.00     0.034 C 
ENDBRANCH  32  34
BRANCH  32  36
HETATM   36  C   UNL     1     -13.027   1.187   4.572  1.00  0.00     0.230 C 
HETATM   37  C   UNL     1     -13.989   1.840   3.598  1.00  0.00     0.034 C 
ENDBRANCH  32  36
ENDBRANCH  31  32
ENDBRANCH  30  31
ENDBRANCH  29  30
ENDBRANCH  12  29
TORSDOF 13
