REMARK  6 active torsions:
REMARK  status: ('A' for Active; 'I' for Inactive)
REMARK    1  A    between atoms: C_7  and  C_8 
REMARK    2  A    between atoms: C_12  and  S_13 
REMARK    3  A    between atoms: S_13  and  C_14 
REMARK    4  A    between atoms: C_14  and  C_15 
REMARK       I    between atoms: C_15  and  N_16 
REMARK    5  A    between atoms: N_16  and  C_17 
REMARK    6  A    between atoms: C_25  and  C_26 
REMARK       I    between atoms: C_26  and  N_27 
ROOT
HETATM    1  C   UNL     1       8.675  -0.982  -0.698  1.00  0.00     0.232 C 
HETATM    2  N   UNL     1       8.349  -2.324  -0.698  1.00  0.00    -0.320 N 
HETATM    3  O   UNL     1       7.881  -0.044  -0.627  1.00  0.00    -0.272 OA
HETATM    4  H   UNL     1       9.129  -2.974  -0.726  1.00  0.00     0.169 HD
ENDROOT
BRANCH   1   5
HETATM    5  C   UNL     1      10.170  -0.664  -0.716  1.00  0.00     0.185 C 
BRANCH   5   6
HETATM    6  S   UNL     1      11.300  -2.074  -0.932  1.00  0.00    -0.081 SA
BRANCH   6   7
HETATM    7  C   UNL     1      11.031  -2.453  -2.587  1.00  0.00     0.185 A 
HETATM    8  N   UNL     1      11.883  -3.227  -3.303  1.00  0.00    -0.253 N 
HETATM    9  N   UNL     1      11.395  -3.461  -4.530  1.00  0.00    -0.152 NA
HETATM   10  H   UNL     1      12.766  -3.636  -3.022  1.00  0.00     0.191 HD
HETATM   11  C   UNL     1      10.244  -2.769  -4.521  1.00  0.00     0.183 A 
HETATM   12  N   UNL     1       9.993  -2.141  -3.314  1.00  0.00    -0.201 NA
BRANCH  11  13
HETATM   13  C   UNL     1       9.267  -2.732  -5.609  1.00  0.00     0.035 A 
HETATM   14  C   UNL     1       9.580  -2.915  -6.967  1.00  0.00     0.049 A 
HETATM   15  C   UNL     1       8.569  -2.889  -7.940  1.00  0.00     0.048 A 
HETATM   16 CL   UNL     1      11.192  -3.130  -7.565  1.00  0.00    -0.083 Cl
HETATM   17  C   UNL     1       7.246  -2.670  -7.570  1.00  0.00     0.035 A 
HETATM   18  C   UNL     1       6.914  -2.470  -6.236  1.00  0.00     0.025 A 
HETATM   19 CL   UNL     1       6.015  -2.638  -8.771  1.00  0.00    -0.084 Cl
HETATM   20  C   UNL     1       7.918  -2.500  -5.264  1.00  0.00     0.019 A 
ENDBRANCH  11  13
ENDBRANCH   6   7
ENDBRANCH   5   6
ENDBRANCH   1   5
BRANCH   2  21
HETATM   21  C   UNL     1       7.095  -2.899  -0.853  1.00  0.00     0.093 A 
HETATM   22  S   UNL     1       5.713  -1.941  -1.095  1.00  0.00    -0.075 SA
HETATM   23  C   UNL     1       4.724  -3.295  -1.329  1.00  0.00    -0.008 A 
HETATM   24  C   UNL     1       5.420  -4.483  -1.227  1.00  0.00    -0.026 A 
HETATM   25  C   UNL     1       3.266  -3.164  -1.645  1.00  0.00     0.047 C 
HETATM   26  C   UNL     1       4.735  -5.812  -1.398  1.00  0.00     0.041 C 
HETATM   27  C   UNL     1       6.808  -4.260  -0.884  1.00  0.00     0.072 A 
HETATM   28  C   UNL     1       3.347  -5.668  -2.045  1.00  0.00     0.005 C 
HETATM   29  C   UNL     1       2.551  -4.507  -1.436  1.00  0.00     0.005 C 
BRANCH  27  30
HETATM   30  C   UNL     1       7.784  -5.321  -0.636  1.00  0.00     0.252 C 
HETATM   31  N   UNL     1       8.752  -5.029   0.290  1.00  0.00    -0.366 N 
HETATM   32  H   UNL     1       8.548  -4.326   0.990  1.00  0.00     0.159 HD
HETATM   33  H   UNL     1       9.277  -5.837   0.603  1.00  0.00     0.159 HD
HETATM   34  O   UNL     1       7.742  -6.432  -1.150  1.00  0.00    -0.268 OA
ENDBRANCH  27  30
ENDBRANCH   2  21
TORSDOF 6
