REMARK  7 active torsions:
REMARK  status: ('A' for Active; 'I' for Inactive)
REMARK    1  A    between atoms: C_3  and  N_4 
REMARK       I    between atoms: N_4  and  C_5 
REMARK    2  A    between atoms: C_5  and  C_6 
REMARK    3  A    between atoms: C_7  and  C_8 
REMARK    4  A    between atoms: C_20  and  C_21 
REMARK    5  A    between atoms: C_21  and  C_22 
REMARK    6  A    between atoms: C_22  and  C_23 
REMARK    7  A    between atoms: C_23  and  O_24 
ROOT
HETATM    1  C   UNL     1       4.723   3.545  -0.290  1.00  0.00     0.062 A 
HETATM    2  C   UNL     1       5.427   4.845  -0.669  1.00  0.00     0.202 A 
HETATM    3  N   UNL     1       6.807   4.889  -0.173  1.00  0.00    -0.083 N 
HETATM    4  C   UNL     1       7.378   3.907   0.585  1.00  0.00     0.726 A 
HETATM    5  N   UNL     1       6.661   2.812   0.887  1.00  0.00    -0.192 N 
HETATM    6  N   UNL     1       7.622   5.960  -0.287  1.00  0.00    -0.140 NA
HETATM    7  C   UNL     1       8.712   5.512   0.356  1.00  0.00     0.166 A 
HETATM    8  N   UNL     1       8.595   4.258   0.909  1.00  0.00    -0.046 NA
HETATM    9  C   UNL     1       5.354   2.605   0.463  1.00  0.00     0.037 A 
HETATM   10  C   UNL     1       4.726   1.309   0.919  1.00  0.00     0.070 C 
HETATM   11  H   UNL     1       7.098   2.082   1.444  1.00  0.00     0.184 HD
ENDROOT
BRANCH   1  12
HETATM   12  C   UNL     1       3.366   3.259  -0.855  1.00  0.00     0.256 C 
HETATM   13  N   UNL     1       2.517   4.345  -0.933  1.00  0.00    -0.323 N 
HETATM   14  H   UNL     1       2.917   5.268  -0.869  1.00  0.00     0.169 HD
HETATM   15  O   UNL     1       3.125   2.137  -1.288  1.00  0.00    -0.267 OA
BRANCH  13  16
HETATM   16  C   UNL     1       1.224   4.308  -1.508  1.00  0.00     0.041 A 
HETATM   17  C   UNL     1       0.276   3.292  -1.291  1.00  0.00    -0.035 A 
HETATM   18  C   UNL     1       0.455   2.163  -0.314  1.00  0.00     0.050 C 
HETATM   19  C   UNL     1      -0.946   3.346  -1.988  1.00  0.00     0.009 A 
HETATM   20  C   UNL     1      -1.249   4.410  -2.837  1.00  0.00     0.001 A 
HETATM   21  C   UNL     1      -0.338   5.447  -2.992  1.00  0.00     0.002 A 
HETATM   22  C   UNL     1       0.885   5.403  -2.322  1.00  0.00     0.030 A 
ENDBRANCH  13  16
ENDBRANCH   1  12
BRANCH   2  23
HETATM   23  C   UNL     1       5.398   5.157  -2.164  1.00  0.00    -0.026 A 
HETATM   24  C   UNL     1       4.984   6.429  -2.602  1.00  0.00     0.035 A 
HETATM   25  C   UNL     1       4.921   6.734  -3.967  1.00  0.00     0.056 A 
HETATM   26 CL   UNL     1       4.367   8.310  -4.408  1.00  0.00    -0.083 Cl
HETATM   27  C   UNL     1       5.286   5.773  -4.913  1.00  0.00     0.055 A 
HETATM   28 CL   UNL     1       5.227   6.076  -6.612  1.00  0.00    -0.083 Cl
HETATM   29  C   UNL     1       5.718   4.514  -4.488  1.00  0.00     0.026 A 
HETATM   30  C   UNL     1       5.777   4.207  -3.125  1.00  0.00     0.011 A 
ENDBRANCH   2  23
BRANCH   7  31
HETATM   31  C   UNL     1       9.951   6.316   0.504  1.00  0.00     0.085 C 
BRANCH  31  32
HETATM   32  C   UNL     1       9.949   7.203   1.747  1.00  0.00     0.034 C 
BRANCH  32  33
HETATM   33  C   UNL     1       9.899   6.411   3.049  1.00  0.00     0.164 C 
BRANCH  33  34
HETATM   34  O   UNL     1      10.026   7.301   4.153  1.00  0.00    -0.401 OA
HETATM   35  H   UNL     1      10.910   7.703   4.105  1.00  0.00     0.209 HD
ENDBRANCH  33  34
ENDBRANCH  32  33
ENDBRANCH  31  32
ENDBRANCH   7  31
TORSDOF 7
