REMARK  7 active torsions:
REMARK  status: ('A' for Active; 'I' for Inactive)
REMARK    1  A    between atoms: CG_4  and  CB_5 
REMARK    2  A    between atoms: CB_5  and  CA_6 
REMARK    3  A    between atoms: CA_6  and  N_7 
REMARK    4  A    between atoms: CA_6  and  C_8 
REMARK       I    between atoms: N_7  and  C_14 
REMARK    5  A    between atoms: C_8  and  O_9 
REMARK       I    between atoms: C_14  and  N_15 
REMARK    6  A    between atoms: N_15  and  C_16 
REMARK    7  A    between atoms: C_22  and  C_23 
ROOT
ATOM      1  N   PHE A   1       2.717  -2.167  -1.067  1.00  0.00    -0.336 N 
ATOM      2  H   PHE A   1       3.175  -2.712  -1.780  1.00  0.00     0.164 HD
HETATM    3  C   UNK A   0       1.360  -1.965  -1.170  1.00  0.00     0.321 C 
HETATM    4  N   UNK A   0       0.781  -2.868  -2.028  1.00  0.00    -0.309 N 
HETATM    5  O   UNK A   0       0.805  -1.070  -0.546  1.00  0.00    -0.247 OA
HETATM    6  H   UNK A   0       1.399  -3.558  -2.424  1.00  0.00     0.170 HD
ENDROOT
BRANCH   1   7
ATOM      7  CA  PHE A   1       3.563  -1.388  -0.151  1.00  0.00     0.113 C 
BRANCH   7   8
ATOM      8  CB  PHE A   1       4.911  -2.103   0.082  1.00  0.00     0.065 C 
BRANCH   8   9
ATOM      9  CG  PHE A   1       4.777  -3.494   0.663  1.00  0.00    -0.056 A 
ATOM     10  CD1 PHE A   1       5.259  -4.607  -0.039  1.00  0.00     0.007 A 
ATOM     11  CE1 PHE A   1       5.135  -5.891   0.497  1.00  0.00     0.001 A 
ATOM     12  CZ  PHE A   1       4.533  -6.074   1.740  1.00  0.00     0.000 A 
ATOM     13  CE2 PHE A   1       4.060  -4.975   2.452  1.00  0.00     0.001 A 
ATOM     14  CD2 PHE A   1       4.185  -3.690   1.919  1.00  0.00     0.007 A 
ENDBRANCH   8   9
ENDBRANCH   7   8
BRANCH   7  15
ATOM     15  C   PHE A   1       3.812   0.036  -0.693  1.00  0.00     0.189 C 
BRANCH  15  16
ATOM     16  O   PHE A   1       2.691   0.896  -0.509  1.00  0.00    -0.399 OA
ATOM     17  H   PHE A   1       1.876   0.348  -0.535  1.00  0.00     0.209 HD
ENDBRANCH  15  16
ENDBRANCH   7  15
ENDBRANCH   1   7
BRANCH   4  18
HETATM   18  C   UNK A   0      -0.588  -3.001  -2.347  1.00  0.00     0.038 A 
HETATM   19  C   UNK A   0      -1.595  -2.199  -1.796  1.00  0.00     0.063 A 
HETATM   20  C   UNK A   0      -2.932  -2.439  -2.155  1.00  0.00     0.087 A 
HETATM   21  C   UNK A   0      -3.227  -3.453  -3.058  1.00  0.00     0.063 A 
HETATM   22  N   UNK A   0      -4.081  -1.811  -1.736  1.00  0.00    -0.228 NA
HETATM   23  N   UNK A   0      -4.592  -3.418  -3.176  1.00  0.00    -0.338 N 
HETATM   24  C   UNK A   0      -2.254  -4.262  -3.640  1.00  0.00     0.034 A 
HETATM   25  H   UNK A   0      -5.159  -4.023  -3.754  1.00  0.00     0.167 HD
HETATM   26  C   UNK A   0      -5.072  -2.424  -2.359  1.00  0.00     0.170 A 
HETATM   27  C   UNK A   0      -0.928  -4.015  -3.259  1.00  0.00     0.032 A 
BRANCH  26  28
HETATM   28  C   UNK A   0      -6.529  -2.158  -2.254  1.00  0.00     0.422 C 
HETATM   29  F   UNK A   0      -7.054  -1.877  -3.479  1.00  0.00    -0.206 F 
HETATM   30  F   UNK A   0      -7.189  -3.270  -1.822  1.00  0.00    -0.206 F 
ENDBRANCH  26  28
ENDBRANCH   4  18
TORSDOF 7
