REMARK  6 active torsions:
REMARK  status: ('A' for Active; 'I' for Inactive)
REMARK    1  A    between atoms: C_2  and  O_3 
REMARK    2  A    between atoms: C_2  and  C_10 
REMARK    3  A    between atoms: O_3  and  C_4 
REMARK       I    between atoms: C_10  and  N_11 
REMARK    4  A    between atoms: N_11  and  C_12 
REMARK    5  A    between atoms: N_13  and  C_14 
REMARK    6  A    between atoms: C_26  and  C_27 
ROOT
HETATM    1  C   UNL     1       0.766   1.945  -0.621  1.00  0.00     0.152 A 
HETATM    2  N   UNL     1       0.147   0.796  -1.089  1.00  0.00    -0.044 N 
HETATM    3  N   UNL     1      -1.206   0.941  -1.205  1.00  0.00    -0.150 NA
HETATM    4  C   UNL     1      -1.436   2.200  -0.805  1.00  0.00     0.099 A 
HETATM    5  C   UNL     1      -0.243   2.863  -0.439  1.00  0.00     0.086 A 
ENDROOT
BRANCH   1   6
HETATM    6  N   UNL     1       2.134   2.012  -0.410  1.00  0.00    -0.309 N 
HETATM    7  C   UNL     1       2.794   3.144   0.031  1.00  0.00     0.252 C 
HETATM    8  O   UNL     1       2.278   4.233   0.269  1.00  0.00    -0.270 OA
HETATM    9  H   UNL     1       2.698   1.187  -0.638  1.00  0.00     0.170 HD
BRANCH   7  10
HETATM   10  C   UNL     1       4.293   2.902   0.278  1.00  0.00     0.217 C 
HETATM   11  C   UNL     1       4.464   2.351   1.691  1.00  0.00     0.050 C 
BRANCH  10  12
HETATM   12  O   UNL     1       4.852   1.930  -0.610  1.00  0.00    -0.337 OA
BRANCH  12  13
HETATM   13  C   UNL     1       5.394   2.403  -1.773  1.00  0.00     0.070 A 
HETATM   14  C   UNL     1       6.429   1.628  -2.302  1.00  0.00     0.037 A 
HETATM   15  C   UNL     1       7.059   2.003  -3.489  1.00  0.00     0.003 A 
HETATM   16  C   UNL     1       6.643   3.149  -4.163  1.00  0.00     0.000 A 
HETATM   17  C   UNL     1       5.595   3.913  -3.651  1.00  0.00     0.003 A 
HETATM   18  C   UNL     1       4.968   3.541  -2.458  1.00  0.00     0.037 A 
ENDBRANCH  12  13
ENDBRANCH  10  12
ENDBRANCH   7  10
ENDBRANCH   1   6
BRANCH   2  19
HETATM   19  C   UNL     1       0.747  -0.435  -1.416  1.00  0.00     0.732 A 
HETATM   20  N   UNL     1       2.022  -0.645  -1.326  1.00  0.00    -0.067 NA
HETATM   21  C   UNL     1       2.457  -1.904  -1.675  1.00  0.00     0.065 A 
HETATM   22  C   UNL     1       1.646  -2.901  -2.077  1.00  0.00     0.036 A 
HETATM   23  C   UNL     1       3.950  -2.113  -1.559  1.00  0.00     0.060 C 
HETATM   24  C   UNL     1       2.113  -4.273  -2.462  1.00  0.00     0.046 C 
HETATM   25  C   UNL     1       0.189  -2.625  -2.155  1.00  0.00     0.268 A 
HETATM   26  C   UNL     1       3.629  -4.358  -2.650  1.00  0.00     0.005 C 
HETATM   27  C   UNL     1       4.364  -3.586  -1.561  1.00  0.00     0.006 C 
HETATM   28  O   UNL     1      -0.624  -3.478  -2.490  1.00  0.00    -0.267 OA
HETATM   29  N   UNL     1      -0.174  -1.358  -1.821  1.00  0.00    -0.152 N 
HETATM   30  H   UNL     1      -1.155  -1.102  -1.848  1.00  0.00     0.188 HD
ENDBRANCH   2  19
BRANCH   4  31
HETATM   31  C   UNL     1      -2.822   2.776  -0.764  1.00  0.00     0.035 A 
HETATM   32  S   UNL     1      -3.193   4.365  -0.254  1.00  0.00    -0.100 SA
HETATM   33  C   UNL     1      -4.867   4.129  -0.516  1.00  0.00     0.050 A 
HETATM   34  C   UNL     1      -5.142   2.864  -0.986  1.00  0.00     0.008 A 
HETATM   35  C   UNL     1      -3.958   2.081  -1.131  1.00  0.00     0.022 A 
ENDBRANCH   4  31
TORSDOF 6
