REMARK  6 active torsions:
REMARK  status: ('A' for Active; 'I' for Inactive)
REMARK    1  A    between atoms: C_2  and  O_3 
REMARK    2  A    between atoms: C_2  and  C_4 
REMARK    3  A    between atoms: C_7  and  N_8 
REMARK       I    between atoms: N_8  and  C_9 
REMARK    4  A    between atoms: C_9  and  C_10 
REMARK    5  A    between atoms: C_13  and  C_14 
REMARK    6  A    between atoms: C_19  and  C_20 
ROOT
HETATM    1  C   UNL     1       3.668  -3.409  -5.198  1.00  0.00     0.096 C 
HETATM    2  C   UNL     1       4.266  -3.428  -3.951  1.00  0.00     0.138 C 
HETATM    3  N   UNL     1       4.103  -4.711  -3.477  1.00  0.00    -0.240 N 
HETATM    4  C   UNL     1       4.545  -5.171  -2.173  1.00  0.00     0.221 C 
HETATM    5  C   UNL     1       5.512  -4.159  -1.535  1.00  0.00     0.068 C 
HETATM    6  C   UNL     1       5.010  -2.726  -1.749  1.00  0.00     0.143 C 
HETATM    7  N   UNL     1       4.895  -2.479  -3.199  1.00  0.00    -0.363 N 
HETATM    8  N   UNL     1       3.293  -5.460  -4.238  1.00  0.00    -0.181 NA
HETATM    9  C   UNL     1       3.058  -4.683  -5.299  1.00  0.00     0.160 C 
HETATM   10  H   UNL     1       4.650  -1.502  -3.378  1.00  0.00     0.162 HD
ENDROOT
BRANCH   1  11
HETATM   11  C   UNL     1       3.603  -2.351  -6.193  1.00  0.00     0.261 C 
HETATM   12  N   UNL     1       4.638  -1.439  -6.099  1.00  0.00    -0.323 N 
HETATM   13  H   UNL     1       5.353  -1.660  -5.416  1.00  0.00     0.169 HD
HETATM   14  O   UNL     1       2.714  -2.352  -7.035  1.00  0.00    -0.267 OA
BRANCH  12  15
HETATM   15  C   UNL     1       4.878  -0.325  -6.929  1.00  0.00     0.035 A 
HETATM   16  C   UNL     1       4.003   0.108  -7.926  1.00  0.00     0.030 A 
HETATM   17  C   UNL     1       4.325   1.210  -8.728  1.00  0.00     0.012 A 
HETATM   18  C   UNL     1       5.529   1.903  -8.552  1.00  0.00    -0.030 A 
HETATM   19  C   UNL     1       6.394   1.480  -7.534  1.00  0.00     0.012 A 
HETATM   20  C   UNL     1       6.072   0.378  -6.733  1.00  0.00     0.030 A 
BRANCH  18  21
HETATM   21  C   UNL     1       5.850   3.090  -9.433  1.00  0.00     0.147 C 
HETATM   22  C   UNL     1       5.288   4.384  -8.858  1.00  0.00     0.044 C 
BRANCH  21  23
HETATM   23  O   UNL     1       7.262   3.224  -9.587  1.00  0.00    -0.391 OA
HETATM   24  H   UNL     1       7.410   3.917 -10.252  1.00  0.00     0.210 HD
ENDBRANCH  21  23
ENDBRANCH  18  21
ENDBRANCH  12  15
ENDBRANCH   1  11
BRANCH   4  25
HETATM   25  C   UNL     1       5.216  -6.526  -2.258  1.00  0.00     0.409 C 
HETATM   26  F   UNL     1       6.285  -6.518  -3.086  1.00  0.00    -0.169 F 
HETATM   27  F   UNL     1       5.683  -6.879  -1.029  1.00  0.00    -0.169 F 
HETATM   28  F   UNL     1       4.388  -7.518  -2.642  1.00  0.00    -0.169 F 
ENDBRANCH   4  25
BRANCH   6  29
HETATM   29  C   UNL     1       5.911  -1.761  -1.049  1.00  0.00     0.075 A 
HETATM   30  O   UNL     1       5.488  -1.313   0.169  1.00  0.00    -0.325 OA
HETATM   31  C   UNL     1       6.445  -0.472   0.638  1.00  0.00     0.142 A 
HETATM   32  C   UNL     1       7.481  -0.373  -0.261  1.00  0.00     0.027 A 
HETATM   33  C   UNL     1       7.137  -1.205  -1.354  1.00  0.00     0.037 A 
ENDBRANCH   6  29
TORSDOF 6
