REMARK  9 active torsions:
REMARK  status: ('A' for Active; 'I' for Inactive)
REMARK    1  A    between atoms: N_5  and  C_6 
REMARK    2  A    between atoms: C_6  and  C_7 
REMARK    3  A    between atoms: C_7  and  O_8 
REMARK    4  A    between atoms: C_7  and  C_9 
REMARK    5  A    between atoms: C_9  and  O_10 
REMARK    6  A    between atoms: O_10  and  C_11 
REMARK    7  A    between atoms: N_23  and  C_24 
REMARK    8  A    between atoms: C_24  and  C_25 
REMARK    9  A    between atoms: C_25  and  N_26 
ROOT
HETATM    1  C   UNL     1      -0.499   8.406  -0.673  1.00  0.00     0.002 A 
HETATM    2  C   UNL     1      -1.075   7.959  -1.865  1.00  0.00     0.032 A 
HETATM    3  C   UNL     1      -0.916   6.624  -2.179  1.00  0.00     0.079 A 
HETATM    4  C   UNL     1      -0.217   5.727  -1.333  1.00  0.00     0.079 A 
HETATM    5  N   UNL     1      -0.249   4.461  -1.920  1.00  0.00    -0.179 N 
HETATM    6  C   UNL     1      -0.987   4.569  -3.129  1.00  0.00     0.681 A 
HETATM    7  N   UNL     1      -1.269   3.536  -3.950  1.00  0.00    -0.234 N 
HETATM    8  H   UNL     1      -1.858   3.609  -4.767  1.00  0.00     0.174 HD
HETATM    9  H   UNL     1      -0.889   2.613  -3.756  1.00  0.00     0.174 HD
HETATM   10  N   UNL     1      -1.398   5.895  -3.331  1.00  0.00    -0.180 N 
HETATM   11  C   UNL     1       0.347   6.169  -0.157  1.00  0.00     0.032 A 
HETATM   12  C   UNL     1       0.204   7.522   0.167  1.00  0.00     0.002 A 
ENDROOT
BRANCH   5  13
HETATM   13  C   UNL     1       0.152   3.262  -1.200  1.00  0.00     0.181 C 
BRANCH  13  14
HETATM   14  C   UNL     1      -0.921   2.747  -0.217  1.00  0.00     0.161 C 
BRANCH  14  15
HETATM   15  O   UNL     1      -0.368   1.632   0.485  1.00  0.00    -0.392 OA
HETATM   16  H   UNL     1      -1.044   1.322   1.120  1.00  0.00     0.210 HD
ENDBRANCH  14  15
BRANCH  14  17
HETATM   17  C   UNL     1      -2.188   2.289  -0.948  1.00  0.00     0.209 C 
BRANCH  17  18
HETATM   18  O   UNL     1      -3.181   1.899   0.002  1.00  0.00    -0.347 OA
BRANCH  18  19
HETATM   19  C   UNL     1      -4.014   0.890  -0.415  1.00  0.00     0.090 A 
HETATM   20  C   UNL     1      -4.695   0.808  -1.642  1.00  0.00     0.069 A 
HETATM   21 CL   UNL     1      -4.620   2.037  -2.862  1.00  0.00    -0.081 Cl
HETATM   22  C   UNL     1      -5.515  -0.292  -1.916  1.00  0.00     0.050 A 
HETATM   23  C   UNL     1      -5.676  -1.295  -0.963  1.00  0.00     0.035 A 
HETATM   24 CL   UNL     1      -6.680  -2.645  -1.311  1.00  0.00    -0.084 Cl
HETATM   25  C   UNL     1      -5.037  -1.205   0.269  1.00  0.00     0.026 A 
HETATM   26  C   UNL     1      -4.215  -0.110   0.545  1.00  0.00     0.040 A 
ENDBRANCH  18  19
ENDBRANCH  17  18
ENDBRANCH  14  17
ENDBRANCH  13  14
ENDBRANCH   5  13
BRANCH  10  27
HETATM   27  C   UNL     1      -2.291   6.441  -4.364  1.00  0.00     0.175 C 
BRANCH  27  28
HETATM   28  C   UNL     1      -1.546   7.276  -5.427  1.00  0.00     0.256 C 
BRANCH  28  29
HETATM   29  N   UNL     1      -2.445   7.977  -6.425  1.00  0.00    -0.066 N 
HETATM   30  H   UNL     1      -1.809   8.453  -7.084  1.00  0.00     0.280 HD
HETATM   31  C   UNL     1      -3.301   7.053  -7.296  1.00  0.00     0.261 C 
HETATM   32  C   UNL     1      -4.063   7.882  -8.337  1.00  0.00     0.195 C 
HETATM   33  O   UNL     1      -4.863   8.876  -7.691  1.00  0.00    -0.388 OA
HETATM   34  C   UNL     1      -4.067   9.814  -6.960  1.00  0.00     0.195 C 
HETATM   35  C   UNL     1      -3.305   9.103  -5.835  1.00  0.00     0.261 C 
ENDBRANCH  28  29
ENDBRANCH  27  28
ENDBRANCH  10  27
TORSDOF 9
