REMARK  7 active torsions:
REMARK  status: ('A' for Active; 'I' for Inactive)
REMARK    1  A    between atoms: C_7  and  C_8 
REMARK    2  A    between atoms: C_8  and  N_9 
REMARK    3  A    between atoms: C_13  and  C_14 
REMARK    4  A    between atoms: C_14  and  C_15 
REMARK    5  A    between atoms: C_15  and  C_16 
REMARK    6  A    between atoms: N_26  and  C_27 
REMARK    7  A    between atoms: C_27  and  C_28 
ROOT
HETATM    1  C   UNL     1       4.515  -5.476   3.228  1.00  0.00     0.123 C 
HETATM    2  N   UNL     1       5.259  -4.961   4.367  1.00  0.00    -0.324 N 
HETATM    3  C   UNL     1       4.502  -4.171   5.202  1.00  0.00     0.326 C 
HETATM    4  O   UNL     1       4.910  -3.724   6.257  1.00  0.00    -0.247 OA
HETATM    5  N   UNL     1       3.298  -3.966   4.609  1.00  0.00    -0.268 N 
HETATM    6  C   UNL     1       3.247  -4.612   3.410  1.00  0.00     0.257 C 
HETATM    7  O   UNL     1       2.341  -4.531   2.590  1.00  0.00    -0.270 OA
HETATM    8  H   UNL     1       6.171  -5.284   4.675  1.00  0.00     0.165 HD
ENDROOT
BRANCH   1   9
HETATM    9  C   UNL     1       5.310  -5.205   1.907  1.00  0.00     0.027 C 
HETATM   10  C   UNL     1       5.801  -3.754   1.724  1.00  0.00     0.035 C 
HETATM   11  C   UNL     1       4.744  -2.788   1.211  1.00  0.00     0.235 C 
HETATM   12  N   UNL     1       4.151  -3.280  -0.083  1.00  0.00    -0.067 N 
HETATM   13  H   UNL     1       4.883  -3.192  -0.797  1.00  0.00     0.280 HD
HETATM   14  C   UNL     1       3.679  -4.708  -0.071  1.00  0.00     0.235 C 
HETATM   15  C   UNL     1       4.676  -5.654   0.580  1.00  0.00     0.035 C 
BRANCH  12  16
HETATM   16  C   UNL     1       3.004  -2.391  -0.554  1.00  0.00     0.277 C 
BRANCH  16  17
HETATM   17  C   UNL     1       3.357  -0.958  -0.677  1.00  0.00     0.011 A 
HETATM   18  C   UNL     1       4.132  -0.313  -1.632  1.00  0.00     0.035 A 
HETATM   19  C   UNL     1       4.826  -0.815  -2.846  1.00  0.00     0.070 C 
HETATM   20  N   UNL     1       4.140   1.015  -1.266  1.00  0.00    -0.278 N 
HETATM   21  C   UNL     1       4.774   2.125  -1.943  1.00  0.00     0.179 C 
HETATM   22  N   UNL     1       3.439   1.256  -0.147  1.00  0.00    -0.185 NA
HETATM   23  C   UNL     1       2.937   0.074   0.191  1.00  0.00     0.149 A 
ENDBRANCH  16  17
ENDBRANCH  12  16
ENDBRANCH   1   9
BRANCH   1  24
HETATM   24  C   UNL     1       4.063  -6.950   3.475  1.00  0.00     0.082 C 
BRANCH  24  25
HETATM   25  C   UNL     1       5.155  -7.973   3.736  1.00  0.00    -0.034 A 
HETATM   26  C   UNL     1       5.522  -8.981   2.825  1.00  0.00     0.040 A 
HETATM   27 CL   UNL     1       4.743  -9.188   1.299  1.00  0.00    -0.084 Cl
HETATM   28  C   UNL     1       6.527  -9.903   3.142  1.00  0.00     0.024 A 
HETATM   29  C   UNL     1       7.175  -9.847   4.373  1.00  0.00     0.002 A 
HETATM   30  C   UNL     1       6.806  -8.880   5.300  1.00  0.00     0.001 A 
HETATM   31  C   UNL     1       5.800  -7.963   4.989  1.00  0.00     0.009 A 
ENDBRANCH  24  25
ENDBRANCH   1  24
BRANCH   5  32
HETATM   32  C   UNL     1       2.255  -3.119   5.145  1.00  0.00     0.141 C 
BRANCH  32  33
HETATM   33  C   UNL     1       1.117  -3.959   5.640  1.00  0.00     0.004 A 
HETATM   34  C   UNL     1       1.233  -4.726   6.933  1.00  0.00     0.007 A 
HETATM   35  C   UNL     1       0.323  -3.530   6.848  1.00  0.00     0.007 A 
ENDBRANCH  32  33
ENDBRANCH   5  32
TORSDOF 7
