REMARK  6 active torsions:
REMARK  status: ('A' for Active; 'I' for Inactive)
REMARK    1  A    between atoms: O_2  and  C_3 
REMARK    2  A    between atoms: C_3  and  C_4 
REMARK    3  A    between atoms: C_4  and  N_5 
REMARK       I    between atoms: N_5  and  C_6 
REMARK    4  A    between atoms: C_6  and  C_7 
REMARK    5  A    between atoms: C_12  and  C_13 
REMARK    6  A    between atoms: C_21  and  C_22 
ROOT
HETATM    1  C   UNL     1       7.403  -1.552  -0.560  1.00  0.00     0.170 A 
HETATM    2  N   UNL     1       7.004  -0.277  -0.793  1.00  0.00    -0.163 NA
HETATM    3  N   UNL     1       8.043   0.469  -0.386  1.00  0.00    -0.238 N 
HETATM    4  C   UNL     1       9.039  -0.257   0.213  1.00  0.00     0.145 A 
HETATM    5  N   UNL     1      10.110   0.358   0.780  1.00  0.00    -0.365 N 
HETATM    6  C   UNL     1      10.029   1.780   1.098  1.00  0.00     0.118 C 
HETATM    7  C   UNL     1       9.384   2.517  -0.082  1.00  0.00     0.066 C 
HETATM    8  C   UNL     1       7.998   1.923  -0.401  1.00  0.00     0.221 C 
HETATM    9  C   UNL     1       8.676  -1.577   0.075  1.00  0.00     0.115 A 
HETATM   10 CL   UNL     1       9.557  -2.929   0.601  1.00  0.00    -0.077 Cl
HETATM   11  H   UNL     1      10.715  -0.188   1.397  1.00  0.00     0.162 HD
ENDROOT
BRANCH   1  12
HETATM   12  C   UNL     1       6.551  -2.692  -0.935  1.00  0.00     0.273 C 
HETATM   13  N   UNL     1       5.339  -2.313  -1.472  1.00  0.00    -0.353 N 
HETATM   14  H   UNL     1       5.240  -1.322  -1.685  1.00  0.00     0.162 HD
HETATM   15  O   UNL     1       6.881  -3.865  -0.795  1.00  0.00    -0.266 OA
BRANCH  13  16
HETATM   16  C   UNL     1       4.441  -3.251  -2.114  1.00  0.00     0.149 C 
BRANCH  16  17
HETATM   17  C   UNL     1       2.993  -2.770  -2.055  1.00  0.00     0.186 C 
BRANCH  17  18
HETATM   18  O   UNL     1       2.872  -1.548  -2.790  1.00  0.00    -0.394 OA
HETATM   19  C   UNL     1       1.540  -1.052  -2.761  1.00  0.00     0.201 C 
ENDBRANCH  17  18
ENDBRANCH  16  17
ENDBRANCH  13  16
ENDBRANCH   1  12
BRANCH   8  20
HETATM   20  C   UNL     1       7.508   2.461  -1.728  1.00  0.00     0.409 C 
HETATM   21  F   UNL     1       8.279   2.063  -2.764  1.00  0.00    -0.169 F 
HETATM   22  F   UNL     1       6.228   2.129  -2.000  1.00  0.00    -0.169 F 
HETATM   23  F   UNL     1       7.549   3.821  -1.711  1.00  0.00    -0.169 F 
ENDBRANCH   8  20
BRANCH   6  24
HETATM   24  C   UNL     1      11.408   2.335   1.401  1.00  0.00    -0.035 A 
HETATM   25  C   UNL     1      12.529   1.985   0.628  1.00  0.00     0.011 A 
HETATM   26  C   UNL     1      13.787   2.523   0.910  1.00  0.00     0.024 A 
HETATM   27  C   UNL     1      13.935   3.423   1.961  1.00  0.00     0.034 A 
HETATM   28 CL   UNL     1      15.483   4.090   2.307  1.00  0.00    -0.084 Cl
HETATM   29  C   UNL     1      12.835   3.791   2.732  1.00  0.00     0.024 A 
HETATM   30  C   UNL     1      11.577   3.250   2.453  1.00  0.00     0.011 A 
ENDBRANCH   6  24
TORSDOF 6
