REMARK  3 active torsions:
REMARK  status: ('A' for Active; 'I' for Inactive)
REMARK    1  A    between atoms: C_9  and  C_10 
REMARK       I    between atoms: C_10  and  N_11 
REMARK    2  A    between atoms: N_11  and  C_12 
REMARK    3  A    between atoms: C_12  and  C_13 
ROOT
HETATM    1  C   UNL     1       7.696   4.015   2.354  1.00  0.00     0.273 C 
HETATM    2  N   UNL     1       8.014   3.453   1.137  1.00  0.00    -0.347 N 
HETATM    3  O   UNL     1       7.440   5.207   2.501  1.00  0.00    -0.266 OA
HETATM    4  H   UNL     1       8.257   2.467   1.174  1.00  0.00     0.163 HD
ENDROOT
BRANCH   2   5
HETATM    5  C   UNL     1       8.244   4.238  -0.056  1.00  0.00     0.114 C 
HETATM    6  C   UNL     1       9.593   4.960   0.005  1.00  0.00     0.037 C 
BRANCH   5   7
HETATM    7  C   UNL     1       8.156   3.376  -1.304  1.00  0.00    -0.034 A 
HETATM    8  C   UNL     1       7.313   3.761  -2.361  1.00  0.00     0.041 A 
HETATM    9  C   UNL     1       7.251   3.000  -3.531  1.00  0.00     0.069 A 
HETATM   10  C   UNL     1       8.020   1.844  -3.662  1.00  0.00     0.096 A 
HETATM   11  N   UNL     1       6.437   3.425  -4.580  1.00  0.00    -0.323 N 
HETATM   12  O   UNL     1       8.045   1.065  -4.784  1.00  0.00    -0.340 OA
HETATM   13  C   UNL     1       8.863   1.455  -2.624  1.00  0.00     0.040 A 
HETATM   14  C   UNL     1       7.039   1.356  -5.742  1.00  0.00     0.278 C 
HETATM   15  C   UNL     1       6.315   2.702  -5.732  1.00  0.00     0.246 C 
HETATM   16  O   UNL     1       5.623   3.099  -6.666  1.00  0.00    -0.271 OA
HETATM   17  C   UNL     1       8.934   2.215  -1.455  1.00  0.00     0.012 A 
HETATM   18  H   UNL     1       5.926   4.295  -4.528  1.00  0.00     0.169 HD
ENDBRANCH   5   7
ENDBRANCH   2   5
BRANCH   1  19
HETATM   19  C   UNL     1       7.723   3.044   3.459  1.00  0.00     0.157 A 
HETATM   20  C   UNL     1       7.463   3.292   4.840  1.00  0.00     0.029 A 
HETATM   21  C   UNL     1       7.103   4.408   5.621  1.00  0.00     0.023 A 
HETATM   22  C   UNL     1       7.643   2.066   5.467  1.00  0.00     0.063 A 
HETATM   23  C   UNL     1       6.939   4.258   7.009  1.00  0.00    -0.061 A 
HETATM   24  C   UNL     1       6.557   5.433   7.862  1.00  0.00     0.048 C 
HETATM   25  C   UNL     1       7.132   3.004   7.601  1.00  0.00     0.009 A 
HETATM   26  C   UNL     1       7.488   1.882   6.844  1.00  0.00     0.032 A 
HETATM   27  N   UNL     1       7.980   1.195   4.469  1.00  0.00    -0.277 N 
HETATM   28  H   UNL     1       8.183   0.207   4.562  1.00  0.00     0.189 HD
HETATM   29  N   UNL     1       8.048   1.748   3.245  1.00  0.00    -0.168 NA
ENDBRANCH   1  19
TORSDOF 3
