REMARK  10 active torsions:
REMARK  status: ('A' for Active; 'I' for Inactive)
REMARK    1  A    between atoms: C_8  and  N_9 
REMARK    2  A    between atoms: C_10  and  S_11 
REMARK    3  A    between atoms: S_11  and  C_12 
REMARK    4  A    between atoms: C_12  and  C_13 
REMARK       I    between atoms: C_13  and  N_14 
REMARK    5  A    between atoms: N_14  and  C_15 
REMARK    6  A    between atoms: C_15  and  C_16 
REMARK    7  A    between atoms: C_16  and  C_17 
REMARK    8  A    between atoms: C_20  and  S_21 
REMARK    9  A    between atoms: S_21  and  N_22 
REMARK   10  A    between atoms: C_31  and  N_32 
ROOT
HETATM    1  N   UNL     1       2.504  -2.290  -0.777  1.00  0.00    -0.275 N 
HETATM    2  C   UNL     1       1.741  -2.270  -1.908  1.00  0.00     0.177 A 
HETATM    3  N   UNL     1       1.160  -3.353  -2.470  1.00  0.00    -0.204 NA
HETATM    4  C   UNL     1       1.409  -4.467  -1.783  1.00  0.00     0.162 A 
HETATM    5  C   UNL     1       2.165  -4.582  -0.636  1.00  0.00     0.081 A 
HETATM    6  C   UNL     1       2.734  -3.431  -0.066  1.00  0.00     0.124 A 
HETATM    7  N   UNL     1       0.972  -5.721  -2.099  1.00  0.00    -0.260 N 
HETATM    8  H   UNL     1       0.385  -6.000  -2.878  1.00  0.00     0.191 HD
HETATM    9  N   UNL     1       1.421  -6.662  -1.256  1.00  0.00    -0.177 NA
HETATM   10  C   UNL     1       2.156  -5.985  -0.365  1.00  0.00     0.068 A 
HETATM   11  C   UNL     1       2.852  -6.732   0.715  1.00  0.00     0.073 C 
ENDROOT
BRANCH   2  12
HETATM   12  S   UNL     1       1.551  -0.764  -2.884  1.00  0.00    -0.082 SA
BRANCH  12  13
HETATM   13  C   UNL     1      -0.184  -0.944  -3.421  1.00  0.00     0.185 C 
BRANCH  13  14
HETATM   14  C   UNL     1      -1.143  -0.896  -2.239  1.00  0.00     0.227 C 
HETATM   15  N   UNL     1      -2.357  -0.309  -2.532  1.00  0.00    -0.360 N 
HETATM   16  H   UNL     1      -2.605  -0.164  -3.504  1.00  0.00     0.162 HD
HETATM   17  O   UNL     1      -0.859  -1.347  -1.131  1.00  0.00    -0.273 OA
BRANCH  15  18
HETATM   18  C   UNL     1      -3.434  -0.251  -1.553  1.00  0.00     0.127 C 
BRANCH  18  19
HETATM   19  C   UNL     1      -4.542   0.708  -1.992  1.00  0.00     0.058 C 
BRANCH  19  20
HETATM   20  C   UNL     1      -5.690   0.747  -1.016  1.00  0.00    -0.057 A 
HETATM   21  C   UNL     1      -5.751   1.743  -0.029  1.00  0.00     0.009 A 
HETATM   22  C   UNL     1      -6.811   1.775   0.880  1.00  0.00     0.025 A 
HETATM   23  C   UNL     1      -7.817   0.810   0.800  1.00  0.00     0.074 A 
HETATM   24  C   UNL     1      -7.763  -0.196  -0.167  1.00  0.00     0.025 A 
HETATM   25  C   UNL     1      -6.702  -0.223  -1.074  1.00  0.00     0.009 A 
BRANCH  23  26
HETATM   26  S   UNL     1      -9.136   0.818   1.981  1.00  0.00     0.239 S 
HETATM   27  O   UNL     1      -9.697  -0.509   2.067  1.00  0.00    -0.206 OA
HETATM   28  O   UNL     1      -8.718   1.560   3.147  1.00  0.00    -0.206 OA
BRANCH  26  29
HETATM   29  N   UNL     1     -10.288   1.765   1.213  1.00  0.00    -0.225 NA
HETATM   30  H   UNL     1     -11.128   1.213   1.033  1.00  0.00     0.136 HD
HETATM   31  H   UNL     1     -10.467   2.608   1.760  1.00  0.00     0.136 HD
ENDBRANCH  26  29
ENDBRANCH  23  26
ENDBRANCH  19  20
ENDBRANCH  18  19
ENDBRANCH  15  18
ENDBRANCH  13  14
ENDBRANCH  12  13
ENDBRANCH   2  12
BRANCH   1  32
HETATM   32  C   UNL     1       3.193  -1.093  -0.369  1.00  0.00     0.051 A 
HETATM   33  C   UNL     1       2.580  -0.167   0.491  1.00  0.00    -0.013 A 
HETATM   34  C   UNL     1       1.186  -0.347   1.022  1.00  0.00     0.052 C 
HETATM   35  C   UNL     1       3.329   0.978   0.814  1.00  0.00     0.042 A 
HETATM   36 CL   UNL     1       2.680   2.231   1.811  1.00  0.00    -0.084 Cl
HETATM   37  C   UNL     1       4.637   1.150   0.339  1.00  0.00     0.024 A 
HETATM   38  C   UNL     1       5.228   0.189  -0.480  1.00  0.00     0.004 A 
HETATM   39  C   UNL     1       4.505  -0.941  -0.842  1.00  0.00     0.031 A 
ENDBRANCH   1  32
BRANCH   6  40
HETATM   40  N   UNL     1       3.504  -3.461   1.092  1.00  0.00    -0.384 N 
HETATM   41  H   UNL     1       3.469  -4.302   1.660  1.00  0.00     0.157 HD
HETATM   42  H   UNL     1       3.670  -2.616   1.627  1.00  0.00     0.157 HD
ENDBRANCH   6  40
TORSDOF 10
