REMARK  6 active torsions:
REMARK  status: ('A' for Active; 'I' for Inactive)
REMARK    1  A    between atoms: C_2  and  N_3 
REMARK    2  A    between atoms: C_2  and  C_18 
REMARK    3  A    between atoms: N_3  and  C_6 
REMARK    4  A    between atoms: C_6  and  C_7 
REMARK    5  A    between atoms: C_10  and  N_11 
REMARK       I    between atoms: N_11  and  C_12 
REMARK    6  A    between atoms: C_12  and  O_13 
ROOT
HETATM    1  N   UNL     1       2.790   1.207   0.428  1.00  0.00    -0.061 N 
HETATM    2  H   UNL     1       2.669   1.192   1.447  1.00  0.00     0.278 HD
HETATM    3  H   UNL     1       3.803   1.165   0.243  1.00  0.00     0.278 HD
ENDROOT
BRANCH   1   4
HETATM    4  C   UNL     1       2.192  -0.021  -0.218  1.00  0.00     0.241 C 
HETATM    5  C   UNL     1       2.607  -1.222   0.628  1.00  0.00     0.047 C 
BRANCH   4   6
HETATM    6  C   UNL     1       2.683  -0.166  -1.635  1.00  0.00     0.106 A 
HETATM    7  S   UNL     1       1.770  -1.008  -2.810  1.00  0.00    -0.070 SA
HETATM    8  C   UNL     1       2.953  -0.622  -4.002  1.00  0.00     0.035 A 
HETATM    9  C   UNL     1       3.970   0.131  -3.408  1.00  0.00     0.075 A 
HETATM   10  C   UNL     1       2.977  -0.958  -5.364  1.00  0.00     0.021 A 
HETATM   11  N   UNL     1       3.801   0.392  -2.053  1.00  0.00    -0.243 NA
HETATM   12  C   UNL     1       5.048   0.564  -4.205  1.00  0.00     0.033 A 
HETATM   13  C   UNL     1       5.079   0.236  -5.565  1.00  0.00     0.002 A 
HETATM   14  C   UNL     1       4.056  -0.515  -6.134  1.00  0.00     0.002 A 
ENDBRANCH   4   6
ENDBRANCH   1   4
BRANCH   1  15
HETATM   15  C   UNL     1       2.301   2.511  -0.106  1.00  0.00     0.271 C 
BRANCH  15  16
HETATM   16  C   UNL     1       2.824   3.661   0.708  1.00  0.00    -0.033 A 
HETATM   17  C   UNL     1       4.197   3.940   0.756  1.00  0.00     0.011 A 
HETATM   18  C   UNL     1       4.688   4.995   1.537  1.00  0.00     0.030 A 
HETATM   19  C   UNL     1       3.820   5.800   2.275  1.00  0.00     0.036 A 
HETATM   20  C   UNL     1       2.447   5.537   2.202  1.00  0.00     0.030 A 
HETATM   21  C   UNL     1       1.952   4.477   1.435  1.00  0.00     0.011 A 
BRANCH  19  22
HETATM   22  N   UNL     1       4.213   6.880   3.082  1.00  0.00    -0.303 N 
HETATM   23  C   UNL     1       5.442   7.338   3.477  1.00  0.00     0.364 C 
HETATM   24  O   UNL     1       5.525   8.347   4.171  1.00  0.00    -0.238 OA
HETATM   25  H   UNL     1       3.480   7.450   3.486  1.00  0.00     0.171 HD
BRANCH  23  26
HETATM   26  O   UNL     1       6.502   6.590   3.087  1.00  0.00    -0.309 OA
HETATM   27  C   UNL     1       7.762   7.077   3.556  1.00  0.00     0.215 C 
ENDBRANCH  23  26
ENDBRANCH  19  22
ENDBRANCH  15  16
ENDBRANCH   1  15
TORSDOF 6
