REMARK  9 active torsions:
REMARK  status: ('A' for Active; 'I' for Inactive)
REMARK    1  A    between atoms: C_4  and  C_5 
REMARK    2  A    between atoms: C_5  and  N_6 
REMARK    3  A    between atoms: C_11  and  C_12 
REMARK       I    between atoms: C_12  and  N_13 
REMARK    4  A    between atoms: C_15  and  N_16 
REMARK       I    between atoms: N_16  and  C_17 
REMARK    5  A    between atoms: C_17  and  C_18 
REMARK    6  A    between atoms: C_18  and  C_19 
REMARK    7  A    between atoms: C_19  and  C_20 
REMARK    8  A    between atoms: C_20  and  S_21 
REMARK    9  A    between atoms: S_21  and  C_22 
ROOT
HETATM    1  N   UNL     1       3.326  -0.820  -0.378  1.00  0.00    -0.063 N 
HETATM    2  H   UNL     1       3.480  -1.550   0.324  1.00  0.00     0.280 HD
HETATM    3  C   UNL     1       3.185  -1.553  -1.711  1.00  0.00     0.282 C 
HETATM    4  C   UNL     1       3.401  -0.627  -2.857  1.00  0.00     0.018 C 
HETATM    5  C   UNL     1       3.958   0.634  -2.775  1.00  0.00    -0.023 C 
HETATM    6  C   UNL     1       3.896   1.324  -4.043  1.00  0.00     0.073 C 
HETATM    7  C   UNL     1       3.563   0.434  -5.056  1.00  0.00     0.093 C 
HETATM    8  S   UNL     1       3.024  -1.062  -4.448  1.00  0.00    -0.074 SA
HETATM    9  C   UNL     1       4.473   1.174  -1.468  1.00  0.00     0.068 C 
HETATM   10  C   UNL     1       4.566   0.073  -0.390  1.00  0.00     0.240 C 
ENDROOT
BRANCH   7  11
HETATM   11  N   UNL     1       3.584   0.677  -6.422  1.00  0.00    -0.320 N 
HETATM   12  C   UNL     1       3.679  -0.290  -7.415  1.00  0.00     0.222 C 
HETATM   13  O   UNL     1       3.786  -1.499  -7.247  1.00  0.00    -0.273 OA
HETATM   14  H   UNL     1       3.834   1.623  -6.695  1.00  0.00     0.169 HD
BRANCH  12  15
HETATM   15  C   UNL     1       3.630   0.329  -8.806  1.00  0.00     0.104 C 
BRANCH  15  16
HETATM   16  C   UNL     1       4.587  -0.324  -9.802  1.00  0.00     0.020 C 
BRANCH  16  17
HETATM   17  C   UNL     1       4.255  -1.739 -10.290  1.00  0.00     0.080 C 
BRANCH  17  18
HETATM   18  S   UNL     1       2.526  -2.070 -10.782  1.00  0.00    -0.130 SA
BRANCH  18  19
HETATM   19  C   UNL     1       2.185  -0.819 -12.008  1.00  0.00     0.000 A 
HETATM   20  C   UNL     1       3.129  -0.349 -12.927  1.00  0.00     0.021 A 
HETATM   21  C   UNL     1       2.783   0.645 -13.848  1.00  0.00     0.043 A 
HETATM   22  C   UNL     1       1.488   1.149 -13.864  1.00  0.00     0.116 A 
HETATM   23  F   UNL     1       1.160   2.102 -14.745  1.00  0.00    -0.206 F 
HETATM   24  C   UNL     1       0.529   0.673 -12.982  1.00  0.00     0.043 A 
HETATM   25  C   UNL     1       0.877  -0.312 -12.056  1.00  0.00     0.021 A 
ENDBRANCH  18  19
ENDBRANCH  17  18
ENDBRANCH  16  17
ENDBRANCH  15  16
ENDBRANCH  12  15
ENDBRANCH   7  11
BRANCH   6  26
HETATM   26  C   UNL     1       4.226   2.733  -4.237  1.00  0.00     0.252 C 
HETATM   27  N   UNL     1       3.564   3.367  -5.252  1.00  0.00    -0.366 N 
HETATM   28  H   UNL     1       2.662   3.018  -5.554  1.00  0.00     0.159 HD
HETATM   29  H   UNL     1       3.668   4.376  -5.257  1.00  0.00     0.159 HD
HETATM   30  O   UNL     1       4.978   3.347  -3.491  1.00  0.00    -0.268 OA
ENDBRANCH   6  26
BRANCH   1  31
HETATM   31  C   UNL     1       2.094  -0.062   0.063  1.00  0.00     0.273 C 
BRANCH  31  32
HETATM   32  C   UNL     1       0.828  -0.866   0.175  1.00  0.00    -0.033 A 
HETATM   33  C   UNL     1       0.760  -2.045   0.932  1.00  0.00     0.009 A 
HETATM   34  C   UNL     1      -0.443  -2.746   1.035  1.00  0.00     0.001 A 
HETATM   35  C   UNL     1      -1.590  -2.271   0.404  1.00  0.00     0.000 A 
HETATM   36  C   UNL     1      -1.541  -1.092  -0.334  1.00  0.00     0.001 A 
HETATM   37  C   UNL     1      -0.340  -0.394  -0.449  1.00  0.00     0.009 A 
ENDBRANCH  31  32
ENDBRANCH   1  31
TORSDOF 9
