REMARK  6 active torsions:
REMARK  status: ('A' for Active; 'I' for Inactive)
REMARK    1  A    between atoms: O_2  and  C_3 
REMARK    2  A    between atoms: C_6  and  C_7 
REMARK    3  A    between atoms: C_11  and  C_12 
REMARK       I    between atoms: C_12  and  N_13 
REMARK    4  A    between atoms: N_13  and  N_14 
REMARK       I    between atoms: N_14  and  C_15 
REMARK    5  A    between atoms: C_15  and  C_16 
REMARK    6  A    between atoms: C_16  and  C_17 
ROOT
HETATM    1  C   UNL     1       5.032  -8.279  -0.962  1.00  0.00     0.288 C 
HETATM    2  N   UNL     1       3.958  -8.814  -0.280  1.00  0.00    -0.262 N 
HETATM    3  O   UNL     1       5.814  -8.982  -1.600  1.00  0.00    -0.264 OA
HETATM    4  H   UNL     1       3.224  -8.227   0.111  1.00  0.00     0.190 HD
ENDROOT
BRANCH   1   5
HETATM    5  C   UNL     1       5.152  -6.849  -0.886  1.00  0.00     0.121 A 
HETATM    6  N   UNL     1       6.211  -6.176  -1.427  1.00  0.00    -0.272 N 
HETATM    7  N   UNL     1       6.157  -4.845  -1.268  1.00  0.00    -0.174 NA
HETATM    8  H   UNL     1       7.004  -6.579  -1.917  1.00  0.00     0.189 HD
HETATM    9  C   UNL     1       5.000  -4.626  -0.624  1.00  0.00     0.089 A 
HETATM   10  C   UNL     1       4.351  -5.862  -0.348  1.00  0.00     0.071 A 
BRANCH   9  11
HETATM   11  C   UNL     1       4.538  -3.276  -0.288  1.00  0.00    -0.005 A 
HETATM   12  C   UNL     1       3.183  -3.018  -0.045  1.00  0.00     0.016 A 
HETATM   13  C   UNL     1       2.754  -1.728   0.284  1.00  0.00     0.037 A 
HETATM   14  C   UNL     1       3.665  -0.675   0.381  1.00  0.00     0.068 A 
HETATM   15  C   UNL     1       5.014  -0.920   0.131  1.00  0.00     0.037 A 
HETATM   16  C   UNL     1       5.446  -2.211  -0.203  1.00  0.00     0.016 A 
BRANCH  14  17
HETATM   17  O   UNL     1       3.110   0.529   0.716  1.00  0.00    -0.356 OA
HETATM   18  C   UNL     1       4.005   1.618   0.899  1.00  0.00     0.210 C 
ENDBRANCH  14  17
ENDBRANCH   9  11
ENDBRANCH   1   5
BRANCH   2  19
HETATM   19  N   UNL     1       3.585 -10.142  -0.540  1.00  0.00    -0.267 N 
HETATM   20  C   UNL     1       2.231 -10.416  -0.538  1.00  0.00     0.240 C 
HETATM   21  O   UNL     1       1.399  -9.598  -0.141  1.00  0.00    -0.272 OA
HETATM   22  H   UNL     1       4.265 -10.718  -1.036  1.00  0.00     0.190 HD
BRANCH  20  23
HETATM   23  C   UNL     1       1.856 -11.793  -1.043  1.00  0.00     0.143 C 
BRANCH  23  24
HETATM   24  C   UNL     1       1.964 -12.897  -0.017  1.00  0.00    -0.049 A 
HETATM   25  C   UNL     1       1.676 -12.682   1.340  1.00  0.00     0.009 A 
HETATM   26  C   UNL     1       1.738 -13.736   2.256  1.00  0.00     0.024 A 
HETATM   27  C   UNL     1       2.068 -15.016   1.820  1.00  0.00     0.034 A 
HETATM   28 CL   UNL     1       2.134 -16.314   2.947  1.00  0.00    -0.084 Cl
HETATM   29  C   UNL     1       2.335 -15.252   0.475  1.00  0.00     0.024 A 
HETATM   30  C   UNL     1       2.279 -14.198  -0.440  1.00  0.00     0.009 A 
ENDBRANCH  23  24
ENDBRANCH  20  23
ENDBRANCH   2  19
TORSDOF 6
