REMARK  6 active torsions:
REMARK  status: ('A' for Active; 'I' for Inactive)
REMARK    1  A    between atoms: C_7  and  S_8 
REMARK    2  A    between atoms: S_8  and  C_9 
REMARK    3  A    between atoms: C_9  and  C_10 
REMARK    4  A    between atoms: C_18  and  C_19 
REMARK    5  A    between atoms: C_26  and  C_27 
REMARK    6  A    between atoms: C_27  and  O_28 
ROOT
HETATM    1  C   UNL     1       1.098   0.153   0.284  1.00  0.00     0.070 C 
HETATM    2  C   UNL     1       2.606   0.108   0.299  1.00  0.00     0.037 A 
HETATM    3  N   UNL     1       3.242   1.343   0.322  1.00  0.00    -0.192 N 
HETATM    4  C   UNL     1       4.579   1.488   0.323  1.00  0.00     0.726 A 
HETATM    5  N   UNL     1       5.377   0.380   0.268  1.00  0.00    -0.082 N 
HETATM    6  N   UNL     1       6.684   0.717   0.245  1.00  0.00    -0.128 NA
HETATM    7  C   UNL     1       6.601   2.049   0.370  1.00  0.00     0.226 A 
HETATM    8  N   UNL     1       5.326   2.558   0.389  1.00  0.00    -0.035 NA
HETATM    9  C   UNL     1       4.870  -1.003   0.255  1.00  0.00     0.204 A 
HETATM   10  C   UNL     1       3.345  -1.027   0.268  1.00  0.00     0.070 A 
HETATM   11  H   UNL     1       2.660   2.176   0.368  1.00  0.00     0.184 HD
ENDROOT
BRANCH   7  12
HETATM   12  S   UNL     1       7.987   3.088   0.539  1.00  0.00    -0.083 SA
BRANCH  12  13
HETATM   13  C   UNL     1       9.340   1.883   0.617  1.00  0.00     0.123 C 
BRANCH  13  14
HETATM   14  C   UNL     1      10.629   2.542   1.057  1.00  0.00    -0.027 A 
HETATM   15  C   UNL     1      11.078   2.524   2.388  1.00  0.00     0.041 A 
HETATM   16 CL   UNL     1      10.207   1.718   3.645  1.00  0.00    -0.084 Cl
HETATM   17  C   UNL     1      12.264   3.174   2.748  1.00  0.00     0.024 A 
HETATM   18  C   UNL     1      13.011   3.859   1.790  1.00  0.00     0.002 A 
HETATM   19  C   UNL     1      12.574   3.895   0.469  1.00  0.00     0.001 A 
HETATM   20  C   UNL     1      11.395   3.242   0.105  1.00  0.00     0.009 A 
ENDBRANCH  13  14
ENDBRANCH  12  13
ENDBRANCH   7  12
BRANCH   9  21
HETATM   21  C   UNL     1       5.486  -1.784   1.415  1.00  0.00    -0.006 A 
HETATM   22  C   UNL     1       6.311  -2.905   1.215  1.00  0.00     0.042 A 
HETATM   23 CL   UNL     1       6.694  -3.509  -0.358  1.00  0.00    -0.084 Cl
HETATM   24  C   UNL     1       6.857  -3.592   2.305  1.00  0.00     0.024 A 
HETATM   25  C   UNL     1       6.595  -3.173   3.608  1.00  0.00     0.002 A 
HETATM   26  C   UNL     1       5.783  -2.066   3.827  1.00  0.00     0.001 A 
HETATM   27  C   UNL     1       5.231  -1.379   2.744  1.00  0.00     0.011 A 
ENDBRANCH   9  21
BRANCH  10  28
HETATM   28  C   UNL     1       2.708  -2.357   0.299  1.00  0.00     0.293 C 
HETATM   29  O   UNL     1       1.824  -2.679   1.077  1.00  0.00    -0.259 OA
BRANCH  28  30
HETATM   30  O   UNL     1       3.256  -3.137  -0.662  1.00  0.00    -0.323 OA
HETATM   31  C   UNL     1       2.726  -4.464  -0.697  1.00  0.00     0.213 C 
ENDBRANCH  28  30
ENDBRANCH  10  28
TORSDOF 6
