REMARK  13 active torsions:
REMARK  status: ('A' for Active; 'I' for Inactive)
REMARK    1  A    between atoms: C_2  and  O_3 
REMARK    2  A    between atoms: O_3  and  C_4 
REMARK    3  A    between atoms: C_5  and  O_6 
REMARK    4  A    between atoms: C_9  and  C_10 
REMARK    5  A    between atoms: N_11  and  C_12 
REMARK    6  A    between atoms: C_12  and  C_13 
REMARK    7  A    between atoms: C_13  and  N_14 
REMARK    8  A    between atoms: C_20  and  O_21 
REMARK    9  A    between atoms: C_22  and  C_23 
REMARK   10  A    between atoms: C_23  and  C_24 
REMARK   11  A    between atoms: C_28  and  O_29 
REMARK   12  A    between atoms: O_29  and  C_30 
REMARK   13  A    between atoms: C_30  and  C_31 
ROOT
HETATM    1  C   UNL     1       6.906  -4.645  -1.315  1.00  0.00     0.161 A 
HETATM    2  N   UNL     1       6.246  -5.936  -1.149  1.00  0.00    -0.332 N 
HETATM    3  C   UNL     1       6.736  -6.596  -0.034  1.00  0.00     0.278 A 
HETATM    4  O   UNL     1       6.414  -7.700   0.366  1.00  0.00    -0.265 OA
HETATM    5  C   UNL     1       7.776  -5.746   0.579  1.00  0.00     0.146 A 
HETATM    6  C   UNL     1       7.897  -4.658  -0.192  1.00  0.00     0.059 A 
ENDROOT
BRANCH   6   7
HETATM    7  C   UNL     1       8.867  -3.563   0.052  1.00  0.00     0.194 C 
HETATM    8  O   UNL     1       9.267  -3.287   1.174  1.00  0.00    -0.287 OA
BRANCH   7   9
HETATM    9  C   UNL     1       9.275  -2.742  -1.121  1.00  0.00     0.021 A 
HETATM   10  C   UNL     1       9.162  -1.341  -1.095  1.00  0.00    -0.045 A 
HETATM   11  C   UNL     1       8.773  -0.584   0.143  1.00  0.00     0.049 C 
HETATM   12  C   UNL     1       9.444  -0.627  -2.271  1.00  0.00     0.044 A 
HETATM   13  C   UNL     1       9.811  -1.285  -3.446  1.00  0.00     0.069 A 
HETATM   14  C   UNL     1      10.002  -2.665  -3.439  1.00  0.00     0.038 A 
HETATM   15  C   UNL     1       9.745  -3.391  -2.275  1.00  0.00     0.019 A 
BRANCH  13  16
HETATM   16  O   UNL     1      10.009  -0.487  -4.536  1.00  0.00    -0.347 OA
BRANCH  16  17
HETATM   17  C   UNL     1       9.541  -1.034  -5.770  1.00  0.00     0.214 C 
BRANCH  17  18
HETATM   18  C   UNL     1       9.303   0.105  -6.730  1.00  0.00    -0.034 A 
HETATM   19  C   UNL     1      10.388   0.786  -7.299  1.00  0.00     0.009 A 
HETATM   20  C   UNL     1      10.174   1.853  -8.173  1.00  0.00     0.001 A 
HETATM   21  C   UNL     1       8.876   2.253  -8.482  1.00  0.00     0.000 A 
HETATM   22  C   UNL     1       7.789   1.589  -7.916  1.00  0.00     0.001 A 
HETATM   23  C   UNL     1       8.001   0.519  -7.044  1.00  0.00     0.009 A 
ENDBRANCH  17  18
ENDBRANCH  16  17
ENDBRANCH  13  16
ENDBRANCH   7   9
ENDBRANCH   6   7
BRANCH   1  24
HETATM   24  C   UNL     1       5.895  -3.517  -1.243  1.00  0.00    -0.028 A 
HETATM   25  C   UNL     1       5.135  -3.268  -0.087  1.00  0.00     0.012 A 
HETATM   26  C   UNL     1       4.191  -2.239  -0.062  1.00  0.00     0.040 A 
HETATM   27  C   UNL     1       4.000  -1.437  -1.188  1.00  0.00     0.099 A 
HETATM   28  C   UNL     1       4.771  -1.639  -2.336  1.00  0.00     0.102 A 
HETATM   29  C   UNL     1       5.701  -2.687  -2.358  1.00  0.00     0.049 A 
BRANCH  27  30
HETATM   30  O   UNL     1       3.024  -0.484  -1.154  1.00  0.00    -0.358 OA
HETATM   31  H   UNL     1       2.787  -0.288  -0.231  1.00  0.00     0.218 HD
ENDBRANCH  27  30
BRANCH  28  32
HETATM   32  O   UNL     1       4.712  -0.936  -3.508  1.00  0.00    -0.349 OA
BRANCH  32  33
HETATM   33  C   UNL     1       4.315   0.436  -3.409  1.00  0.00     0.171 C 
HETATM   34  C   UNL     1       4.867   1.173  -4.617  1.00  0.00     0.034 C 
ENDBRANCH  32  33
ENDBRANCH  28  32
ENDBRANCH   1  24
BRANCH   5  35
HETATM   35  O   UNL     1       8.495  -6.114   1.672  1.00  0.00    -0.355 OA
HETATM   36  H   UNL     1       8.170  -6.990   1.956  1.00  0.00     0.218 HD
ENDBRANCH   5  35
BRANCH   2  37
HETATM   37  C   UNL     1       5.714  -6.693  -2.283  1.00  0.00     0.155 C 
BRANCH  37  38
HETATM   38  C   UNL     1       4.347  -6.211  -2.787  1.00  0.00     0.254 C 
BRANCH  38  39
HETATM   39  N   UNL     1       3.345  -6.088  -1.657  1.00  0.00    -0.077 N 
HETATM   40  H   UNL     1       3.819  -5.559  -0.912  1.00  0.00     0.279 HD
HETATM   41  C   UNL     1       2.146  -5.282  -2.075  1.00  0.00     0.269 C 
HETATM   42  C   UNL     1       2.942  -7.410  -1.061  1.00  0.00     0.269 C 
ENDBRANCH  38  39
ENDBRANCH  37  38
ENDBRANCH   2  37
TORSDOF 13
