REMARK  9 active torsions:
REMARK  status: ('A' for Active; 'I' for Inactive)
REMARK    1  A    between atoms: C_2  and  C_3 
REMARK    2  A    between atoms: C_3  and  C_4 
REMARK    3  A    between atoms: C_3  and  C_23 
REMARK    4  A    between atoms: C_4  and  C_5 
REMARK    5  A    between atoms: C_4  and  C_17 
REMARK    6  A    between atoms: C_15  and  O_16 
REMARK    7  A    between atoms: C_23  and  N_24 
REMARK    8  A    between atoms: N_31  and  N_32 
REMARK       I    between atoms: N_32  and  C_33 
REMARK    9  A    between atoms: C_33  and  C_34 
ROOT
HETATM    1  C   UNL     1       5.982   6.231  -2.889  1.00  0.00     0.213 C 
HETATM    2  C   UNL     1       4.783   6.955  -2.298  1.00  0.00    -0.011 C 
HETATM    3  N   UNL     1       3.788   7.556  -1.808  1.00  0.00    -0.101 N 
ENDROOT
BRANCH   1   4
HETATM    4  C   UNL     1       5.735   4.736  -2.889  1.00  0.00     0.249 C 
HETATM    5  N   UNL     1       4.980   4.241  -1.832  1.00  0.00    -0.246 N 
HETATM    6  H   UNL     1       4.693   4.829  -1.052  1.00  0.00     0.192 HD
HETATM    7  O   UNL     1       6.244   3.995  -3.735  1.00  0.00    -0.271 OA
BRANCH   5   8
HETATM    8  N   UNL     1       4.526   2.964  -1.906  1.00  0.00    -0.181 NA
HETATM    9  C   UNL     1       4.103   2.374  -0.831  1.00  0.00     0.035 C 
HETATM   10  C   UNL     1       4.093   3.002   0.545  1.00  0.00     0.068 C 
BRANCH   9  11
HETATM   11  C   UNL     1       3.487   0.985  -0.989  1.00  0.00     0.074 C 
BRANCH  11  12
HETATM   12  C   UNL     1       4.479  -0.146  -1.412  1.00  0.00     0.072 C 
BRANCH  12  13
HETATM   13  C   UNL     1       4.953  -0.186  -2.869  1.00  0.00     0.061 C 
HETATM   14  C   UNL     1       4.145  -1.068  -3.758  1.00  0.00     0.298 C 
HETATM   15  O   UNL     1       3.072  -1.526  -3.357  1.00  0.00    -0.259 OA
HETATM   16  O   UNL     1       4.560  -1.281  -5.056  1.00  0.00    -0.274 OA
HETATM   17  C   UNL     1       5.652  -0.581  -5.588  1.00  0.00     0.092 A 
HETATM   18  C   UNL     1       6.365   0.326  -4.812  1.00  0.00     0.032 A 
HETATM   19  C   UNL     1       5.975  -0.831  -6.922  1.00  0.00     0.038 A 
HETATM   20  C   UNL     1       7.449   0.987  -5.404  1.00  0.00     0.017 A 
HETATM   21  C   UNL     1       5.973   0.500  -3.412  1.00  0.00     0.091 C 
HETATM   22  C   UNL     1       7.785   0.749  -6.741  1.00  0.00     0.001 A 
HETATM   23  C   UNL     1       7.048  -0.158  -7.500  1.00  0.00     0.003 A 
BRANCH  21  24
HETATM   24  O   UNL     1       6.694   1.422  -2.693  1.00  0.00    -0.359 OA
HETATM   25  H   UNL     1       6.637   2.275  -3.184  1.00  0.00     0.218 HD
ENDBRANCH  21  24
ENDBRANCH  12  13
BRANCH  12  26
HETATM   26  C   UNL     1       5.559  -0.500  -0.382  1.00  0.00    -0.049 A 
HETATM   27  C   UNL     1       5.679  -1.837   0.048  1.00  0.00     0.008 A 
HETATM   28  C   UNL     1       6.640  -2.213   0.990  1.00  0.00     0.001 A 
HETATM   29  C   UNL     1       7.507  -1.263   1.515  1.00  0.00     0.000 A 
HETATM   30  C   UNL     1       7.422   0.058   1.088  1.00  0.00     0.001 A 
HETATM   31  C   UNL     1       6.462   0.434   0.144  1.00  0.00     0.008 A 
ENDBRANCH  12  26
ENDBRANCH  11  12
BRANCH  11  32
HETATM   32  C   UNL     1       2.280   1.180  -1.933  1.00  0.00     0.246 C 
BRANCH  32  33
HETATM   33  N   UNL     1       1.328  -0.005  -2.015  1.00  0.00    -0.070 N 
HETATM   34  H   UNL     1       1.882  -0.836  -2.315  1.00  0.00     0.279 HD
HETATM   35  C   UNL     1       0.630  -0.318  -0.715  1.00  0.00     0.235 C 
HETATM   36  C   UNL     1      -0.279  -1.528  -0.871  1.00  0.00     0.028 C 
HETATM   37  C   UNL     1      -1.272  -1.351  -2.010  1.00  0.00     0.003 C 
HETATM   38  C   UNL     1      -0.546  -1.025  -3.307  1.00  0.00     0.028 C 
HETATM   39  C   UNL     1       0.341   0.201  -3.153  1.00  0.00     0.235 C 
ENDBRANCH  32  33
ENDBRANCH  11  32
ENDBRANCH   9  11
ENDBRANCH   5   8
ENDBRANCH   1   4
TORSDOF 9
