REMARK  8 active torsions:
REMARK  status: ('A' for Active; 'I' for Inactive)
REMARK    1  A    between atoms: C_2  and  C_3 
REMARK    2  A    between atoms: C_3  and  N_4 
REMARK    3  A    between atoms: N_4  and  C_5 
REMARK    4  A    between atoms: C_7  and  N_8 
REMARK    5  A    between atoms: N_8  and  C_9 
REMARK    6  A    between atoms: C_9  and  C_10 
REMARK    7  A    between atoms: C_10  and  C_11 
REMARK    8  A    between atoms: C_13  and  O_14 
ROOT
HETATM    1  C   UNL     1       4.948   2.313   1.943  1.00  0.00     0.119 A 
HETATM    2  N   UNL     1       5.834   1.906   2.873  1.00  0.00    -0.207 NA
HETATM    3  C   UNL     1       6.599   2.838   3.451  1.00  0.00     0.181 A 
HETATM    4  N   UNL     1       6.548   4.128   3.137  1.00  0.00    -0.330 N 
HETATM    5  H   UNL     1       7.221   4.739   3.580  1.00  0.00     0.168 HD
HETATM    6  C   UNL     1       5.667   4.588   2.243  1.00  0.00     0.048 A 
HETATM    7  C   UNL     1       4.802   3.677   1.605  1.00  0.00     0.031 A 
HETATM    8  C   UNL     1       5.606   5.960   1.958  1.00  0.00     0.030 A 
HETATM    9  C   UNL     1       4.670   6.444   1.045  1.00  0.00     0.002 A 
HETATM   10  C   UNL     1       3.795   5.564   0.416  1.00  0.00     0.001 A 
HETATM   11  C   UNL     1       3.856   4.195   0.690  1.00  0.00     0.017 A 
ENDROOT
BRANCH   3  12
HETATM   12  N   UNL     1       7.533   2.409   4.386  1.00  0.00    -0.262 NA
HETATM   13  H   UNL     1       7.404   1.393   4.428  1.00  0.00     0.130 HD
BRANCH  12  14
HETATM   14  C   UNL     1       7.394   3.012   5.715  1.00  0.00     0.100 C 
BRANCH  14  15
HETATM   15  C   UNL     1       8.289   2.287   6.729  1.00  0.00     0.053 C 
BRANCH  15  16
HETATM   16  C   UNL     1       8.396   3.066   8.016  1.00  0.00    -0.054 A 
HETATM   17  C   UNL     1       7.312   3.132   8.909  1.00  0.00     0.044 A 
HETATM   18  C   UNL     1       7.400   3.893  10.077  1.00  0.00     0.068 A 
HETATM   19  C   UNL     1       8.580   4.585  10.355  1.00  0.00     0.037 A 
HETATM   20  C   UNL     1       9.666   4.517   9.484  1.00  0.00     0.003 A 
HETATM   21  C   UNL     1       9.575   3.762   8.317  1.00  0.00     0.007 A 
BRANCH  18  22
HETATM   22  O   UNL     1       6.416   4.052  11.011  1.00  0.00    -0.356 OA
HETATM   23  C   UNL     1       5.232   3.283  10.851  1.00  0.00     0.210 C 
ENDBRANCH  18  22
ENDBRANCH  15  16
ENDBRANCH  14  15
ENDBRANCH  12  14
ENDBRANCH   3  12
BRANCH   1  24
HETATM   24  N   UNL     1       4.115   1.362   1.338  1.00  0.00    -0.277 NA
HETATM   25  H   UNL     1       4.130   1.460   0.325  1.00  0.00     0.129 HD
BRANCH  24  26
HETATM   26  C   UNL     1       4.311  -0.033   1.738  1.00  0.00     0.093 C 
BRANCH  26  27
HETATM   27  C   UNL     1       3.312  -0.933   1.008  1.00  0.00     0.010 C 
HETATM   28  C   UNL     1       1.870  -0.664   1.413  1.00  0.00     0.006 C 
ENDBRANCH  26  27
ENDBRANCH  24  26
ENDBRANCH   1  24
TORSDOF 8
