REMARK  4 active torsions:
REMARK  status: ('A' for Active; 'I' for Inactive)
REMARK    1  A    between atoms: C_3  and  N_4 
REMARK    2  A    between atoms: C_11  and  C_12 
REMARK       I    between atoms: C_12  and  N_13 
REMARK    3  A    between atoms: N_13  and  C_14 
REMARK    4  A    between atoms: C_19  and  O_20 
ROOT
HETATM    1  C   UNL     1       7.459  -1.213  -0.818  1.00  0.00     0.036 A 
HETATM    2  C   UNL     1       8.746  -1.228  -1.354  1.00  0.00     0.049 A 
HETATM    3  C   UNL     1       9.517  -0.049  -1.415  1.00  0.00     0.063 A 
HETATM    4  C   UNL     1       8.998   1.172  -0.943  1.00  0.00     0.075 A 
HETATM    5  N   UNL     1       9.638   2.430  -0.955  1.00  0.00    -0.226 NA
HETATM    6  C   UNL     1      10.326   2.790  -1.987  1.00  0.00     0.161 C 
HETATM    7  C   UNL     1      10.590   1.969  -3.233  1.00  0.00     0.164 C 
HETATM    8  N   UNL     1      11.367   0.831  -2.764  1.00  0.00    -0.336 N 
HETATM    9  C   UNL     1      10.889  -0.186  -1.971  1.00  0.00     0.257 C 
HETATM   10  O   UNL     1      11.548  -1.190  -1.718  1.00  0.00    -0.267 OA
HETATM   11  C   UNL     1      11.475   2.612  -4.299  1.00  0.00     0.035 C 
HETATM   12  C   UNL     1      12.890   2.219  -3.880  1.00  0.00     0.022 C 
HETATM   13  C   UNL     1      12.704   0.816  -3.322  1.00  0.00     0.127 C 
HETATM   14  C   UNL     1       7.723   1.157  -0.365  1.00  0.00     0.035 A 
HETATM   15  C   UNL     1       6.965  -0.015  -0.297  1.00  0.00     0.032 A 
ENDROOT
BRANCH   1  16
HETATM   16  N   UNL     1       6.597  -2.328  -0.779  1.00  0.00    -0.323 N 
HETATM   17  C   UNL     1       6.777  -3.551  -1.404  1.00  0.00     0.256 C 
HETATM   18  O   UNL     1       7.770  -3.901  -2.031  1.00  0.00    -0.267 OA
HETATM   19  H   UNL     1       5.743  -2.193  -0.258  1.00  0.00     0.169 HD
BRANCH  17  20
HETATM   20  C   UNL     1       5.631  -4.510  -1.302  1.00  0.00     0.033 A 
HETATM   21  C   UNL     1       4.315  -4.097  -1.092  1.00  0.00     0.019 A 
HETATM   22  C   UNL     1       3.284  -5.040  -1.035  1.00  0.00     0.031 A 
HETATM   23  C   UNL     1       3.537  -6.414  -1.214  1.00  0.00     0.044 A 
HETATM   24  C   UNL     1       4.865  -6.848  -1.416  1.00  0.00    -0.034 A 
HETATM   25  C   UNL     1       5.294  -8.285  -1.542  1.00  0.00     0.050 C 
HETATM   26  C   UNL     1       5.890  -5.878  -1.474  1.00  0.00     0.026 A 
BRANCH  23  27
HETATM   27  N   UNL     1       2.412  -7.296  -1.200  1.00  0.00    -0.332 N 
HETATM   28  C   UNL     1       2.244  -8.459  -1.924  1.00  0.00     0.096 A 
HETATM   29  C   UNL     1       1.007  -8.999  -1.644  1.00  0.00     0.019 A 
HETATM   30  C   UNL     1       0.372  -8.136  -0.731  1.00  0.00     0.019 A 
HETATM   31  C   UNL     1       1.240  -7.094  -0.489  1.00  0.00     0.096 A 
ENDBRANCH  23  27
ENDBRANCH  17  20
ENDBRANCH   1  16
BRANCH   6  32
HETATM   32  O   UNL     1      10.864   4.015  -1.947  1.00  0.00    -0.346 OA
HETATM   33  H   UNL     1      10.636   4.399  -1.083  1.00  0.00     0.219 HD
ENDBRANCH   6  32
TORSDOF 4
