REMARK  7 active torsions:
REMARK  status: ('A' for Active; 'I' for Inactive)
REMARK    1  A    between atoms: C_2  and  C_3 
REMARK    2  A    between atoms: C_3  and  N_4 
REMARK       I    between atoms: N_4  and  C_5 
REMARK    3  A    between atoms: C_5  and  C_6 
REMARK    4  A    between atoms: C_7  and  N_8 
REMARK       I    between atoms: N_8  and  C_9 
REMARK    5  A    between atoms: C_9  and  C_10 
REMARK    6  A    between atoms: C_12  and  O_13 
REMARK    7  A    between atoms: O_13  and  C_14 
ROOT
HETATM    1  N   UNL     1       3.206   2.919   2.593  1.00  0.00    -0.322 N 
HETATM    2  C   UNL     1       1.908   3.364   2.779  1.00  0.00     0.256 C 
HETATM    3  O   UNL     1       1.509   4.507   2.584  1.00  0.00    -0.267 OA
HETATM    4  H   UNL     1       3.313   1.942   2.352  1.00  0.00     0.169 HD
ENDROOT
BRANCH   1   5
HETATM    5  C   UNL     1       4.295   3.771   2.299  1.00  0.00     0.050 A 
HETATM    6  C   UNL     1       4.486   5.053   2.843  1.00  0.00     0.058 A 
HETATM    7  C   UNL     1       5.561   5.849   2.410  1.00  0.00     0.019 A 
HETATM    8  C   UNL     1       6.455   5.368   1.455  1.00  0.00     0.001 A 
HETATM    9  C   UNL     1       6.301   4.079   0.952  1.00  0.00     0.002 A 
HETATM   10  C   UNL     1       5.236   3.281   1.380  1.00  0.00     0.030 A 
BRANCH   6  11
HETATM   11  C   UNL     1       3.723   5.547   4.018  1.00  0.00     0.254 C 
HETATM   12  N   UNL     1       3.206   6.819   3.881  1.00  0.00    -0.353 N 
HETATM   13  H   UNL     1       3.083   7.154   2.935  1.00  0.00     0.163 HD
HETATM   14  O   UNL     1       3.621   4.857   5.026  1.00  0.00    -0.268 OA
BRANCH  12  15
HETATM   15  C   UNL     1       2.356   7.359   4.908  1.00  0.00     0.149 C 
BRANCH  15  16
HETATM   16  C   UNL     1       1.955   8.740   4.497  1.00  0.00    -0.018 C 
HETATM   17  C   UNL     1       2.388   9.866   5.079  1.00  0.00     0.008 C 
ENDBRANCH  15  16
ENDBRANCH  12  15
ENDBRANCH   6  11
ENDBRANCH   1   5
BRANCH   2  18
HETATM   18  C   UNL     1       0.925   2.304   3.116  1.00  0.00     0.037 A 
HETATM   19  C   UNL     1      -0.369   2.418   2.614  1.00  0.00     0.075 A 
HETATM   20  C   UNL     1      -1.272   1.427   2.939  1.00  0.00     0.165 A 
HETATM   21  N   UNL     1      -0.977   0.356   3.705  1.00  0.00    -0.237 NA
HETATM   22  C   UNL     1       0.281   0.283   4.191  1.00  0.00     0.120 A 
HETATM   23  C   UNL     1       1.263   1.222   3.930  1.00  0.00     0.036 A 
BRANCH  20  24
HETATM   24  O   UNL     1      -2.546   1.560   2.423  1.00  0.00    -0.329 OA
BRANCH  24  25
HETATM   25  C   UNL     1      -3.568   0.746   3.035  1.00  0.00     0.130 C 
HETATM   26  C   UNL     1      -4.010   1.142   4.470  1.00  0.00     0.032 C 
HETATM   27  C   UNL     1      -5.459   0.850   4.044  1.00  0.00     0.005 C 
HETATM   28  C   UNL     1      -5.014   1.091   2.592  1.00  0.00     0.032 C 
ENDBRANCH  24  25
ENDBRANCH  20  24
ENDBRANCH   2  18
TORSDOF 7
