REMARK  8 active torsions:
REMARK  status: ('A' for Active; 'I' for Inactive)
REMARK    1  A    between atoms: C_2  and  N_3 
REMARK    2  A    between atoms: N_3  and  N_4 
REMARK       I    between atoms: N_4  and  C_5 
REMARK    3  A    between atoms: C_5  and  C_6 
REMARK    4  A    between atoms: C_6  and  O_7 
REMARK    5  A    between atoms: O_7  and  C_8 
REMARK    6  A    between atoms: C_19  and  C_20 
REMARK       I    between atoms: C_20  and  N_21 
REMARK    7  A    between atoms: N_21  and  C_22 
REMARK    8  A    between atoms: C_25  and  C_26 
REMARK       I    between atoms: C_26  and  N_27 
ROOT
HETATM    1  C   UNL     1       2.981   0.552  -1.520  1.00  0.00     0.070 C 
HETATM    2  C   UNL     1       2.479   0.185  -0.138  1.00  0.00     0.027 C 
HETATM    3  C   UNL     1       1.811   1.061   0.641  1.00  0.00     0.100 C 
ENDROOT
BRANCH   2   4
HETATM    4  N   UNL     1       2.778  -1.121   0.244  1.00  0.00    -0.302 N 
HETATM    5  H   UNL     1       2.941  -1.739  -0.562  1.00  0.00     0.186 HD
BRANCH   4   6
HETATM    6  N   UNL     1       2.150  -1.768   1.312  1.00  0.00    -0.268 N 
HETATM    7  C   UNL     1       1.006  -2.521   1.129  1.00  0.00     0.260 C 
HETATM    8  O   UNL     1       0.683  -3.357   1.975  1.00  0.00    -0.269 OA
HETATM    9  H   UNL     1       2.762  -2.062   2.069  1.00  0.00     0.190 HD
BRANCH   7  10
HETATM   10  C   UNL     1       0.124  -2.202  -0.077  1.00  0.00     0.280 C 
BRANCH  10  11
HETATM   11  O   UNL     1       0.796  -2.486  -1.301  1.00  0.00    -0.342 OA
BRANCH  11  12
HETATM   12  C   UNL     1       0.077  -2.200  -2.432  1.00  0.00     0.070 A 
HETATM   13  C   UNL     1       0.313  -3.038  -3.524  1.00  0.00     0.049 A 
HETATM   14  C   UNL     1      -0.358  -2.845  -4.744  1.00  0.00    -0.023 A 
HETATM   15  C   UNL     1      -1.272  -1.774  -4.868  1.00  0.00    -0.026 A 
HETATM   16  C   UNL     1      -0.145  -3.692  -5.844  1.00  0.00     0.012 A 
HETATM   17  C   UNL     1      -1.477  -0.921  -3.774  1.00  0.00     0.015 A 
HETATM   18  C   UNL     1      -1.951  -1.582  -6.082  1.00  0.00     0.012 A 
HETATM   19  C   UNL     1      -0.802  -1.128  -2.567  1.00  0.00     0.037 A 
HETATM   20  C   UNL     1      -1.731  -2.436  -7.163  1.00  0.00     0.001 A 
HETATM   21  C   UNL     1      -0.828  -3.489  -7.045  1.00  0.00     0.001 A 
ENDBRANCH  11  12
ENDBRANCH  10  11
ENDBRANCH   7  10
ENDBRANCH   4   6
ENDBRANCH   2   4
BRANCH   3  22
HETATM   22  C   UNL     1       1.339   2.392   0.167  1.00  0.00     0.247 C 
HETATM   23  N   UNL     1       1.255   3.308   1.195  1.00  0.00    -0.324 N 
HETATM   24  H   UNL     1       1.523   2.995   2.119  1.00  0.00     0.169 HD
HETATM   25  O   UNL     1       1.034   2.570  -1.005  1.00  0.00    -0.268 OA
BRANCH  23  26
HETATM   26  C   UNL     1       0.846   4.656   1.095  1.00  0.00     0.035 A 
HETATM   27  C   UNL     1       0.495   5.278  -0.106  1.00  0.00     0.030 A 
HETATM   28  C   UNL     1       0.113   6.626  -0.133  1.00  0.00     0.019 A 
HETATM   29  C   UNL     1       0.083   7.371   1.048  1.00  0.00     0.032 A 
HETATM   30  C   UNL     1       0.413   6.749   2.257  1.00  0.00     0.019 A 
HETATM   31  C   UNL     1       0.797   5.403   2.278  1.00  0.00     0.030 A 
BRANCH  29  32
HETATM   32  C   UNL     1      -0.306   8.806   1.072  1.00  0.00     0.249 C 
HETATM   33  N   UNL     1      -0.183   9.515  -0.090  1.00  0.00    -0.366 N 
HETATM   34  H   UNL     1       0.334   9.179  -0.889  1.00  0.00     0.159 HD
HETATM   35  H   UNL     1      -0.356  10.510  -0.028  1.00  0.00     0.159 HD
HETATM   36  O   UNL     1      -0.687   9.350   2.101  1.00  0.00    -0.268 OA
ENDBRANCH  29  32
ENDBRANCH  23  26
ENDBRANCH   3  22
TORSDOF 8
