REMARK  7 active torsions:
REMARK  status: ('A' for Active; 'I' for Inactive)
REMARK    1  A    between atoms: C_4  and  C_14 
REMARK    2  A    between atoms: C_7  and  C_8 
REMARK       I    between atoms: C_14  and  N_16 
REMARK    3  A    between atoms: N_16  and  C_17 
REMARK    4  A    between atoms: C_17  and  C_18 
REMARK    5  A    between atoms: C_22  and  C_24 
REMARK       I    between atoms: C_24  and  N_26 
REMARK    6  A    between atoms: N_26  and  C_27 
REMARK    7  A    between atoms: C_27  and  C_28 
ROOT
HETATM    1  C   UNL     1       8.583  17.065   3.055  1.00  0.00    -0.040 A 
HETATM    2  C   UNL     1       8.905  17.229   4.408  1.00  0.00     0.009 A 
HETATM    3  C   UNL     1       9.069  16.117   5.234  1.00  0.00     0.002 A 
HETATM    4  C   UNL     1       8.935  14.830   4.712  1.00  0.00     0.017 A 
HETATM    5  C   UNL     1       8.636  14.647   3.357  1.00  0.00     0.032 A 
HETATM    6  C   UNL     1       8.440  15.766   2.540  1.00  0.00     0.026 A 
ENDROOT
BRANCH   1   7
HETATM    7  C   UNL     1       8.445  18.255   2.139  1.00  0.00     0.161 C 
BRANCH   7   8
HETATM    8  N   UNL     1       9.678  18.494   1.425  1.00  0.00    -0.353 N 
HETATM    9  C   UNL     1       9.951  17.901   0.213  1.00  0.00     0.251 C 
HETATM   10  O   UNL     1       9.188  17.142  -0.373  1.00  0.00    -0.268 OA
HETATM   11  H   UNL     1      10.341  19.143   1.828  1.00  0.00     0.163 HD
BRANCH   9  12
HETATM   12  C   UNL     1      11.267  18.240  -0.381  1.00  0.00     0.032 A 
HETATM   13  C   UNL     1      12.428  18.256   0.402  1.00  0.00     0.024 A 
HETATM   14  C   UNL     1      13.675  18.567  -0.171  1.00  0.00    -0.050 A 
HETATM   15  C   UNL     1      14.898  18.557   0.709  1.00  0.00     0.049 C 
HETATM   16  C   UNL     1      13.743  18.849  -1.552  1.00  0.00    -0.017 A 
HETATM   17  C   UNL     1      12.570  18.824  -2.326  1.00  0.00     0.014 A 
HETATM   18  C   UNL     1      11.338  18.513  -1.747  1.00  0.00     0.018 A 
BRANCH  16  19
HETATM   19  C   UNL     1      14.998  19.147  -2.213  1.00  0.00     0.011 A 
HETATM   20  C   UNL     1      16.179  18.386  -2.350  1.00  0.00     0.152 A 
HETATM   21  N   UNL     1      17.124  19.028  -3.040  1.00  0.00    -0.187 NA
HETATM   22  N   UNL     1      16.546  20.200  -3.354  1.00  0.00    -0.289 N 
HETATM   23  H   UNL     1      17.084  20.873  -3.891  1.00  0.00     0.188 HD
HETATM   24  C   UNL     1      15.269  20.318  -2.886  1.00  0.00     0.123 A 
ENDBRANCH  16  19
ENDBRANCH   9  12
ENDBRANCH   7   8
ENDBRANCH   1   7
BRANCH   5  25
HETATM   25  C   UNL     1       8.529  13.255   2.837  1.00  0.00     0.251 C 
HETATM   26  O   UNL     1       8.341  12.303   3.594  1.00  0.00    -0.268 OA
HETATM   27  N   UNL     1       8.652  13.061   1.476  1.00  0.00    -0.355 N 
HETATM   28  H   UNL     1       9.003  13.840   0.923  1.00  0.00     0.162 HD
BRANCH  27  29
HETATM   29  C   UNL     1       8.797  11.734   0.888  1.00  0.00     0.155 C 
BRANCH  29  30
HETATM   30  C   UNL     1       7.507  10.875   0.903  1.00  0.00     0.203 C 
HETATM   31  C   UNL     1       7.690   9.527   0.212  1.00  0.00     0.036 C 
HETATM   32  C   UNL     1       8.185   8.613   1.320  1.00  0.00     0.029 C 
HETATM   33  C   UNL     1       7.347   9.025   2.512  1.00  0.00     0.233 C 
HETATM   34  N   UNL     1       7.120  10.484   2.309  1.00  0.00    -0.069 N 
HETATM   35  H   UNL     1       7.687  11.037   2.991  1.00  0.00     0.277 HD
HETATM   36  H   UNL     1       6.154  10.756   2.523  1.00  0.00     0.277 HD
ENDBRANCH  29  30
ENDBRANCH  27  29
ENDBRANCH   5  25
TORSDOF 7
