REMARK  7 active torsions:
REMARK  status: ('A' for Active; 'I' for Inactive)
REMARK    1  A    between atoms: O_2  and  C_3 
REMARK    2  A    between atoms: C_5  and  C_6 
REMARK    3  A    between atoms: C_10  and  N_11 
REMARK    4  A    between atoms: N_11  and  C_12 
REMARK    5  A    between atoms: C_12  and  S_13 
REMARK    6  A    between atoms: N_15  and  C_17 
REMARK    7  A    between atoms: C_17  and  C_18 
ROOT
HETATM    1  C   UNL     1       6.578  -1.582   2.711  1.00  0.00     0.064 A 
HETATM    2  N   UNL     1       7.587  -0.656   2.604  1.00  0.00    -0.276 N 
HETATM    3  H   UNL     1       7.559   0.236   2.121  1.00  0.00     0.189 HD
HETATM    4  N   UNL     1       8.735  -1.007   3.217  1.00  0.00    -0.156 NA
HETATM    5  C   UNL     1       8.450  -2.185   3.772  1.00  0.00     0.151 A 
HETATM    6  C   UNL     1       7.125  -2.579   3.499  1.00  0.00     0.084 A 
ENDROOT
BRANCH   5   7
HETATM    7  N   UNL     1       9.296  -2.945   4.490  1.00  0.00    -0.320 N 
HETATM    8  H   UNL     1       8.967  -3.807   4.907  1.00  0.00     0.169 HD
BRANCH   7   9
HETATM    9  C   UNL     1      10.655  -2.705   4.784  1.00  0.00     0.141 C 
HETATM   10  N   UNL     1      11.211  -1.588   4.377  1.00  0.00    -0.365 N 
HETATM   11  H   UNL     1      10.580  -0.968   3.859  1.00  0.00     0.162 HD
BRANCH   9  12
HETATM   12  S   UNL     1      11.477  -3.924   5.679  1.00  0.00    -0.099 SA
HETATM   13  C   UNL     1      11.588  -5.208   4.412  1.00  0.00     0.099 C 
ENDBRANCH   9  12
BRANCH  10  14
HETATM   14  C   UNL     1      12.589  -1.179   4.623  1.00  0.00     0.186 C 
BRANCH  14  15
HETATM   15  C   UNL     1      12.871   0.127   3.969  1.00  0.00     0.070 A 
HETATM   16  O   UNL     1      11.826   0.784   3.382  1.00  0.00    -0.325 OA
HETATM   17  C   UNL     1      12.321   1.938   2.867  1.00  0.00     0.142 A 
HETATM   18  C   UNL     1      13.670   2.036   3.111  1.00  0.00     0.027 A 
HETATM   19  C   UNL     1      14.029   0.866   3.823  1.00  0.00     0.036 A 
ENDBRANCH  14  15
ENDBRANCH  10  14
ENDBRANCH   7   9
ENDBRANCH   5   7
BRANCH   1  20
HETATM   20  C   UNL     1       5.254  -1.462   2.091  1.00  0.00    -0.005 A 
HETATM   21  C   UNL     1       4.217  -2.327   2.474  1.00  0.00     0.050 A 
HETATM   22  C   UNL     1       2.954  -2.276   1.872  1.00  0.00     0.069 A 
HETATM   23  C   UNL     1       2.707  -1.328   0.884  1.00  0.00     0.037 A 
HETATM   24  C   UNL     1       3.722  -0.452   0.494  1.00  0.00     0.004 A 
HETATM   25  C   UNL     1       4.986  -0.520   1.089  1.00  0.00     0.014 A 
BRANCH  22  26
HETATM   26  O   UNL     1       2.061  -3.198   2.345  1.00  0.00    -0.356 OA
HETATM   27  C   UNL     1       0.840  -3.334   1.628  1.00  0.00     0.210 C 
ENDBRANCH  22  26
ENDBRANCH   1  20
TORSDOF 7
