REMARK  9 active torsions:
REMARK  status: ('A' for Active; 'I' for Inactive)
REMARK    1  A    between atoms: C_2  and  C_3 
REMARK    2  A    between atoms: C_4  and  N_5 
REMARK       I    between atoms: N_5  and  C_6 
REMARK    3  A    between atoms: C_6  and  C_7 
REMARK    4  A    between atoms: C_7  and  N_8 
REMARK    5  A    between atoms: N_12  and  C_13 
REMARK    6  A    between atoms: C_15  and  N_16 
REMARK    7  A    between atoms: N_16  and  C_17 
REMARK    8  A    between atoms: C_24  and  N_25 
REMARK    9  A    between atoms: N_25  and  C_26 
ROOT
HETATM    1  C   UNL     1       1.735   3.572   2.213  1.00  0.00     0.240 A 
HETATM    2  N   UNL     1       1.739   3.062   3.432  1.00  0.00    -0.030 NA
HETATM    3  C   UNL     1       2.007   3.899   4.430  1.00  0.00     0.745 A 
HETATM    4  N   UNL     1       2.272   5.185   4.260  1.00  0.00     0.131 NA
HETATM    5  C   UNL     1       2.189   5.634   3.013  1.00  0.00     0.745 A 
HETATM    6  N   UNL     1       1.987   4.843   1.967  1.00  0.00    -0.030 NA
ENDROOT
BRANCH   1   7
HETATM    7  N   UNL     1       1.506   2.726   1.125  1.00  0.00    -0.247 NA
HETATM    8  C   UNL     1       1.098   1.353   1.458  1.00  0.00     0.126 C 
HETATM    9  C   UNL     1       2.302   0.469   1.851  1.00  0.00     0.250 C 
HETATM   10  N   UNL     1       3.382   0.550   0.782  1.00  0.00    -0.060 N 
HETATM   11  H   UNL     1       2.990   0.200  -0.110  1.00  0.00     0.280 HD
HETATM   12  C   UNL     1       3.795   1.999   0.494  1.00  0.00     0.250 C 
HETATM   13  C   UNL     1       2.554   2.832   0.095  1.00  0.00     0.126 C 
BRANCH  10  14
HETATM   14  C   UNL     1       4.569  -0.367   1.057  1.00  0.00     0.337 C 
BRANCH  14  15
HETATM   15  C   UNL     1       5.318  -0.669  -0.244  1.00  0.00     0.248 C 
HETATM   16  N   UNL     1       6.610  -1.126  -0.070  1.00  0.00    -0.325 N 
HETATM   17  H   UNL     1       7.061  -0.865   0.799  1.00  0.00     0.169 HD
HETATM   18  O   UNL     1       4.745  -0.439  -1.310  1.00  0.00    -0.271 OA
BRANCH  16  19
HETATM   19  C   UNL     1       7.501  -1.318  -1.157  1.00  0.00     0.047 A 
HETATM   20  C   UNL     1       7.200  -2.169  -2.244  1.00  0.00    -0.031 A 
HETATM   21  C   UNL     1       8.125  -2.267  -3.301  1.00  0.00     0.009 A 
HETATM   22  C   UNL     1       9.329  -1.571  -3.274  1.00  0.00     0.001 A 
HETATM   23  C   UNL     1       9.647  -0.783  -2.176  1.00  0.00     0.009 A 
HETATM   24  C   UNL     1       8.751  -0.654  -1.104  1.00  0.00    -0.035 A 
HETATM   25  C   UNL     1       9.153   0.231   0.047  1.00  0.00     0.050 C 
BRANCH  20  26
HETATM   26  C   UNL     1       6.020  -3.120  -2.288  1.00  0.00     0.036 C 
HETATM   27  C   UNL     1       6.238  -4.334  -1.394  1.00  0.00     0.010 C 
ENDBRANCH  20  26
ENDBRANCH  16  19
ENDBRANCH  14  15
ENDBRANCH  10  14
ENDBRANCH   1   7
BRANCH   3  28
HETATM   28  N   UNL     1       2.107   3.415   5.733  1.00  0.00    -0.188 N 
HETATM   29  H   UNL     1       2.379   4.153   6.368  1.00  0.00     0.184 HD
BRANCH  28  30
HETATM   30  C   UNL     1       1.585   2.261   6.335  1.00  0.00     0.049 A 
HETATM   31  C   UNL     1       2.132   1.831   7.553  1.00  0.00     0.030 A 
HETATM   32  C   UNL     1       1.686   0.659   8.171  1.00  0.00     0.002 A 
HETATM   33  C   UNL     1       0.687  -0.105   7.577  1.00  0.00     0.000 A 
HETATM   34  C   UNL     1       0.137   0.300   6.364  1.00  0.00     0.002 A 
HETATM   35  C   UNL     1       0.592   1.468   5.746  1.00  0.00     0.030 A 
ENDBRANCH  28  30
ENDBRANCH   3  28
BRANCH   5  36
HETATM   36  N   UNL     1       2.381   7.005   2.835  1.00  0.00    -0.188 N 
HETATM   37  H   UNL     1       2.558   7.445   3.729  1.00  0.00     0.184 HD
BRANCH  36  38
HETATM   38  C   UNL     1       1.856   7.878   1.864  1.00  0.00     0.049 A 
HETATM   39  C   UNL     1       0.945   7.483   0.877  1.00  0.00     0.030 A 
HETATM   40  C   UNL     1       0.475   8.389  -0.080  1.00  0.00     0.002 A 
HETATM   41  C   UNL     1       0.930   9.703  -0.079  1.00  0.00     0.000 A 
HETATM   42  C   UNL     1       1.857  10.110   0.875  1.00  0.00     0.002 A 
HETATM   43  C   UNL     1       2.319   9.202   1.834  1.00  0.00     0.030 A 
ENDBRANCH  36  38
ENDBRANCH   5  36
TORSDOF 9
