REMARK  7 active torsions:
REMARK  status: ('A' for Active; 'I' for Inactive)
REMARK    1  A    between atoms: C_6  and  O_7 
REMARK    2  A    between atoms: O_7  and  C_8 
REMARK    3  A    between atoms: C_8  and  C_9 
REMARK       I    between atoms: C_9  and  N_10 
REMARK    4  A    between atoms: N_10  and  C_11 
REMARK    5  A    between atoms: C_14  and  N_15 
REMARK    6  A    between atoms: N_18  and  C_20 
REMARK    7  A    between atoms: C_20  and  C_21 
ROOT
HETATM    1  C   UNL     1       8.702  -1.725  -1.573  1.00  0.00     0.034 A 
HETATM    2  C   UNL     1       9.126  -2.915  -0.981  1.00  0.00     0.032 A 
HETATM    3  C   UNL     1       8.235  -3.985  -0.808  1.00  0.00     0.031 A 
HETATM    4  C   UNL     1       6.893  -3.896  -1.206  1.00  0.00     0.030 A 
HETATM    5  C   UNL     1       6.502  -2.721  -1.853  1.00  0.00     0.031 A 
HETATM    6  C   UNL     1       7.390  -1.652  -2.039  1.00  0.00     0.032 A 
ENDROOT
BRANCH   1   7
HETATM    7  N   UNL     1       9.603  -0.643  -1.599  1.00  0.00    -0.325 N 
HETATM    8  C   UNL     1       9.367   0.629  -2.091  1.00  0.00     0.246 C 
HETATM    9  O   UNL     1       8.392   0.982  -2.750  1.00  0.00    -0.271 OA
HETATM   10  H   UNL     1      10.511  -0.772  -1.160  1.00  0.00     0.169 HD
BRANCH   8  11
HETATM   11  C   UNL     1      10.407   1.658  -1.644  1.00  0.00     0.278 C 
BRANCH  11  12
HETATM   12  O   UNL     1      11.638   1.070  -1.232  1.00  0.00    -0.342 OA
BRANCH  12  13
HETATM   13  C   UNL     1      12.628   1.976  -0.941  1.00  0.00     0.069 A 
HETATM   14  C   UNL     1      12.415   3.282  -0.492  1.00  0.00     0.044 A 
HETATM   15  C   UNL     1      13.494   4.144  -0.220  1.00  0.00    -0.053 A 
HETATM   16  C   UNL     1      14.809   3.690  -0.430  1.00  0.00    -0.056 A 
HETATM   17  C   UNL     1      13.205   5.548   0.239  1.00  0.00     0.049 C 
HETATM   18  C   UNL     1      15.998   4.579  -0.187  1.00  0.00     0.049 C 
HETATM   19  C   UNL     1      15.015   2.365  -0.845  1.00  0.00     0.010 A 
HETATM   20  C   UNL     1      13.933   1.515  -1.091  1.00  0.00     0.037 A 
ENDBRANCH  12  13
ENDBRANCH  11  12
ENDBRANCH   8  11
ENDBRANCH   1   7
BRANCH   4  21
HETATM   21  N   UNL     1       5.999  -4.907  -0.870  1.00  0.00    -0.378 N 
HETATM   22  C   UNL     1       4.575  -4.589  -0.707  1.00  0.00     0.150 C 
HETATM   23  C   UNL     1       3.964  -5.552   0.330  1.00  0.00     0.255 C 
HETATM   24  N   UNL     1       4.212  -7.018  -0.051  1.00  0.00    -0.064 N 
HETATM   25  H   UNL     1       3.674  -7.193  -0.907  1.00  0.00     0.280 HD
HETATM   26  C   UNL     1       5.691  -7.286  -0.356  1.00  0.00     0.255 C 
HETATM   27  C   UNL     1       6.273  -6.265  -1.357  1.00  0.00     0.150 C 
BRANCH  24  28
HETATM   28  C   UNL     1       3.716  -7.979   1.007  1.00  0.00     0.273 C 
BRANCH  28  29
HETATM   29  C   UNL     1       2.265  -7.809   1.364  1.00  0.00    -0.033 A 
HETATM   30  C   UNL     1       1.254  -8.226   0.486  1.00  0.00     0.009 A 
HETATM   31  C   UNL     1      -0.088  -8.040   0.819  1.00  0.00     0.001 A 
HETATM   32  C   UNL     1      -0.434  -7.437   2.026  1.00  0.00     0.000 A 
HETATM   33  C   UNL     1       0.560  -7.020   2.907  1.00  0.00     0.001 A 
HETATM   34  C   UNL     1       1.903  -7.205   2.581  1.00  0.00     0.009 A 
ENDBRANCH  28  29
ENDBRANCH  24  28
ENDBRANCH   4  21
TORSDOF 7
