REMARK  6 active torsions:
REMARK  status: ('A' for Active; 'I' for Inactive)
REMARK    1  A    between atoms: C_2  and  O_3 
REMARK    2  A    between atoms: O_3  and  C_4 
REMARK    3  A    between atoms: C_5  and  O_6 
REMARK    4  A    between atoms: O_6  and  C_7 
REMARK    5  A    between atoms: C_7  and  C_8 
REMARK    6  A    between atoms: C_18  and  C_19 
ROOT
HETATM    1  C   UNL     1      10.284   0.207   3.536  1.00  0.00     0.103 A 
HETATM    2  C   UNL     1      10.427  -1.032   4.167  1.00  0.00     0.112 A 
HETATM    3  C   UNL     1       9.627  -2.121   3.826  1.00  0.00     0.041 A 
HETATM    4  C   UNL     1       8.693  -1.988   2.802  1.00  0.00     0.014 A 
HETATM    5  C   UNL     1       8.529  -0.762   2.126  1.00  0.00    -0.013 A 
HETATM    6  C   UNL     1       9.327   0.333   2.523  1.00  0.00     0.050 A 
ENDROOT
BRANCH   5   7
HETATM    7  C   UNL     1       7.492  -0.684   1.013  1.00  0.00     0.219 C 
HETATM    8  N   UNL     1       6.152  -0.785   1.535  1.00  0.00    -0.332 N 
HETATM    9  C   UNL     1       5.383   0.288   1.886  1.00  0.00     0.256 C 
HETATM   10  H   UNL     1       5.883  -1.649   1.981  1.00  0.00     0.165 HD
HETATM   11  O   UNL     1       4.386   0.169   2.590  1.00  0.00    -0.267 OA
HETATM   12  C   UNL     1       5.801   1.560   1.327  1.00  0.00     0.073 A 
HETATM   13  C   UNL     1       6.887   1.593   0.485  1.00  0.00     0.088 A 
HETATM   14  C   UNL     1       5.219   2.855   1.498  1.00  0.00    -0.023 A 
HETATM   15  S   UNL     1       7.205   3.154  -0.111  1.00  0.00    -0.074 SA
HETATM   16  N   UNL     1       7.613   0.498   0.179  1.00  0.00    -0.358 N 
HETATM   17  C   UNL     1       5.893   3.807   0.755  1.00  0.00     0.018 A 
HETATM   18  C   UNL     1       5.548   5.255   0.706  1.00  0.00     0.281 C 
HETATM   19  N   UNL     1       4.145   5.510   1.249  1.00  0.00    -0.070 N 
HETATM   20  C   UNL     1       3.890   4.722   2.533  1.00  0.00     0.239 C 
HETATM   21  H   UNL     1       4.117   6.504   1.505  1.00  0.00     0.279 HD
HETATM   22  C   UNL     1       3.079   5.314   0.209  1.00  0.00     0.270 C 
HETATM   23  C   UNL     1       4.014   3.203   2.322  1.00  0.00     0.068 C 
HETATM   24  H   UNL     1       8.498   0.585  -0.313  1.00  0.00     0.162 HD
ENDBRANCH   5   7
BRANCH   1  25
HETATM   25  O   UNL     1      11.086   1.221   3.987  1.00  0.00    -0.349 OA
BRANCH  25  26
HETATM   26  C   UNL     1      11.327   2.294   3.079  1.00  0.00     0.171 C 
HETATM   27  C   UNL     1      12.423   3.167   3.663  1.00  0.00     0.034 C 
ENDBRANCH  25  26
ENDBRANCH   1  25
BRANCH   2  28
HETATM   28  O   UNL     1      11.371  -1.201   5.182  1.00  0.00    -0.272 OA
BRANCH  28  29
HETATM   29  C   UNL     1      12.551  -1.711   4.683  1.00  0.00     0.300 C 
HETATM   30  O   UNL     1      12.866  -1.875   3.513  1.00  0.00    -0.259 OA
BRANCH  29  31
HETATM   31  C   UNL     1      13.484  -1.974   5.797  1.00  0.00     0.061 A 
HETATM   32  C   UNL     1      13.134  -2.694   6.946  1.00  0.00     0.050 A 
HETATM   33 CL   UNL     1      11.573  -3.393   7.189  1.00  0.00    -0.083 Cl
HETATM   34  C   UNL     1      14.097  -2.927   7.935  1.00  0.00     0.025 A 
HETATM   35  C   UNL     1      15.404  -2.461   7.774  1.00  0.00     0.002 A 
HETATM   36  C   UNL     1      15.759  -1.765   6.620  1.00  0.00     0.001 A 
HETATM   37  C   UNL     1      14.804  -1.524   5.632  1.00  0.00     0.019 A 
ENDBRANCH  29  31
ENDBRANCH  28  29
ENDBRANCH   2  28
TORSDOF 6
