REMARK  8 active torsions:
REMARK  status: ('A' for Active; 'I' for Inactive)
REMARK    1  A    between atoms: C_2  and  O_3 
REMARK    2  A    between atoms: O_3  and  C_4 
REMARK    3  A    between atoms: C_4  and  C_5 
REMARK    4  A    between atoms: C_6  and  C_8 
REMARK    5  A    between atoms: C_6  and  O_7 
REMARK    6  A    between atoms: C_16  and  C_17 
REMARK    7  A    between atoms: C_18  and  C_19 
REMARK    8  A    between atoms: N_26  and  C_27 
ROOT
HETATM    1  C   UNL     1       5.202   1.257  -0.443  1.00  0.00     0.177 C 
HETATM    2  C   UNL     1       4.235   0.347   0.332  1.00  0.00     0.250 C 
HETATM    3  N   UNL     1       4.159  -0.974  -0.254  1.00  0.00    -0.303 N 
HETATM    4  C   UNL     1       5.225  -1.607  -0.791  1.00  0.00     0.319 C 
HETATM    5  O   UNL     1       5.209  -2.810  -1.010  1.00  0.00    -0.247 OA
HETATM    6  N   UNL     1       6.287  -0.843  -1.127  1.00  0.00    -0.333 N 
HETATM    7  C   UNL     1       6.516   0.546  -0.763  1.00  0.00     0.142 C 
HETATM    8  H   UNL     1       3.441  -1.605   0.087  1.00  0.00     0.167 HD
HETATM    9  H   UNL     1       7.054  -1.366  -1.534  1.00  0.00     0.165 HD
ENDROOT
BRANCH   7  10
HETATM   10  C   UNL     1       7.574   0.593   0.312  1.00  0.00     0.015 A 
HETATM   11  C   UNL     1       8.163   1.730   0.951  1.00  0.00     0.097 A 
HETATM   12  N   UNL     1       9.018   1.357   1.913  1.00  0.00    -0.167 NA
HETATM   13  N   UNL     1       9.023   0.007   1.907  1.00  0.00    -0.244 N 
HETATM   14  C   UNL     1       8.217  -0.481   0.908  1.00  0.00     0.130 A 
BRANCH  11  15
HETATM   15  C   UNL     1       7.919   3.152   0.718  1.00  0.00    -0.005 A 
HETATM   16  C   UNL     1       7.686   4.003   1.809  1.00  0.00     0.014 A 
HETATM   17  C   UNL     1       7.435   5.362   1.609  1.00  0.00     0.001 A 
HETATM   18  C   UNL     1       7.417   5.883   0.318  1.00  0.00     0.000 A 
HETATM   19  C   UNL     1       7.659   5.049  -0.773  1.00  0.00     0.001 A 
HETATM   20  C   UNL     1       7.916   3.689  -0.575  1.00  0.00     0.014 A 
ENDBRANCH  11  15
BRANCH  13  21
HETATM   21  C   UNL     1       9.775  -0.733   2.863  1.00  0.00     0.058 A 
HETATM   22  C   UNL     1      10.511  -0.047   3.841  1.00  0.00     0.031 A 
HETATM   23  C   UNL     1      11.233  -0.756   4.804  1.00  0.00     0.002 A 
HETATM   24  C   UNL     1      11.230  -2.149   4.796  1.00  0.00     0.000 A 
HETATM   25  C   UNL     1      10.506  -2.837   3.825  1.00  0.00     0.002 A 
HETATM   26  C   UNL     1       9.778  -2.136   2.859  1.00  0.00     0.031 A 
ENDBRANCH  13  21
ENDBRANCH   7  10
BRANCH   1  27
HETATM   27  C   UNL     1       4.667   1.773  -1.766  1.00  0.00     0.270 C 
HETATM   28  O   UNL     1       5.103   2.784  -2.304  1.00  0.00    -0.265 OA
BRANCH  27  29
HETATM   29  O   UNL     1       3.732   0.955  -2.319  1.00  0.00    -0.321 OA
BRANCH  29  30
HETATM   30  C   UNL     1       3.226   1.322  -3.613  1.00  0.00     0.174 C 
HETATM   31  C   UNL     1       1.950   2.123  -3.444  1.00  0.00     0.034 C 
ENDBRANCH  29  30
ENDBRANCH  27  29
ENDBRANCH   1  27
BRANCH   2  32
HETATM   32  C   UNL     1       4.608   0.288   1.859  1.00  0.00     0.439 C 
HETATM   33  F   UNL     1       4.813   1.520   2.377  1.00  0.00    -0.166 F 
HETATM   34  F   UNL     1       3.606  -0.290   2.573  1.00  0.00    -0.166 F 
HETATM   35  F   UNL     1       5.710  -0.451   2.100  1.00  0.00    -0.166 F 
ENDBRANCH   2  32
BRANCH   2  36
HETATM   36  O   UNL     1       2.897   0.853   0.215  1.00  0.00    -0.363 OA
HETATM   37  H   UNL     1       2.588   0.547  -0.659  1.00  0.00     0.213 HD
ENDBRANCH   2  36
TORSDOF 8
