REMARK  10 active torsions:
REMARK  status: ('A' for Active; 'I' for Inactive)
REMARK    1  A    between atoms: C_2  and  C_3 
REMARK    2  A    between atoms: C_3  and  C_4 
REMARK    3  A    between atoms: C_4  and  N_5 
REMARK    4  A    between atoms: N_5  and  C_7 
REMARK    5  A    between atoms: C_7  and  C_8 
REMARK    6  A    between atoms: C_8  and  C_9 
REMARK    7  A    between atoms: C_9  and  N_10 
REMARK       I    between atoms: N_10  and  C_11 
REMARK    8  A    between atoms: C_11  and  C_12 
REMARK    9  A    between atoms: C_12  and  O_13 
REMARK   10  A    between atoms: N_14  and  C_15 
ROOT
HETATM    1  C   UNL     1       1.226   7.574   1.362  1.00  0.00     0.256 C 
HETATM    2  N   UNL     1       2.655   7.611   0.998  1.00  0.00    -0.254 N 
HETATM    3  C   UNL     1       3.531   6.801   1.715  1.00  0.00     0.330 C 
HETATM    4  O   UNL     1       4.582   6.330   1.274  1.00  0.00    -0.246 OA
HETATM    5  N   UNL     1       3.173   6.449   2.982  1.00  0.00    -0.308 N 
HETATM    6  C   UNL     1       2.000   6.829   3.615  1.00  0.00     0.048 A 
HETATM    7  C   UNL     1       1.002   7.431   2.858  1.00  0.00     0.034 A 
HETATM    8  C   UNL     1       1.836   6.586   4.980  1.00  0.00     0.030 A 
HETATM    9  C   UNL     1       0.652   6.963   5.609  1.00  0.00     0.002 A 
HETATM   10  C   UNL     1      -0.362   7.568   4.872  1.00  0.00     0.001 A 
HETATM   11  C   UNL     1      -0.192   7.795   3.504  1.00  0.00     0.015 A 
HETATM   12  H   UNL     1       3.897   5.978   3.511  1.00  0.00     0.170 HD
ENDROOT
BRANCH   1  13
HETATM   13  C   UNL     1       0.510   6.361   0.619  1.00  0.00     0.279 C 
HETATM   14  N   UNL     1       1.336   5.406   0.034  1.00  0.00    -0.356 N 
HETATM   15  H   UNL     1       2.253   5.763  -0.229  1.00  0.00     0.162 HD
HETATM   16  O   UNL     1      -0.718   6.262   0.582  1.00  0.00    -0.268 OA
BRANCH  14  17
HETATM   17  C   UNL     1       0.768   4.350  -0.775  1.00  0.00     0.124 C 
BRANCH  17  18
HETATM   18  C   UNL     1       1.762   3.214  -1.000  1.00  0.00     0.047 C 
BRANCH  18  19
HETATM   19  C   UNL     1       2.120   2.523   0.313  1.00  0.00     0.236 C 
BRANCH  19  20
HETATM   20  N   UNL     1       3.047   1.333   0.123  1.00  0.00    -0.075 N 
HETATM   21  H   UNL     1       3.283   1.024   1.075  1.00  0.00     0.279 HD
HETATM   22  C   UNL     1       2.351   0.146  -0.496  1.00  0.00     0.269 C 
BRANCH  20  23
HETATM   23  C   UNL     1       4.368   1.614  -0.564  1.00  0.00     0.234 C 
BRANCH  23  24
HETATM   24  C   UNL     1       5.209   2.665   0.158  1.00  0.00     0.027 C 
BRANCH  24  25
HETATM   25  C   UNL     1       5.613   2.259   1.576  1.00  0.00    -0.003 C 
HETATM   26  C   UNL     1       6.563   3.273   2.196  1.00  0.00     0.005 C 
ENDBRANCH  24  25
ENDBRANCH  23  24
ENDBRANCH  20  23
ENDBRANCH  19  20
ENDBRANCH  18  19
ENDBRANCH  17  18
ENDBRANCH  14  17
ENDBRANCH   1  13
BRANCH   1  27
HETATM   27  O   UNL     1       0.607   8.803   0.981  1.00  0.00    -0.359 OA
HETATM   28  H   UNL     1      -0.335   8.598   0.847  1.00  0.00     0.213 HD
ENDBRANCH   1  27
BRANCH   2  29
HETATM   29  C   UNL     1       3.105   8.252  -0.220  1.00  0.00     0.042 A 
HETATM   30  C   UNL     1       2.250   8.526  -1.299  1.00  0.00     0.030 A 
HETATM   31  C   UNL     1       2.720   9.149  -2.462  1.00  0.00     0.002 A 
HETATM   32  C   UNL     1       4.055   9.522  -2.568  1.00  0.00     0.000 A 
HETATM   33  C   UNL     1       4.919   9.274  -1.510  1.00  0.00     0.002 A 
HETATM   34  C   UNL     1       4.449   8.647  -0.352  1.00  0.00     0.030 A 
ENDBRANCH   2  29
TORSDOF 10
