REMARK  4 active torsions:
REMARK  status: ('A' for Active; 'I' for Inactive)
REMARK    1  A    between atoms: C_8  and  C_9 
REMARK    2  A    between atoms: C_9  and  C_10 
REMARK       I    between atoms: C_10  and  N_11 
REMARK    3  A    between atoms: N_11  and  C_12 
REMARK    4  A    between atoms: C_14  and  C_15 
ROOT
HETATM    1  C   UNL     1      -1.489  -3.516  -0.269  1.00  0.00     0.226 C 
HETATM    2  N   UNL     1      -0.669  -3.953   0.761  1.00  0.00    -0.327 N 
HETATM    3  O   UNL     1      -1.683  -4.088  -1.339  1.00  0.00    -0.273 OA
HETATM    4  H   UNL     1      -0.664  -3.385   1.600  1.00  0.00     0.169 HD
ENDROOT
BRANCH   2   5
HETATM    5  C   UNL     1       0.135  -5.114   0.787  1.00  0.00     0.035 A 
HETATM    6  C   UNL     1       0.932  -5.321   1.926  1.00  0.00     0.042 A 
HETATM    7  C   UNL     1       1.782  -6.436   2.033  1.00  0.00    -0.021 A 
HETATM    8  C   UNL     1       1.811  -7.355   0.978  1.00  0.00     0.012 A 
HETATM    9  C   UNL     1       1.020  -7.161  -0.155  1.00  0.00     0.003 A 
HETATM   10  C   UNL     1       0.189  -6.044  -0.250  1.00  0.00     0.029 A 
BRANCH   7  11
HETATM   11  C   UNL     1       2.634  -6.639   3.198  1.00  0.00     0.010 A 
HETATM   12  C   UNL     1       3.771  -7.467   3.378  1.00  0.00     0.152 A 
HETATM   13  N   UNL     1       4.290  -7.383   4.605  1.00  0.00    -0.187 NA
HETATM   14  N   UNL     1       3.489  -6.502   5.223  1.00  0.00    -0.289 N 
HETATM   15  H   UNL     1       3.686  -6.271   6.191  1.00  0.00     0.188 HD
HETATM   16  C   UNL     1       2.485  -6.029   4.427  1.00  0.00     0.123 A 
ENDBRANCH   7  11
ENDBRANCH   2   5
BRANCH   1  17
HETATM   17  C   UNL     1      -2.141  -2.172   0.023  1.00  0.00     0.144 C 
BRANCH  17  18
HETATM   18  C   UNL     1      -3.301  -2.295   0.958  1.00  0.00    -0.021 A 
HETATM   19  C   UNL     1      -3.463  -1.650   2.228  1.00  0.00    -0.001 A 
HETATM   20  C   UNL     1      -2.673  -0.767   2.993  1.00  0.00     0.014 A 
HETATM   21  C   UNL     1      -4.708  -2.030   2.732  1.00  0.00     0.042 A 
HETATM   22  C   UNL     1      -3.151  -0.301   4.224  1.00  0.00     0.001 A 
HETATM   23  C   UNL     1      -4.398  -0.700   4.698  1.00  0.00     0.002 A 
HETATM   24  C   UNL     1      -5.201  -1.574   3.961  1.00  0.00     0.030 A 
HETATM   25  N   UNL     1      -5.281  -2.873   1.810  1.00  0.00    -0.365 N 
HETATM   26  H   UNL     1      -6.192  -3.299   1.909  1.00  0.00     0.165 HD
HETATM   27  C   UNL     1      -4.448  -3.034   0.738  1.00  0.00     0.097 A 
ENDBRANCH  17  18
ENDBRANCH   1  17
TORSDOF 4
