REMARK  3 active torsions:
REMARK  status: ('A' for Active; 'I' for Inactive)
REMARK    1  A    between atoms: C_9  and  C_10 
REMARK       I    between atoms: C_10  and  N_11 
REMARK    2  A    between atoms: N_11  and  C_12 
REMARK    3  A    between atoms: C_14  and  C_15 
ROOT
HETATM    1  C   UNL     1       3.477  -3.425  -2.270  1.00  0.00     0.252 C 
HETATM    2  N   UNL     1       2.679  -2.540  -2.972  1.00  0.00    -0.325 N 
HETATM    3  O   UNL     1       3.283  -4.632  -2.140  1.00  0.00    -0.270 OA
HETATM    4  H   UNL     1       3.082  -1.619  -3.114  1.00  0.00     0.169 HD
ENDROOT
BRANCH   2   5
HETATM    5  C   UNL     1       1.343  -2.710  -3.374  1.00  0.00     0.035 A 
HETATM    6  C   UNL     1       0.582  -3.843  -3.077  1.00  0.00     0.042 A 
HETATM    7  C   UNL     1      -0.780  -3.907  -3.416  1.00  0.00    -0.021 A 
HETATM    8  C   UNL     1      -1.367  -2.818  -4.075  1.00  0.00     0.012 A 
HETATM    9  C   UNL     1      -0.610  -1.689  -4.387  1.00  0.00     0.003 A 
HETATM   10  C   UNL     1       0.738  -1.635  -4.035  1.00  0.00     0.029 A 
BRANCH   7  11
HETATM   11  C   UNL     1      -1.586  -5.063  -3.061  1.00  0.00     0.010 A 
HETATM   12  C   UNL     1      -2.971  -5.181  -2.794  1.00  0.00     0.152 A 
HETATM   13  N   UNL     1      -3.339  -6.431  -2.499  1.00  0.00    -0.187 NA
HETATM   14  N   UNL     1      -2.188  -7.120  -2.572  1.00  0.00    -0.289 N 
HETATM   15  H   UNL     1      -2.210  -8.116  -2.381  1.00  0.00     0.188 HD
HETATM   16  C   UNL     1      -1.113  -6.350  -2.906  1.00  0.00     0.123 A 
ENDBRANCH   7  11
ENDBRANCH   2   5
BRANCH   1  17
HETATM   17  C   UNL     1       4.651  -2.730  -1.539  1.00  0.00     0.225 C 
HETATM   18  C   UNL     1       4.374  -2.743  -0.028  1.00  0.00     0.083 C 
HETATM   19  C   UNL     1       3.777  -1.391   0.096  1.00  0.00    -0.021 A 
HETATM   20  C   UNL     1       4.136  -0.636  -1.005  1.00  0.00     0.076 A 
HETATM   21  C   UNL     1       2.974  -0.860   1.086  1.00  0.00     0.017 A 
HETATM   22  C   UNL     1       3.735   0.673  -1.163  1.00  0.00     0.044 A 
HETATM   23  O   UNL     1       4.835  -1.350  -1.951  1.00  0.00    -0.336 OA
HETATM   24  C   UNL     1       2.902   1.236  -0.182  1.00  0.00    -0.053 A 
HETATM   25  C   UNL     1       2.509   0.460   0.943  1.00  0.00    -0.055 A 
HETATM   26  C   UNL     1       2.405   2.644  -0.370  1.00  0.00     0.049 C 
HETATM   27  C   UNL     1       1.565   1.014   1.978  1.00  0.00     0.049 C 
ENDBRANCH   1  17
TORSDOF 3
