REMARK  5 active torsions:
REMARK  status: ('A' for Active; 'I' for Inactive)
REMARK    1  A    between atoms: C_3  and  O_4 
REMARK    2  A    between atoms: C_8  and  C_9 
REMARK       I    between atoms: N_10  and  C_11 
REMARK    3  A    between atoms: C_11  and  C_12 
REMARK    4  A    between atoms: C_12  and  C_13 
REMARK    5  A    between atoms: C_13  and  C_14 
ROOT
HETATM    1  C   UNL     1       5.749  -2.578  -0.371  1.00  0.00     0.171 C 
HETATM    2  N   UNL     1       5.422  -3.695  -1.297  1.00  0.00    -0.338 N 
HETATM    3  C   UNL     1       5.829  -3.745  -2.627  1.00  0.00     0.221 C 
HETATM    4  O   UNL     1       5.525  -4.685  -3.364  1.00  0.00    -0.273 OA
HETATM    5  C   UNL     1       4.652  -4.839  -0.752  1.00  0.00     0.131 C 
HETATM    6  C   UNL     1       5.369  -5.510   0.432  1.00  0.00     0.061 C 
HETATM    7  C   UNL     1       5.791  -4.462   1.400  1.00  0.00    -0.019 A 
HETATM    8  C   UNL     1       5.925  -3.141   1.013  1.00  0.00     0.044 A 
HETATM    9  N   UNL     1       6.325  -2.428   2.113  1.00  0.00    -0.356 N 
HETATM   10  H   UNL     1       6.489  -1.432   2.144  1.00  0.00     0.166 HD
HETATM   11  C   UNL     1       6.509  -3.274   3.185  1.00  0.00     0.043 A 
HETATM   12  C   UNL     1       6.168  -4.561   2.765  1.00  0.00    -0.001 A 
HETATM   13  C   UNL     1       6.955  -2.997   4.483  1.00  0.00     0.030 A 
HETATM   14  C   UNL     1       7.060  -4.068   5.374  1.00  0.00     0.002 A 
HETATM   15  C   UNL     1       6.723  -5.363   4.984  1.00  0.00     0.001 A 
HETATM   16  C   UNL     1       6.274  -5.623   3.684  1.00  0.00     0.014 A 
ENDROOT
BRANCH   1  17
HETATM   17  C   UNL     1       4.774  -1.405  -0.440  1.00  0.00    -0.029 A 
HETATM   18  C   UNL     1       3.433  -1.543  -0.818  1.00  0.00     0.012 A 
HETATM   19  C   UNL     1       2.569  -0.442  -0.847  1.00  0.00     0.038 A 
HETATM   20  C   UNL     1       3.022   0.829  -0.489  1.00  0.00     0.074 A 
HETATM   21  C   UNL     1       4.362   0.996  -0.108  1.00  0.00    -0.028 A 
HETATM   22  C   UNL     1       4.900   2.354   0.255  1.00  0.00     0.051 C 
HETATM   23  C   UNL     1       5.225  -0.114  -0.103  1.00  0.00     0.019 A 
BRANCH  20  24
HETATM   24  O   UNL     1       2.252   1.962  -0.495  1.00  0.00    -0.355 OA
HETATM   25  C   UNL     1       0.850   1.795  -0.663  1.00  0.00     0.210 C 
ENDBRANCH  20  24
ENDBRANCH   1  17
BRANCH   3  26
HETATM   26  C   UNL     1       6.743  -2.630  -3.116  1.00  0.00     0.108 C 
BRANCH  26  27
HETATM   27  C   UNL     1       7.018  -2.678  -4.618  1.00  0.00     0.051 C 
BRANCH  27  28
HETATM   28  C   UNL     1       5.926  -2.128  -5.475  1.00  0.00    -0.021 A 
HETATM   29  C   UNL     1       5.086  -1.057  -5.244  1.00  0.00     0.120 A 
HETATM   30  N   UNL     1       4.296  -0.941  -6.350  1.00  0.00    -0.285 N 
HETATM   31  C   UNL     1       3.264   0.040  -6.581  1.00  0.00     0.179 C 
HETATM   32  N   UNL     1       4.570  -1.850  -7.301  1.00  0.00    -0.185 NA
HETATM   33  C   UNL     1       5.551  -2.579  -6.763  1.00  0.00     0.147 A 
ENDBRANCH  27  28
ENDBRANCH  26  27
ENDBRANCH   3  26
TORSDOF 5
