REMARK  2 active torsions:
REMARK  status: ('A' for Active; 'I' for Inactive)
REMARK    1  A    between atoms: C_6  and  N_7 
REMARK    2  A    between atoms: N_7  and  C_8 
ROOT
HETATM    1  C   UNL     1       1.099   0.409   0.154  1.00  0.00     0.093 C 
HETATM    2  C   UNL     1       2.591   0.282   0.120  1.00  0.00     0.125 A 
HETATM    3  N   UNL     1       3.304   1.411   0.155  1.00  0.00    -0.226 NA
HETATM    4  C   UNL     1       4.627   1.194   0.113  1.00  0.00     0.114 A 
HETATM    5  C   UNL     1       5.265  -0.045   0.038  1.00  0.00     0.053 A 
HETATM    6  C   UNL     1       4.423  -1.177   0.000  1.00  0.00     0.143 A 
HETATM    7  N   UNL     1       3.085  -0.968   0.048  1.00  0.00    -0.215 NA
HETATM    8  S   UNL     1       5.721   2.523   0.145  1.00  0.00    -0.073 SA
HETATM    9  C   UNL     1       7.021   1.478   0.074  1.00  0.00    -0.008 A 
HETATM   10  C   UNL     1       6.676   0.155   0.025  1.00  0.00    -0.028 A 
HETATM   11  C   UNL     1       7.890  -0.700  -0.023  1.00  0.00     0.041 C 
HETATM   12  C   UNL     1       9.025   0.303   0.355  1.00  0.00     0.010 C 
HETATM   13  C   UNL     1       8.480   1.732   0.061  1.00  0.00     0.047 C 
ENDROOT
BRANCH   6  14
HETATM   14  N   UNL     1       4.946  -2.473  -0.129  1.00  0.00    -0.340 N 
HETATM   15  H   UNL     1       5.933  -2.492  -0.337  1.00  0.00     0.167 HD
BRANCH  14  16
HETATM   16  C   UNL     1       4.337  -3.739  -0.076  1.00  0.00     0.036 A 
HETATM   17  C   UNL     1       5.021  -4.838  -0.622  1.00  0.00     0.069 A 
HETATM   18  C   UNL     1       4.450  -6.112  -0.628  1.00  0.00     0.104 A 
HETATM   19  C   UNL     1       3.168  -6.306  -0.111  1.00  0.00     0.102 A 
HETATM   20  O   UNL     1       5.202  -7.122  -1.172  1.00  0.00    -0.346 OA
HETATM   21  O   UNL     1       2.529  -7.519  -0.115  1.00  0.00    -0.346 OA
HETATM   22  C   UNL     1       2.480  -5.235   0.446  1.00  0.00     0.042 A 
HETATM   23  C   UNL     1       3.158  -8.430  -1.023  1.00  0.00     0.202 C 
HETATM   24  C   UNL     1       4.667  -8.409  -0.842  1.00  0.00     0.202 C 
HETATM   25  C   UNL     1       3.060  -3.961   0.454  1.00  0.00     0.032 A 
ENDBRANCH  14  16
ENDBRANCH   6  14
TORSDOF 2
