REMARK  7 active torsions:
REMARK  status: ('A' for Active; 'I' for Inactive)
REMARK    1  A    between atoms: C_2  and  C_3 
REMARK       I    between atoms: C_3  and  N_4 
REMARK    2  A    between atoms: N_4  and  C_5 
REMARK    3  A    between atoms: C_7  and  C_8 
REMARK       I    between atoms: C_8  and  N_9 
REMARK    4  A    between atoms: N_9  and  C_10 
REMARK    5  A    between atoms: C_10  and  C_11 
REMARK    6  A    between atoms: C_13  and  O_14 
REMARK    7  A    between atoms: O_14  and  C_15 
ROOT
HETATM    1  C   UNL     1      -2.279  -3.899   0.318  1.00  0.00     0.252 C 
HETATM    2  N   UNL     1      -3.601  -3.660   0.012  1.00  0.00    -0.353 N 
HETATM    3  O   UNL     1      -1.472  -3.000   0.534  1.00  0.00    -0.268 OA
HETATM    4  H   UNL     1      -4.230  -4.418  -0.210  1.00  0.00     0.163 HD
ENDROOT
BRANCH   1   5
HETATM    5  C   UNL     1      -1.827  -5.321   0.365  1.00  0.00     0.034 A 
HETATM    6  C   UNL     1      -2.714  -6.397   0.525  1.00  0.00     0.046 A 
HETATM    7  C   UNL     1      -2.235  -7.711   0.566  1.00  0.00     0.035 A 
HETATM    8  C   UNL     1      -0.856  -7.939   0.474  1.00  0.00     0.029 A 
HETATM    9  C   UNL     1       0.034  -6.874   0.333  1.00  0.00     0.003 A 
HETATM   10  C   UNL     1      -0.451  -5.570   0.278  1.00  0.00     0.017 A 
BRANCH   7  11
HETATM   11  N   UNL     1      -3.061  -8.846   0.709  1.00  0.00    -0.327 N 
HETATM   12  C   UNL     1      -4.447  -8.885   0.723  1.00  0.00     0.221 C 
HETATM   13  O   UNL     1      -5.201  -7.931   0.577  1.00  0.00    -0.273 OA
HETATM   14  H   UNL     1      -2.584  -9.737   0.771  1.00  0.00     0.169 HD
BRANCH  12  15
HETATM   15  C   UNL     1      -4.956 -10.305   0.923  1.00  0.00     0.098 C 
HETATM   16  C   UNL     1      -6.471 -10.380   0.994  1.00  0.00     0.014 C 
ENDBRANCH  12  15
ENDBRANCH   7  11
ENDBRANCH   1   5
BRANCH   2  17
HETATM   17  C   UNL     1      -4.147  -2.320  -0.017  1.00  0.00     0.161 C 
BRANCH  17  18
HETATM   18  C   UNL     1      -5.199  -2.126   1.043  1.00  0.00    -0.035 A 
HETATM   19  C   UNL     1      -4.959  -2.490   2.372  1.00  0.00     0.066 A 
HETATM   20  C   UNL     1      -5.956  -2.282   3.310  1.00  0.00     0.164 A 
HETATM   21  N   UNL     1      -7.150  -1.719   3.033  1.00  0.00    -0.237 NA
HETATM   22  C   UNL     1      -7.353  -1.349   1.751  1.00  0.00     0.120 A 
HETATM   23  C   UNL     1      -6.425  -1.529   0.736  1.00  0.00     0.028 A 
BRANCH  20  24
HETATM   24  O   UNL     1      -5.685  -2.693   4.602  1.00  0.00    -0.329 OA
BRANCH  24  25
HETATM   25  C   UNL     1      -6.792  -2.649   5.527  1.00  0.00     0.130 C 
HETATM   26  C   UNL     1      -7.899  -3.723   5.351  1.00  0.00     0.032 C 
HETATM   27  C   UNL     1      -7.952  -3.832   6.885  1.00  0.00     0.005 C 
HETATM   28  C   UNL     1      -6.508  -3.303   6.905  1.00  0.00     0.032 C 
ENDBRANCH  24  25
ENDBRANCH  20  24
ENDBRANCH  17  18
ENDBRANCH   2  17
TORSDOF 7
