REMARK  6 active torsions:
REMARK  status: ('A' for Active; 'I' for Inactive)
REMARK    1  A    between atoms: C_2  and  N_3 
REMARK    2  A    between atoms: C_2  and  C_21 
REMARK       I    between atoms: N_3  and  C_4 
REMARK       I    between atoms: C_4  and  N_5 
REMARK    3  A    between atoms: N_5  and  C_6 
REMARK    4  A    between atoms: C_6  and  C_7 
REMARK    5  A    between atoms: C_10  and  O_11 
REMARK    6  A    between atoms: O_11  and  C_12 
ROOT
HETATM    1  N   UNL     1       1.975  -0.618  -3.059  1.00  0.00    -0.332 N 
HETATM    2  C   UNL     1       2.352  -0.982  -1.803  1.00  0.00     0.317 C 
HETATM    3  N   UNL     1       1.539  -1.956  -1.288  1.00  0.00    -0.339 N 
HETATM    4  O   UNL     1       3.307  -0.504  -1.207  1.00  0.00    -0.247 OA
HETATM    5  H   UNL     1       1.030  -0.812  -3.359  1.00  0.00     0.165 HD
HETATM    6  H   UNL     1       1.116  -2.569  -1.968  1.00  0.00     0.164 HD
ENDROOT
BRANCH   3   7
HETATM    7  C   UNL     1       1.862  -2.525  -0.002  1.00  0.00     0.162 C 
BRANCH   7   8
HETATM    8  C   UNL     1       0.922  -3.643   0.359  1.00  0.00    -0.040 A 
HETATM    9  C   UNL     1       1.279  -4.976   0.120  1.00  0.00     0.011 A 
HETATM   10  C   UNL     1       0.419  -6.023   0.474  1.00  0.00     0.037 A 
HETATM   11  C   UNL     1      -0.812  -5.750   1.068  1.00  0.00     0.069 A 
HETATM   12  C   UNL     1      -1.184  -4.420   1.276  1.00  0.00     0.037 A 
HETATM   13  C   UNL     1      -0.329  -3.372   0.924  1.00  0.00     0.011 A 
BRANCH  11  14
HETATM   14  O   UNL     1      -1.731  -6.669   1.490  1.00  0.00    -0.346 OA
BRANCH  14  15
HETATM   15  C   UNL     1      -1.395  -8.063   1.470  1.00  0.00     0.129 C 
HETATM   16  C   UNL     1      -0.504  -8.435   2.666  1.00  0.00     0.032 C 
HETATM   17  C   UNL     1      -1.220  -8.245   4.003  1.00  0.00     0.002 C 
HETATM   18  C   UNL     1      -2.532  -9.022   4.050  1.00  0.00     0.000 C 
HETATM   19  C   UNL     1      -3.436  -8.671   2.873  1.00  0.00     0.002 C 
HETATM   20  C   UNL     1      -2.716  -8.847   1.535  1.00  0.00     0.032 C 
ENDBRANCH  14  15
ENDBRANCH  11  14
ENDBRANCH   7   8
ENDBRANCH   3   7
BRANCH   1  21
HETATM   21  C   UNL     1       2.665   0.431  -3.802  1.00  0.00     0.155 C 
HETATM   22  C   UNL     1       2.383   1.816  -3.218  1.00  0.00     0.041 C 
BRANCH  21  23
HETATM   23  C   UNL     1       2.229   0.362  -5.242  1.00  0.00     0.169 A 
HETATM   24  N   UNL     1       0.997  -0.025  -5.622  1.00  0.00    -0.156 NA
HETATM   25  N   UNL     1       1.081   0.094  -6.958  1.00  0.00    -0.270 N 
HETATM   26  H   UNL     1       0.276  -0.134  -7.531  1.00  0.00     0.190 HD
HETATM   27  C   UNL     1       2.308   0.532  -7.339  1.00  0.00     0.227 A 
HETATM   28  N   UNL     1       3.059   0.712  -6.280  1.00  0.00    -0.223 NA
ENDBRANCH  21  23
ENDBRANCH   1  21
TORSDOF 6
