REMARK  5 active torsions:
REMARK  status: ('A' for Active; 'I' for Inactive)
REMARK    1  A    between atoms: C_7  and  C_8 
REMARK    2  A    between atoms: C_16  and  C_17 
REMARK    3  A    between atoms: C_19  and  O_20 
REMARK    4  A    between atoms: C_24  and  C_25 
REMARK       I    between atoms: C_25  and  N_26 
REMARK    5  A    between atoms: N_26  and  C_27 
ROOT
HETATM    1  C   UNL     1       0.921   0.085   0.223  1.00  0.00     0.070 C 
HETATM    2  C   UNL     1       2.413  -0.041   0.035  1.00  0.00     0.037 C 
HETATM    3  N   UNL     1       3.100   1.163  -0.146  1.00  0.00    -0.192 N 
HETATM    4  C   UNL     1       4.441   1.247  -0.021  1.00  0.00     0.726 A 
HETATM    5  N   UNL     1       5.178   0.100  -0.020  1.00  0.00    -0.083 N 
HETATM    6  N   UNL     1       6.475   0.337   0.244  1.00  0.00    -0.135 NA
HETATM    7  C   UNL     1       6.478   1.680   0.353  1.00  0.00     0.199 A 
HETATM    8  N   UNL     1       5.233   2.267   0.181  1.00  0.00    -0.041 NA
HETATM    9  C   UNL     1       4.604  -1.236  -0.183  1.00  0.00     0.202 C 
HETATM   10  C   UNL     1       3.096  -1.217   0.053  1.00  0.00     0.062 C 
HETATM   11  H   UNL     1       2.564   2.014   0.009  1.00  0.00     0.184 HD
ENDROOT
BRANCH  10  12
HETATM   12  C   UNL     1       2.446  -2.478   0.534  1.00  0.00     0.256 C 
HETATM   13  N   UNL     1       2.904  -3.631  -0.066  1.00  0.00    -0.323 N 
HETATM   14  H   UNL     1       3.543  -3.554  -0.846  1.00  0.00     0.169 HD
HETATM   15  O   UNL     1       1.623  -2.416   1.440  1.00  0.00    -0.267 OA
BRANCH  13  16
HETATM   16  C   UNL     1       2.592  -4.962   0.294  1.00  0.00     0.035 A 
HETATM   17  C   UNL     1       1.665  -5.314   1.277  1.00  0.00     0.029 A 
HETATM   18  C   UNL     1       1.436  -6.659   1.587  1.00  0.00     0.002 A 
HETATM   19  C   UNL     1       2.137  -7.662   0.924  1.00  0.00     0.000 A 
HETATM   20  C   UNL     1       3.063  -7.323  -0.058  1.00  0.00     0.002 A 
HETATM   21  C   UNL     1       3.285  -5.981  -0.376  1.00  0.00     0.029 A 
ENDBRANCH  13  16
ENDBRANCH  10  12
BRANCH   9  22
HETATM   22  C   UNL     1       5.000  -1.778  -1.559  1.00  0.00    -0.025 A 
HETATM   23  C   UNL     1       4.285  -1.446  -2.727  1.00  0.00     0.046 A 
HETATM   24  C   UNL     1       4.666  -1.981  -3.955  1.00  0.00     0.066 A 
HETATM   25  C   UNL     1       5.759  -2.829  -4.055  1.00  0.00     0.036 A 
HETATM   26  C   UNL     1       6.493  -3.145  -2.914  1.00  0.00     0.003 A 
HETATM   27  C   UNL     1       6.119  -2.622  -1.674  1.00  0.00     0.010 A 
BRANCH  24  28
HETATM   28  O   UNL     1       3.981  -1.693  -5.098  1.00  0.00    -0.361 OA
HETATM   29  H   UNL     1       3.292  -1.037  -4.902  1.00  0.00     0.217 HD
ENDBRANCH  24  28
ENDBRANCH   9  22
BRANCH   7  30
HETATM   30  C   UNL     1       7.671   2.458   0.674  1.00  0.00     0.016 A 
HETATM   31  C   UNL     1       8.927   1.840   0.765  1.00  0.00     0.039 A 
HETATM   32  C   UNL     1      10.055   2.590   1.096  1.00  0.00     0.035 A 
HETATM   33 CL   UNL     1      11.589   1.818   1.210  1.00  0.00    -0.084 Cl
HETATM   34  C   UNL     1       9.951   3.957   1.340  1.00  0.00     0.024 A 
HETATM   35  C   UNL     1       8.708   4.583   1.250  1.00  0.00     0.003 A 
HETATM   36  C   UNL     1       7.575   3.837   0.916  1.00  0.00     0.015 A 
ENDBRANCH   7  30
TORSDOF 5
