REMARK  2 active torsions:
REMARK  status: ('A' for Active; 'I' for Inactive)
REMARK    1  A    between atoms: C_6  and  O_7 
REMARK    2  A    between atoms: C_6  and  C_8 
ROOT
HETATM    1  C   UNL     1       1.095   0.228   0.162  1.00  0.00     0.048 C 
HETATM    2  C   UNL     1       2.595   0.161   0.122  1.00  0.00    -0.059 A 
HETATM    3  C   UNL     1       3.367   1.322   0.228  1.00  0.00     0.037 A 
HETATM    4  C   UNL     1       4.741   1.188   0.188  1.00  0.00     0.046 A 
HETATM    5  C   UNL     1       5.387  -0.049   0.058  1.00  0.00     0.023 A 
HETATM    6  C   UNL     1       6.887   0.183   0.037  1.00  0.00     0.199 A 
HETATM    7  C   UNL     1       6.958   1.752   0.073  1.00  0.00     0.266 A 
HETATM    8  O   UNL     1       7.951   2.453  -0.059  1.00  0.00    -0.269 OA
HETATM    9  N   UNL     1       5.660   2.227   0.220  1.00  0.00    -0.323 N 
HETATM   10  C   UNL     1       4.632  -1.213  -0.085  1.00  0.00    -0.049 A 
HETATM   11  C   UNL     1       5.248  -2.572  -0.238  1.00  0.00     0.049 C 
HETATM   12  C   UNL     1       3.230  -1.091  -0.027  1.00  0.00     0.014 A 
HETATM   13  H   UNL     1       5.437   3.210   0.245  1.00  0.00     0.169 HD
ENDROOT
BRANCH   6  14
HETATM   14  O   UNL     1       7.423  -0.357  -1.161  1.00  0.00    -0.371 OA
HETATM   15  H   UNL     1       8.343  -0.050  -1.195  1.00  0.00     0.212 HD
ENDBRANCH   6  14
BRANCH   6  16
HETATM   16  C   UNL     1       7.517  -0.404   1.288  1.00  0.00     0.018 A 
HETATM   17  C   UNL     1       8.934  -0.435   1.582  1.00  0.00     0.002 A 
HETATM   18  C   UNL     1       9.107  -1.101   2.797  1.00  0.00     0.043 A 
HETATM   19  C   UNL     1      10.092   0.045   0.928  1.00  0.00     0.014 A 
HETATM   20  C   UNL     1      10.363  -1.344   3.366  1.00  0.00     0.030 A 
HETATM   21  N   UNL     1       7.857  -1.423   3.262  1.00  0.00    -0.365 N 
HETATM   22  C   UNL     1      11.488  -0.878   2.683  1.00  0.00     0.002 A 
HETATM   23  C   UNL     1      11.357  -0.185   1.485  1.00  0.00     0.001 A 
HETATM   24  H   UNL     1       7.676  -1.900   4.134  1.00  0.00     0.165 HD
HETATM   25  C   UNL     1       6.901  -0.990   2.387  1.00  0.00     0.100 A 
ENDBRANCH   6  16
TORSDOF 2
