REMARK  9 active torsions:
REMARK  status: ('A' for Active; 'I' for Inactive)
REMARK    1  A    between atoms: C_2  and  C_3 
REMARK    2  A    between atoms: C_6  and  C_7 
REMARK    3  A    between atoms: C_7  and  C_8 
REMARK    4  A    between atoms: C_8  and  N_9 
REMARK    5  A    between atoms: N_9  and  C_11 
REMARK    6  A    between atoms: N_9  and  C_25 
REMARK    7  A    between atoms: C_11  and  C_12 
REMARK       I    between atoms: C_12  and  N_13 
REMARK    8  A    between atoms: N_13  and  C_14 
REMARK    9  A    between atoms: C_17  and  N_18 
REMARK       I    between atoms: N_18  and  C_19 
ROOT
HETATM    1  N   UNL     1       1.625  -6.832  -1.729  1.00  0.00    -0.056 N 
HETATM    2  H   UNL     1       2.169  -6.472  -0.928  1.00  0.00     0.280 HD
ENDROOT
BRANCH   1   3
HETATM    3  C   UNL     1       2.466  -6.471  -2.982  1.00  0.00     0.319 C 
BRANCH   3   4
HETATM    4  C   UNL     1       2.928  -5.024  -2.916  1.00  0.00     0.187 C 
HETATM    5  O   UNL     1       3.198  -4.579  -1.793  1.00  0.00    -0.290 OA
BRANCH   4   6
HETATM    6  C   UNL     1       2.911  -4.170  -4.098  1.00  0.00     0.039 A 
HETATM    7  C   UNL     1       2.680  -4.458  -5.491  1.00  0.00     0.006 A 
HETATM    8  C   UNL     1       2.656  -3.232  -6.168  1.00  0.00     0.049 A 
HETATM    9  C   UNL     1       2.478  -5.628  -6.259  1.00  0.00     0.015 A 
HETATM   10  C   UNL     1       2.388  -3.102  -7.546  1.00  0.00    -0.031 A 
HETATM   11  N   UNL     1       2.945  -2.252  -5.247  1.00  0.00    -0.364 N 
HETATM   12  C   UNL     1       2.172  -4.293  -8.257  1.00  0.00     0.009 A 
HETATM   13  C   UNL     1       2.222  -5.532  -7.631  1.00  0.00     0.002 A 
HETATM   14  C   UNL     1       3.097  -2.801  -4.008  1.00  0.00     0.104 A 
HETATM   15  H   UNL     1       3.025  -1.267  -5.466  1.00  0.00     0.165 HD
BRANCH  10  16
HETATM   16  C   UNL     1       2.351  -1.779  -8.272  1.00  0.00     0.036 C 
HETATM   17  C   UNL     1       3.727  -1.376  -8.778  1.00  0.00     0.010 C 
ENDBRANCH  10  16
ENDBRANCH   4   6
ENDBRANCH   3   4
ENDBRANCH   1   3
BRANCH   1  18
HETATM   18  C   UNL     1       0.291  -6.049  -1.701  1.00  0.00     0.338 C 
BRANCH  18  19
HETATM   19  C   UNL     1      -0.562  -6.236  -2.965  1.00  0.00     0.248 C 
HETATM   20  N   UNL     1      -1.257  -5.104  -3.344  1.00  0.00    -0.326 N 
HETATM   21  H   UNL     1      -1.372  -4.351  -2.674  1.00  0.00     0.169 HD
HETATM   22  O   UNL     1      -0.529  -7.307  -3.567  1.00  0.00    -0.271 OA
BRANCH  20  23
HETATM   23  C   UNL     1      -1.920  -4.901  -4.576  1.00  0.00     0.034 A 
HETATM   24  C   UNL     1      -2.713  -3.757  -4.700  1.00  0.00     0.032 A 
HETATM   25  C   UNL     1      -3.394  -3.480  -5.894  1.00  0.00     0.032 A 
HETATM   26  C   UNL     1      -3.283  -4.335  -6.989  1.00  0.00     0.034 A 
HETATM   27  C   UNL     1      -2.474  -5.469  -6.870  1.00  0.00     0.032 A 
HETATM   28  C   UNL     1      -1.799  -5.752  -5.675  1.00  0.00     0.032 A 
BRANCH  26  29
HETATM   29  N   UNL     1      -3.944  -4.138  -8.218  1.00  0.00    -0.328 N 
HETATM   30  C   UNL     1      -4.786  -3.096  -8.562  1.00  0.00     0.218 C 
HETATM   31  C   UNL     1      -5.342  -3.231  -9.958  1.00  0.00     0.117 C 
HETATM   32  O   UNL     1      -5.068  -2.125  -7.868  1.00  0.00    -0.274 OA
HETATM   33  H   UNL     1      -3.786  -4.844  -8.926  1.00  0.00     0.169 HD
ENDBRANCH  26  29
ENDBRANCH  20  23
ENDBRANCH  18  19
ENDBRANCH   1  18
BRANCH   1  34
HETATM   34  C   UNL     1       1.426  -8.320  -1.565  1.00  0.00     0.231 C 
HETATM   35  C   UNL     1       2.640  -8.936  -0.893  1.00  0.00     0.034 C 
ENDBRANCH   1  34
TORSDOF 9
