REMARK  5 active torsions:
REMARK  status: ('A' for Active; 'I' for Inactive)
REMARK    1  A    between atoms: C_8  and  C_9 
REMARK    2  A    between atoms: C_11  and  O_12 
REMARK    3  A    between atoms: C_14  and  O_15 
REMARK    4  A    between atoms: C_18  and  C_19 
REMARK    5  A    between atoms: C_22  and  O_23 
ROOT
HETATM    1  C   UNL     1       1.037  -0.643  -0.198  1.00  0.00     0.070 C 
HETATM    2  C   UNL     1       2.483  -0.325  -0.136  1.00  0.00     0.033 A 
HETATM    3  N   UNL     1       3.436  -1.307  -0.195  1.00  0.00    -0.282 N 
HETATM    4  H   UNL     1       3.300  -2.309  -0.277  1.00  0.00     0.189 HD
HETATM    5  N   UNL     1       4.694  -0.840  -0.158  1.00  0.00    -0.179 NA
HETATM    6  C   UNL     1       4.536   0.478  -0.050  1.00  0.00     0.066 A 
HETATM    7  C   UNL     1       3.177   0.865  -0.001  1.00  0.00     0.001 A 
HETATM    8  C   UNL     1       2.739   2.300   0.087  1.00  0.00     0.070 C 
HETATM    9  C   UNL     1       3.930   3.268   0.352  1.00  0.00     0.102 C 
HETATM   10  C   UNL     1       5.258   2.863  -0.375  1.00  0.00     0.071 C 
HETATM   11  C   UNL     1       5.173   3.009  -1.901  1.00  0.00     0.047 C 
HETATM   12  C   UNL     1       5.680   1.420   0.011  1.00  0.00     0.100 C 
ENDROOT
BRANCH   8  13
HETATM   13  C   UNL     1       1.685   2.349   1.190  1.00  0.00    -0.046 A 
HETATM   14  C   UNL     1       1.997   2.049   2.535  1.00  0.00     0.047 A 
HETATM   15  C   UNL     1       1.015   2.103   3.527  1.00  0.00     0.101 A 
HETATM   16  C   UNL     1      -0.287   2.461   3.167  1.00  0.00     0.099 A 
HETATM   17  C   UNL     1      -0.623   2.755   1.854  1.00  0.00     0.040 A 
HETATM   18  C   UNL     1       0.360   2.695   0.867  1.00  0.00     0.011 A 
BRANCH  15  19
HETATM   19  O   UNL     1       1.192   1.830   4.859  1.00  0.00    -0.353 OA
HETATM   20  C   UNL     1       2.503   1.450   5.264  1.00  0.00     0.210 C 
ENDBRANCH  15  19
BRANCH  16  21
HETATM   21  O   UNL     1      -1.272   2.524   4.114  1.00  0.00    -0.358 OA
HETATM   22  H   UNL     1      -0.829   2.287   4.952  1.00  0.00     0.218 HD
ENDBRANCH  16  21
ENDBRANCH   8  13
BRANCH   9  23
HETATM   23  C   UNL     1       3.625   4.737   0.048  1.00  0.00     0.131 C 
HETATM   24  C   UNL     1       2.479   5.127  -0.846  1.00  0.00     0.091 C 
HETATM   25  O   UNL     1       4.390   5.611   0.474  1.00  0.00    -0.298 OA
ENDBRANCH   9  23
BRANCH  10  26
HETATM   26  O   UNL     1       6.343   3.704   0.066  1.00  0.00    -0.389 OA
HETATM   27  H   UNL     1       6.019   4.624   0.171  1.00  0.00     0.210 HD
ENDBRANCH  10  26
TORSDOF 5
