REMARK  7 active torsions:
REMARK  status: ('A' for Active; 'I' for Inactive)
REMARK    1  A    between atoms: O_2  and  C_3 
REMARK    2  A    between atoms: C_3  and  C_4 
REMARK    3  A    between atoms: C_4  and  N_5 
REMARK    4  A    between atoms: C_4  and  C_21 
REMARK    5  A    between atoms: N_5  and  C_6 
REMARK    6  A    between atoms: C_21  and  C_22 
REMARK    7  A    between atoms: C_25  and  O_26 
ROOT
HETATM    1  N   UNL     1       2.802  -2.905   2.737  1.00  0.00    -0.277 NA
HETATM    2  H   UNL     1       2.376  -3.827   2.850  1.00  0.00     0.128 HD
ENDROOT
BRANCH   1   3
HETATM    3  C   UNL     1       2.473  -2.386   1.366  1.00  0.00     0.164 C 
BRANCH   3   4
HETATM    4  C   UNL     1       3.362  -1.214   0.918  1.00  0.00     0.276 C 
HETATM    5  O   UNL     1       3.466  -0.138   1.493  1.00  0.00    -0.263 OA
BRANCH   4   6
HETATM    6  O   UNL     1       4.061  -1.563  -0.203  1.00  0.00    -0.325 OA
HETATM    7  C   UNL     1       4.879  -0.520  -0.736  1.00  0.00     0.213 C 
ENDBRANCH   4   6
ENDBRANCH   3   4
BRANCH   3   8
HETATM    8  C   UNL     1       1.001  -1.931   1.348  1.00  0.00     0.068 C 
BRANCH   8   9
HETATM    9  C   UNL     1       0.389  -2.059  -0.028  1.00  0.00    -0.056 A 
HETATM   10  C   UNL     1      -0.207  -3.267  -0.425  1.00  0.00     0.010 A 
HETATM   11  C   UNL     1      -0.746  -3.406  -1.706  1.00  0.00     0.037 A 
HETATM   12  C   UNL     1      -0.685  -2.337  -2.591  1.00  0.00     0.065 A 
HETATM   13  C   UNL     1      -0.099  -1.134  -2.216  1.00  0.00     0.037 A 
HETATM   14  C   UNL     1       0.437  -0.992  -0.935  1.00  0.00     0.010 A 
BRANCH  12  15
HETATM   15  O   UNL     1      -1.196  -2.427  -3.851  1.00  0.00    -0.361 OA
HETATM   16  H   UNL     1      -1.640  -3.285  -3.953  1.00  0.00     0.217 HD
ENDBRANCH  12  15
ENDBRANCH   8   9
ENDBRANCH   3   8
ENDBRANCH   1   3
BRANCH   1  17
HETATM   17  C   UNL     1       4.171  -2.953   3.095  1.00  0.00     0.034 A 
HETATM   18  C   UNL     1       4.634  -2.032   4.074  1.00  0.00     0.013 A 
HETATM   19  C   UNL     1       5.999  -2.038   4.419  1.00  0.00     0.044 A 
HETATM   20  C   UNL     1       3.802  -1.105   4.738  1.00  0.00     0.015 A 
HETATM   21  C   UNL     1       6.505  -1.160   5.392  1.00  0.00     0.030 A 
HETATM   22  N   UNL     1       6.826  -2.900   3.809  1.00  0.00    -0.355 N 
HETATM   23  C   UNL     1       5.657  -0.262   6.036  1.00  0.00     0.002 A 
HETATM   24  C   UNL     1       4.306  -0.233   5.707  1.00  0.00     0.001 A 
HETATM   25  H   UNL     1       7.809  -2.876   4.068  1.00  0.00     0.166 HD
HETATM   26  C   UNL     1       6.439  -3.802   2.891  1.00  0.00     0.044 A 
HETATM   27  C   UNL     1       5.081  -3.875   2.511  1.00  0.00     0.013 A 
HETATM   28  C   UNL     1       7.396  -4.665   2.332  1.00  0.00     0.030 A 
HETATM   29  C   UNL     1       4.727  -4.877   1.577  1.00  0.00     0.015 A 
HETATM   30  C   UNL     1       5.684  -5.732   1.023  1.00  0.00     0.001 A 
HETATM   31  C   UNL     1       7.018  -5.623   1.395  1.00  0.00     0.002 A 
ENDBRANCH   1  17
TORSDOF 7
