REMARK  5 active torsions:
REMARK  status: ('A' for Active; 'I' for Inactive)
REMARK    1  A    between atoms: C_3  and  N_4 
REMARK    2  A    between atoms: N_4  and  C_5 
REMARK    3  A    between atoms: C_5  and  C_6 
REMARK    4  A    between atoms: C_8  and  N_9 
REMARK    5  A    between atoms: C_18  and  C_19 
ROOT
HETATM    1  C   UNL     1       0.939  -0.106   0.260  1.00  0.00     0.053 C 
HETATM    2  C   UNL     1       2.439  -0.162   0.171  1.00  0.00    -0.005 A 
HETATM    3  C   UNL     1       3.179   1.160   0.328  1.00  0.00     0.151 A 
HETATM    4  N   UNL     1       4.484   1.249   0.326  1.00  0.00    -0.146 NA
HETATM    5  N   UNL     1       5.132   0.076   0.152  1.00  0.00    -0.187 N 
HETATM    6  C   UNL     1       4.577  -1.170  -0.015  1.00  0.00     0.181 A 
HETATM    7  C   UNL     1       3.160  -1.296  -0.001  1.00  0.00    -0.003 A 
HETATM    8  C   UNL     1       2.494  -2.641  -0.177  1.00  0.00     0.053 C 
HETATM    9  C   UNL     1       6.484  -0.116   0.089  1.00  0.00     0.258 A 
HETATM   10  N   UNL     1       6.739  -1.400  -0.099  1.00  0.00    -0.123 NA
HETATM   11  N   UNL     1       5.536  -2.061  -0.164  1.00  0.00    -0.128 NA
ENDROOT
BRANCH   3  12
HETATM   12  N   UNL     1       2.472   2.327   0.485  1.00  0.00    -0.366 N 
HETATM   13  H   UNL     1       1.501   2.368   0.185  1.00  0.00     0.161 HD
BRANCH  12  14
HETATM   14  C   UNL     1       3.101   3.646   0.455  1.00  0.00     0.201 C 
BRANCH  14  15
HETATM   15  C   UNL     1       2.060   4.754   0.499  1.00  0.00     0.144 A 
HETATM   16  N   UNL     1       2.422   5.937   1.037  1.00  0.00    -0.220 NA
HETATM   17  C   UNL     1       1.502   6.907   1.043  1.00  0.00     0.104 A 
HETATM   18  C   UNL     1       0.234   6.737   0.535  1.00  0.00     0.063 A 
HETATM   19  C   UNL     1      -0.043   5.503  -0.002  1.00  0.00     0.122 A 
HETATM   20  N   UNL     1       0.845   4.494  -0.040  1.00  0.00    -0.244 NA
BRANCH  17  21
HETATM   21  N   UNL     1       1.870   8.111   1.636  1.00  0.00    -0.287 NA
HETATM   22  H   UNL     1       2.847   8.034   1.910  1.00  0.00     0.125 HD
HETATM   23  H   UNL     1       1.715   8.903   1.023  1.00  0.00     0.125 HD
ENDBRANCH  17  21
ENDBRANCH  14  15
ENDBRANCH  12  14
ENDBRANCH   3  12
BRANCH   9  24
HETATM   24  C   UNL     1       7.419   1.008   0.221  1.00  0.00     0.454 C 
HETATM   25  F   UNL     1       7.186   1.995  -0.687  1.00  0.00    -0.163 F 
HETATM   26  F   UNL     1       7.367   1.588   1.451  1.00  0.00    -0.163 F 
HETATM   27  F   UNL     1       8.714   0.631   0.037  1.00  0.00    -0.163 F 
ENDBRANCH   9  24
TORSDOF 5
