REMARK  7 active torsions:
REMARK  status: ('A' for Active; 'I' for Inactive)
REMARK    1  A    between atoms: C_8  and  C_9 
REMARK    2  A    between atoms: N_10  and  C_11 
REMARK    3  A    between atoms: C_14  and  S_15 
REMARK    4  A    between atoms: S_15  and  C_16 
REMARK    5  A    between atoms: C_16  and  C_17 
REMARK       I    between atoms: C_17  and  N_18 
REMARK    6  A    between atoms: N_21  and  C_22 
REMARK    7  A    between atoms: C_25  and  O_26 
ROOT
HETATM    1  C   UNL     1      -3.324  -2.782   1.313  1.00  0.00     0.167 A 
HETATM    2  N   UNL     1      -2.419  -3.822   1.450  1.00  0.00    -0.302 N 
HETATM    3  C   UNL     1      -2.915  -4.848   0.682  1.00  0.00     0.192 A 
HETATM    4  N   UNL     1      -4.014  -4.459   0.078  1.00  0.00    -0.122 NA
HETATM    5  N   UNL     1      -4.268  -3.172   0.470  1.00  0.00    -0.128 NA
ENDROOT
BRANCH   3   6
HETATM    6  S   UNL     1      -2.331  -6.474   0.654  1.00  0.00    -0.081 SA
BRANCH   6   7
HETATM    7  C   UNL     1      -3.894  -7.369   0.412  1.00  0.00     0.185 C 
BRANCH   7   8
HETATM    8  C   UNL     1      -3.731  -8.876   0.600  1.00  0.00     0.229 C 
HETATM    9  N   UNL     1      -4.904  -9.638   0.550  1.00  0.00    -0.348 N 
HETATM   10  C   UNL     1      -4.752 -11.098   0.545  1.00  0.00     0.145 C 
HETATM   11  C   UNL     1      -6.166  -9.148  -0.027  1.00  0.00     0.145 C 
HETATM   12  C   UNL     1      -5.998 -11.841   1.056  1.00  0.00     0.143 C 
HETATM   13  N   UNL     1      -7.206 -11.375   0.345  1.00  0.00    -0.378 N 
HETATM   14  C   UNL     1      -7.406  -9.914   0.478  1.00  0.00     0.143 C 
HETATM   15  O   UNL     1      -2.639  -9.409   0.808  1.00  0.00    -0.273 OA
BRANCH  13  16
HETATM   16  C   UNL     1      -8.381 -12.132   0.466  1.00  0.00     0.030 A 
HETATM   17  C   UNL     1      -8.562 -13.136   1.432  1.00  0.00     0.032 A 
HETATM   18  C   UNL     1      -9.742 -13.889   1.498  1.00  0.00     0.039 A 
HETATM   19  C   UNL     1     -10.760 -13.648   0.586  1.00  0.00     0.065 A 
HETATM   20  C   UNL     1     -10.615 -12.672  -0.386  1.00  0.00     0.039 A 
HETATM   21  C   UNL     1      -9.433 -11.927  -0.444  1.00  0.00     0.032 A 
BRANCH  19  22
HETATM   22  O   UNL     1     -11.921 -14.361   0.607  1.00  0.00    -0.361 OA
HETATM   23  H   UNL     1     -11.863 -15.026   1.312  1.00  0.00     0.217 HD
ENDBRANCH  19  22
ENDBRANCH  13  16
ENDBRANCH   7   8
ENDBRANCH   6   7
ENDBRANCH   3   6
BRANCH   2  24
HETATM   24  C   UNL     1      -1.253  -3.810   2.307  1.00  0.00     0.094 A 
HETATM   25  C   UNL     1      -0.066  -4.741   2.301  1.00  0.00     0.028 A 
HETATM   26  C   UNL     1       0.087  -3.343   1.779  1.00  0.00     0.028 A 
ENDBRANCH   2  24
BRANCH   1  27
HETATM   27  C   UNL     1      -3.325  -1.406   1.914  1.00  0.00     0.040 A 
HETATM   28  C   UNL     1      -4.302  -0.384   1.661  1.00  0.00     0.006 A 
HETATM   29  C   UNL     1      -5.457  -0.288   0.853  1.00  0.00     0.014 A 
HETATM   30  C   UNL     1      -3.945   0.732   2.422  1.00  0.00     0.043 A 
HETATM   31  C   UNL     1      -6.201   0.898   0.836  1.00  0.00     0.001 A 
HETATM   32  C   UNL     1      -5.817   1.986   1.614  1.00  0.00     0.002 A 
HETATM   33  C   UNL     1      -4.681   1.923   2.424  1.00  0.00     0.030 A 
HETATM   34  N   UNL     1      -2.797   0.406   3.102  1.00  0.00    -0.364 N 
HETATM   35  H   UNL     1      -2.310   1.029   3.731  1.00  0.00     0.165 HD
HETATM   36  C   UNL     1      -2.403  -0.871   2.789  1.00  0.00     0.104 A 
ENDBRANCH   1  27
TORSDOF 7
