REMARK  8 active torsions:
REMARK  status: ('A' for Active; 'I' for Inactive)
REMARK    1  A    between atoms: C_2  and  N_3 
REMARK    2  A    between atoms: C_2  and  C_17 
REMARK    3  A    between atoms: N_3  and  C_6 
REMARK    4  A    between atoms: C_6  and  C_7 
REMARK    5  A    between atoms: C_7  and  O_8 
REMARK    6  A    between atoms: C_7  and  C_9 
REMARK    7  A    between atoms: C_11  and  O_12 
REMARK    8  A    between atoms: C_17  and  C_18 
ROOT
HETATM    1  N   UNL     1       2.963  -0.313  -1.135  1.00  0.00    -0.068 N 
HETATM    2  H   UNL     1       2.813   0.594  -1.625  1.00  0.00     0.277 HD
HETATM    3  H   UNL     1       3.964  -0.517  -1.303  1.00  0.00     0.277 HD
ENDROOT
BRANCH   1   4
HETATM    4  C   UNL     1       2.637  -0.091   0.316  1.00  0.00     0.188 C 
HETATM    5  C   UNL     1       3.166  -1.260   1.139  1.00  0.00     0.040 C 
BRANCH   4   6
HETATM    6  C   UNL     1       3.258   1.238   0.800  1.00  0.00     0.099 C 
BRANCH   6   7
HETATM    7  C   UNL     1       2.771   2.402  -0.012  1.00  0.00     0.078 A 
HETATM    8  S   UNL     1       2.586   3.947   0.697  1.00  0.00    -0.073 SA
HETATM    9  C   UNL     1       2.090   4.586  -0.822  1.00  0.00     0.035 A 
HETATM   10  C   UNL     1       2.103   3.562  -1.773  1.00  0.00     0.074 A 
HETATM   11  C   UNL     1       1.719   5.900  -1.150  1.00  0.00     0.021 A 
HETATM   12  N   UNL     1       2.495   2.313  -1.299  1.00  0.00    -0.245 NA
HETATM   13  C   UNL     1       1.730   3.864  -3.099  1.00  0.00     0.033 A 
HETATM   14  C   UNL     1       1.358   5.170  -3.435  1.00  0.00     0.002 A 
HETATM   15  C   UNL     1       1.354   6.173  -2.471  1.00  0.00     0.002 A 
ENDBRANCH   6   7
ENDBRANCH   4   6
ENDBRANCH   1   4
BRANCH   1  16
HETATM   16  C   UNL     1       2.181  -1.359  -1.880  1.00  0.00     0.269 C 
BRANCH  16  17
HETATM   17  C   UNL     1       2.761  -1.458  -3.306  1.00  0.00     0.177 C 
BRANCH  17  18
HETATM   18  O   UNL     1       4.194  -1.419  -3.195  1.00  0.00    -0.389 OA
HETATM   19  H   UNL     1       4.549  -1.704  -4.062  1.00  0.00     0.210 HD
ENDBRANCH  17  18
BRANCH  17  20
HETATM   20  C   UNL     1       2.295  -2.701  -4.021  1.00  0.00    -0.025 A 
HETATM   21  C   UNL     1       2.936  -3.941  -3.828  1.00  0.00     0.046 A 
HETATM   22  C   UNL     1       2.475  -5.090  -4.474  1.00  0.00     0.068 A 
HETATM   23  C   UNL     1       1.354  -5.006  -5.300  1.00  0.00     0.037 A 
HETATM   24  C   UNL     1       0.707  -3.788  -5.498  1.00  0.00     0.003 A 
HETATM   25  C   UNL     1       1.175  -2.640  -4.862  1.00  0.00     0.010 A 
BRANCH  22  26
HETATM   26  O   UNL     1       3.013  -6.341  -4.368  1.00  0.00    -0.356 OA
HETATM   27  C   UNL     1       4.279  -6.457  -3.731  1.00  0.00     0.210 C 
ENDBRANCH  22  26
ENDBRANCH  17  20
ENDBRANCH  16  17
ENDBRANCH   1  16
TORSDOF 8
