REMARK  5 active torsions:
REMARK  status: ('A' for Active; 'I' for Inactive)
REMARK    1  A    between atoms: O_2  and  C_3 
REMARK    2  A    between atoms: C_10  and  C_11 
REMARK    3  A    between atoms: C_11  and  C_12 
REMARK       I    between atoms: C_12  and  N_13 
REMARK    4  A    between atoms: N_13  and  C_14 
REMARK    5  A    between atoms: C_21  and  O_22 
ROOT
HETATM    1  C   UNL     1       0.398   4.850  -1.026  1.00  0.00     0.226 C 
HETATM    2  N   UNL     1      -0.521   3.950  -0.491  1.00  0.00    -0.326 N 
HETATM    3  O   UNL     1       0.643   4.997  -2.218  1.00  0.00    -0.273 OA
HETATM    4  H   UNL     1      -0.845   4.186   0.438  1.00  0.00     0.169 HD
ENDROOT
BRANCH   1   5
HETATM    5  C   UNL     1       1.091   5.659   0.070  1.00  0.00     0.144 C 
BRANCH   5   6
HETATM    6  C   UNL     1       1.544   7.024  -0.344  1.00  0.00    -0.021 A 
HETATM    7  C   UNL     1       0.779   8.043  -1.005  1.00  0.00     0.001 A 
HETATM    8  C   UNL     1      -0.540   8.123  -1.501  1.00  0.00     0.051 A 
HETATM    9  C   UNL     1       1.603   9.159  -1.149  1.00  0.00     0.043 A 
HETATM   10  C   UNL     1      -0.986   9.292  -2.134  1.00  0.00     0.069 A 
HETATM   11  C   UNL     1      -0.136  10.390  -2.249  1.00  0.00     0.039 A 
HETATM   12  C   UNL     1       1.175  10.343  -1.758  1.00  0.00     0.033 A 
HETATM   13  N   UNL     1       2.821   8.837  -0.600  1.00  0.00    -0.365 N 
HETATM   14  H   UNL     1       3.617   9.460  -0.569  1.00  0.00     0.165 HD
HETATM   15  C   UNL     1       2.796   7.563  -0.104  1.00  0.00     0.097 A 
BRANCH  10  16
HETATM   16  O   UNL     1      -2.279   9.234  -2.583  1.00  0.00    -0.356 OA
HETATM   17  C   UNL     1      -2.690  10.267  -3.471  1.00  0.00     0.210 C 
ENDBRANCH  10  16
ENDBRANCH   5   6
ENDBRANCH   1   5
BRANCH   2  18
HETATM   18  C   UNL     1      -1.355   3.045  -1.201  1.00  0.00     0.047 A 
HETATM   19  C   UNL     1      -1.012   2.318  -2.381  1.00  0.00     0.022 A 
HETATM   20  C   UNL     1      -2.000   1.518  -3.018  1.00  0.00     0.102 A 
HETATM   21  C   UNL     1       0.280   2.263  -2.955  1.00  0.00     0.017 A 
HETATM   22  N   UNL     1      -1.746   0.830  -4.157  1.00  0.00    -0.257 NA
HETATM   23  C   UNL     1      -3.275   1.422  -2.436  1.00  0.00     0.097 A 
HETATM   24  C   UNL     1      -0.512   0.868  -4.690  1.00  0.00     0.117 A 
HETATM   25  C   UNL     1       0.534   1.551  -4.122  1.00  0.00     0.020 A 
HETATM   26  C   UNL     1      -3.571   2.059  -1.231  1.00  0.00     0.041 A 
HETATM   27  C   UNL     1      -2.617   2.861  -0.621  1.00  0.00     0.033 A 
BRANCH  23  28
HETATM   28  O   UNL     1      -4.186   0.603  -3.070  1.00  0.00    -0.354 OA
HETATM   29  C   UNL     1      -5.554   0.965  -2.933  1.00  0.00     0.210 C 
ENDBRANCH  23  28
ENDBRANCH   2  18
TORSDOF 5
