REMARK  4 active torsions:
REMARK  status: ('A' for Active; 'I' for Inactive)
REMARK    1  A    between atoms: C_5  and  C_6 
REMARK    2  A    between atoms: C_16  and  C_17 
REMARK       I    between atoms: C_17  and  N_18 
REMARK    3  A    between atoms: N_18  and  C_19 
REMARK    4  A    between atoms: C_20  and  O_21 
ROOT
HETATM    1  C   UNL     1       7.371  -0.052  -0.912  1.00  0.00     0.202 C 
HETATM    2  N   UNL     1       7.288  -1.156  -1.878  1.00  0.00    -0.083 N 
HETATM    3  C   UNL     1       7.794  -1.095  -3.142  1.00  0.00     0.726 A 
HETATM    4  N   UNL     1       7.640  -2.252  -3.734  1.00  0.00    -0.046 NA
HETATM    5  C   UNL     1       6.982  -2.996  -2.780  1.00  0.00     0.162 A 
HETATM    6  C   UNL     1       6.618  -4.409  -3.004  1.00  0.00     0.096 C 
HETATM    7  N   UNL     1       6.704  -2.351  -1.635  1.00  0.00    -0.141 NA
HETATM    8  N   UNL     1       8.306   0.067  -3.580  1.00  0.00    -0.192 N 
HETATM    9  C   UNL     1       8.146   1.270  -2.892  1.00  0.00     0.037 C 
HETATM   10  C   UNL     1       8.575   2.495  -3.669  1.00  0.00     0.070 C 
HETATM   11  C   UNL     1       7.653   1.278  -1.619  1.00  0.00     0.062 C 
HETATM   12  H   UNL     1       8.585   0.125  -4.555  1.00  0.00     0.184 HD
ENDROOT
BRANCH  11  13
HETATM   13  C   UNL     1       7.333   2.578  -0.928  1.00  0.00     0.256 C 
HETATM   14  N   UNL     1       6.999   2.516   0.407  1.00  0.00    -0.321 N 
HETATM   15  H   UNL     1       6.844   1.631   0.874  1.00  0.00     0.169 HD
HETATM   16  O   UNL     1       7.310   3.621  -1.577  1.00  0.00    -0.267 OA
BRANCH  14  17
HETATM   17  C   UNL     1       6.738   3.624   1.258  1.00  0.00     0.068 A 
HETATM   18  C   UNL     1       6.095   3.367   2.485  1.00  0.00     0.095 A 
HETATM   19  C   UNL     1       5.850   4.416   3.380  1.00  0.00     0.039 A 
HETATM   20  C   UNL     1       6.221   5.721   3.052  1.00  0.00     0.003 A 
HETATM   21  C   UNL     1       6.843   5.981   1.835  1.00  0.00     0.002 A 
HETATM   22  C   UNL     1       7.102   4.938   0.944  1.00  0.00     0.032 A 
BRANCH  18  23
HETATM   23  O   UNL     1       5.743   2.057   2.722  1.00  0.00    -0.354 OA
HETATM   24  C   UNL     1       4.632   1.876   3.597  1.00  0.00     0.210 C 
ENDBRANCH  18  23
ENDBRANCH  14  17
ENDBRANCH  11  13
BRANCH   1  25
HETATM   25  C   UNL     1       8.408  -0.432   0.154  1.00  0.00    -0.028 A 
HETATM   26  C   UNL     1       9.739   0.019   0.107  1.00  0.00     0.010 A 
HETATM   27  C   UNL     1      10.686  -0.441   1.026  1.00  0.00     0.007 A 
HETATM   28  C   UNL     1      10.333  -1.369   2.010  1.00  0.00    -0.062 A 
HETATM   29  C   UNL     1      11.379  -1.933   2.925  1.00  0.00     0.048 C 
HETATM   30  C   UNL     1       9.013  -1.825   2.065  1.00  0.00     0.007 A 
HETATM   31  C   UNL     1       8.061  -1.355   1.157  1.00  0.00     0.010 A 
ENDBRANCH   1  25
TORSDOF 4
