REMARK  3 active torsions:
REMARK  status: ('A' for Active; 'I' for Inactive)
REMARK    1  A    between atoms: C_9  and  C_10 
REMARK    2  A    between atoms: C_16  and  C_17 
REMARK       I    between atoms: C_17  and  N_18 
REMARK    3  A    between atoms: N_18  and  C_19 
ROOT
HETATM    1  C   UNL     1       0.888  -0.022   0.881  1.00  0.00     0.070 C 
HETATM    2  C   UNL     1       2.298  -0.016   0.343  1.00  0.00     0.037 C 
HETATM    3  N   UNL     1       2.825   1.243   0.060  1.00  0.00    -0.191 N 
HETATM    4  C   UNL     1       4.136   1.448  -0.186  1.00  0.00     0.735 A 
HETATM    5  N   UNL     1       4.966   0.372  -0.318  1.00  0.00    -0.092 N 
HETATM    6  N   UNL     1       6.233   0.778  -0.485  1.00  0.00     0.012 NA
HETATM    7  N   UNL     1       6.156   2.106  -0.494  1.00  0.00     0.033 NA
HETATM    8  N   UNL     1       4.855   2.536  -0.308  1.00  0.00     0.030 NA
HETATM    9  C   UNL     1       4.538  -1.023  -0.241  1.00  0.00     0.199 C 
HETATM   10  C   UNL     1       3.076  -1.118   0.193  1.00  0.00     0.062 C 
HETATM   11  H   UNL     1       2.242   2.052   0.264  1.00  0.00     0.184 HD
ENDROOT
BRANCH  10  12
HETATM   12  C   UNL     1       2.647  -2.499   0.546  1.00  0.00     0.256 C 
HETATM   13  N   UNL     1       1.487  -2.894  -0.080  1.00  0.00    -0.323 N 
HETATM   14  H   UNL     1       1.067  -2.245  -0.734  1.00  0.00     0.169 HD
HETATM   15  O   UNL     1       3.362  -3.157   1.291  1.00  0.00    -0.267 OA
BRANCH  13  16
HETATM   16  C   UNL     1       0.789  -4.107   0.102  1.00  0.00     0.035 A 
HETATM   17  C   UNL     1       1.227  -5.144   0.927  1.00  0.00     0.029 A 
HETATM   18  C   UNL     1       0.464  -6.308   1.071  1.00  0.00     0.002 A 
HETATM   19  C   UNL     1      -0.746  -6.442   0.396  1.00  0.00     0.000 A 
HETATM   20  C   UNL     1      -1.193  -5.414  -0.431  1.00  0.00     0.002 A 
HETATM   21  C   UNL     1      -0.426  -4.255  -0.581  1.00  0.00     0.029 A 
ENDBRANCH  13  16
ENDBRANCH  10  12
BRANCH   9  22
HETATM   22  C   UNL     1       4.787  -1.727  -1.563  1.00  0.00    -0.011 A 
HETATM   23  C   UNL     1       4.293  -1.237  -2.771  1.00  0.00     0.125 A 
HETATM   24  N   UNL     1       4.461  -1.847  -3.965  1.00  0.00    -0.272 NA
HETATM   25  C   UNL     1       5.171  -2.995  -3.968  1.00  0.00     0.116 A 
HETATM   26  C   UNL     1       5.704  -3.571  -2.828  1.00  0.00     0.020 A 
HETATM   27  C   UNL     1       5.501  -2.931  -1.609  1.00  0.00     0.012 A 
ENDBRANCH   9  22
TORSDOF 3
