REMARK  3 active torsions:
REMARK  status: ('A' for Active; 'I' for Inactive)
REMARK    1  A    between atoms: C_4  and  N_5 
REMARK       I    between atoms: N_5  and  C_6 
REMARK    2  A    between atoms: C_6  and  C_7 
REMARK    3  A    between atoms: C_7  and  N_8 
ROOT
HETATM    1  N   UNL     1       8.455   4.205  -0.864  1.00  0.00    -0.224 N 
HETATM    2  N   UNL     1       8.898   4.434  -2.180  1.00  0.00    -0.180 NA
HETATM    3  C   UNL     1      10.177   4.424  -2.431  1.00  0.00     0.153 A 
HETATM    4  C   UNL     1      11.138   4.202  -1.386  1.00  0.00     0.028 A 
HETATM    5  C   UNL     1      10.685   3.998  -0.107  1.00  0.00     0.116 A 
HETATM    6  N   UNL     1      11.761   3.801   0.708  1.00  0.00    -0.350 N 
HETATM    7  H   UNL     1      11.706   3.615   1.701  1.00  0.00     0.166 HD
HETATM    8  C   UNL     1      12.922   3.889  -0.032  1.00  0.00     0.044 A 
HETATM    9  C   UNL     1      12.555   4.142  -1.360  1.00  0.00     0.005 A 
HETATM   10  C   UNL     1      14.256   3.761   0.372  1.00  0.00     0.030 A 
HETATM   11  C   UNL     1      15.244   3.899  -0.607  1.00  0.00     0.002 A 
HETATM   12  C   UNL     1      14.911   4.153  -1.935  1.00  0.00     0.001 A 
HETATM   13  C   UNL     1      13.572   4.276  -2.326  1.00  0.00     0.014 A 
HETATM   14  C   UNL     1       9.298   3.998   0.244  1.00  0.00     0.291 A 
HETATM   15  O   UNL     1       8.902   3.850   1.397  1.00  0.00    -0.264 OA
ENDROOT
BRANCH   1  16
HETATM   16  C   UNL     1       7.017   4.175  -0.640  1.00  0.00     0.258 C 
BRANCH  16  17
HETATM   17  C   UNL     1       6.518   2.734  -0.440  1.00  0.00     0.244 C 
HETATM   18  N   UNL     1       5.191   2.589   0.020  1.00  0.00    -0.320 N 
HETATM   19  C   UNL     1       4.278   3.722   0.130  1.00  0.00     0.159 C 
HETATM   20  O   UNL     1       7.244   1.773  -0.714  1.00  0.00    -0.271 OA
BRANCH  18  21
HETATM   21  C   UNL     1       4.718   1.300   0.460  1.00  0.00     0.043 A 
HETATM   22  C   UNL     1       5.592   0.498   1.224  1.00  0.00     0.037 A 
HETATM   23  C   UNL     1       5.198  -0.735   1.760  1.00  0.00    -0.060 A 
HETATM   24  C   UNL     1       6.154  -1.563   2.567  1.00  0.00     0.048 C 
HETATM   25  C   UNL     1       3.894  -1.174   1.548  1.00  0.00     0.007 A 
HETATM   26  C   UNL     1       3.015  -0.408   0.784  1.00  0.00     0.009 A 
HETATM   27  C   UNL     1       3.414   0.817   0.211  1.00  0.00    -0.035 A 
HETATM   28  C   UNL     1       2.418   1.500  -0.686  1.00  0.00     0.050 C 
ENDBRANCH  18  21
ENDBRANCH  16  17
ENDBRANCH   1  16
TORSDOF 3
