REMARK  5 active torsions:
REMARK  status: ('A' for Active; 'I' for Inactive)
REMARK    1  A    between atoms: N_2  and  C_4 
REMARK    2  A    between atoms: C_4  and  C_5 
REMARK    3  A    between atoms: C_5  and  N_6 
REMARK    4  A    between atoms: C_11  and  C_12 
REMARK    5  A    between atoms: C_15  and  O_16 
ROOT
HETATM    1  N   UNL     1       2.568  -0.653   3.481  1.00  0.00    -0.332 N 
HETATM    2  C   UNL     1       1.901  -0.062   4.540  1.00  0.00     0.279 C 
HETATM    3  O   UNL     1       1.033   0.783   4.442  1.00  0.00    -0.265 OA
HETATM    4  C   UNL     1       2.401  -0.702   5.769  1.00  0.00     0.156 A 
HETATM    5  C   UNL     1       3.194  -1.701   5.377  1.00  0.00     0.060 A 
HETATM    6  C   UNL     1       3.249  -1.877   3.906  1.00  0.00     0.161 C 
HETATM    7  O   UNL     1       2.084  -0.328   7.044  1.00  0.00    -0.303 OA
HETATM    8  C   UNL     1       2.725  -1.021   8.049  1.00  0.00     0.090 A 
HETATM    9  C   UNL     1       3.607  -2.084   7.797  1.00  0.00     0.051 A 
HETATM   10  C   UNL     1       3.827  -2.525   6.399  1.00  0.00     0.196 A 
HETATM   11  O   UNL     1       4.466  -3.525   6.113  1.00  0.00    -0.287 OA
HETATM   12  C   UNL     1       2.466  -0.620   9.360  1.00  0.00     0.041 A 
HETATM   13  C   UNL     1       3.109  -1.269  10.416  1.00  0.00     0.045 A 
HETATM   14  C   UNL     1       4.002  -2.307  10.151  1.00  0.00     0.117 A 
HETATM   15  F   UNL     1       4.622  -2.912  11.171  1.00  0.00    -0.206 F 
HETATM   16  C   UNL     1       4.257  -2.727   8.851  1.00  0.00     0.060 A 
ENDROOT
BRANCH   6  17
HETATM   17  C   UNL     1       4.584  -2.097   3.245  1.00  0.00    -0.030 A 
HETATM   18  C   UNL     1       4.748  -3.215   2.403  1.00  0.00     0.012 A 
HETATM   19  C   UNL     1       5.944  -3.430   1.716  1.00  0.00     0.037 A 
HETATM   20  C   UNL     1       6.985  -2.527   1.872  1.00  0.00     0.065 A 
HETATM   21  C   UNL     1       6.851  -1.422   2.706  1.00  0.00     0.037 A 
HETATM   22  C   UNL     1       5.656  -1.207   3.396  1.00  0.00     0.012 A 
BRANCH  20  23
HETATM   23  O   UNL     1       8.167  -2.687   1.214  1.00  0.00    -0.361 OA
HETATM   24  H   UNL     1       8.176  -3.557   0.781  1.00  0.00     0.217 HD
ENDBRANCH  20  23
ENDBRANCH   6  17
BRANCH   1  25
HETATM   25  C   UNL     1       2.555  -0.120   2.120  1.00  0.00     0.155 C 
BRANCH  25  26
HETATM   26  C   UNL     1       1.455  -0.699   1.226  1.00  0.00     0.254 C 
BRANCH  26  27
HETATM   27  N   UNL     1       0.067  -0.418   1.770  1.00  0.00    -0.077 N 
HETATM   28  C   UNL     1      -0.941  -1.400   1.247  1.00  0.00     0.269 C 
HETATM   29  H   UNL     1       0.112  -0.521   2.797  1.00  0.00     0.279 HD
HETATM   30  C   UNL     1      -0.390   1.001   1.553  1.00  0.00     0.269 C 
ENDBRANCH  26  27
ENDBRANCH  25  26
ENDBRANCH   1  25
TORSDOF 5
