REMARK  6 active torsions:
REMARK  status: ('A' for Active; 'I' for Inactive)
REMARK    1  A    between atoms: C_4  and  N_5 
REMARK       I    between atoms: N_5  and  C_6 
REMARK       I    between atoms: C_6  and  N_16 
REMARK    2  A    between atoms: N_16  and  CA_17 
REMARK    3  A    between atoms: CA_17  and  C_18 
REMARK    4  A    between atoms: CA_17  and  CB_20 
REMARK    5  A    between atoms: C_18  and  O_19 
REMARK    6  A    between atoms: CB_20  and  CG_21 
ROOT
HETATM    1  N   UNK A   0       2.862  -0.654  -2.923  1.00  0.00    -0.307 N 
HETATM    2  C   UNK A   0       2.644   0.638  -2.577  1.00  0.00     0.321 C 
HETATM    3  O   UNK A   0       2.350   1.457  -3.447  1.00  0.00    -0.247 OA
HETATM    4  H   UNK A   0       2.587  -0.848  -3.885  1.00  0.00     0.170 HD
ATOM      5  N   TRP A   1       2.726   0.969  -1.261  1.00  0.00    -0.336 N 
ATOM      6  H   TRP A   1       2.451   0.238  -0.619  1.00  0.00     0.164 HD
ENDROOT
BRANCH   5   7
ATOM      7  CA  TRP A   1       2.405   2.326  -0.798  1.00  0.00     0.114 C 
BRANCH   7   8
ATOM      8  C   TRP A   1       3.126   2.583   0.535  1.00  0.00     0.189 C 
BRANCH   8   9
ATOM      9  O   TRP A   1       2.704   1.648   1.531  1.00  0.00    -0.399 OA
ATOM     10  H   TRP A   1       3.155   1.905   2.354  1.00  0.00     0.209 HD
ENDBRANCH   8   9
ENDBRANCH   7   8
BRANCH   7  11
ATOM     11  CB  TRP A   1       0.877   2.513  -0.690  1.00  0.00     0.068 C 
BRANCH  11  12
ATOM     12  CG  TRP A   1       0.460   3.945  -0.535  1.00  0.00    -0.028 A 
ATOM     13  CD2 TRP A   1       0.063   4.612   0.669  1.00  0.00    -0.002 A 
ATOM     14  CE2 TRP A   1      -0.255   5.928   0.331  1.00  0.00     0.042 A 
ATOM     15  CE3 TRP A   1      -0.059   4.217   2.017  1.00  0.00     0.014 A 
ATOM     16  CZ2 TRP A   1      -0.691   6.869   1.272  1.00  0.00     0.030 A 
ATOM     17  NE1 TRP A   1      -0.061   6.057  -1.024  1.00  0.00    -0.365 N 
ATOM     18  CH2 TRP A   1      -0.803   6.451   2.601  1.00  0.00     0.002 A 
ATOM     19  CZ3 TRP A   1      -0.492   5.145   2.971  1.00  0.00     0.001 A 
ATOM     20  HE1 TRP A   1      -0.224   6.905  -1.549  1.00  0.00     0.165 HD
ATOM     21  CD1 TRP A   1       0.370   4.873  -1.554  1.00  0.00     0.096 A 
ENDBRANCH  11  12
ENDBRANCH   7  11
ENDBRANCH   5   7
BRANCH   1  22
HETATM   22  C   UNK A   0       3.397  -1.787  -2.267  1.00  0.00     0.066 A 
HETATM   23  C   UNK A   0       4.063  -1.739  -1.036  1.00  0.00     0.038 A 
HETATM   24  C   UNK A   0       4.556  -2.909  -0.446  1.00  0.00    -0.059 A 
HETATM   25  C   UNK A   0       5.283  -2.859   0.866  1.00  0.00     0.048 C 
HETATM   26  C   UNK A   0       4.419  -4.122  -1.126  1.00  0.00     0.020 A 
HETATM   27  C   UNK A   0       3.790  -4.174  -2.379  1.00  0.00    -0.005 A 
HETATM   28  C   UNK A   0       3.272  -3.001  -2.966  1.00  0.00     0.093 A 
HETATM   29  C   UNK A   0       3.665  -5.381  -3.082  1.00  0.00     0.015 A 
HETATM   30  N   UNK A   0       2.666  -3.027  -4.179  1.00  0.00    -0.258 NA
HETATM   31  C   UNK A   0       2.566  -4.208  -4.825  1.00  0.00     0.117 A 
HETATM   32  C   UNK A   0       3.045  -5.401  -4.324  1.00  0.00     0.020 A 
ENDBRANCH   1  22
TORSDOF 6
