REMARK  10 active torsions:
REMARK  status: ('A' for Active; 'I' for Inactive)
REMARK    1  A    between atoms: C_2  and  O_3 
REMARK    2  A    between atoms: O_3  and  C_4 
REMARK    3  A    between atoms: C_7  and  N_8 
REMARK    4  A    between atoms: C_9  and  S_10 
REMARK    5  A    between atoms: S_10  and  C_11 
REMARK    6  A    between atoms: C_11  and  C_12 
REMARK       I    between atoms: C_12  and  N_13 
REMARK    7  A    between atoms: N_13  and  C_14 
REMARK    8  A    between atoms: C_15  and  O_16 
REMARK    9  A    between atoms: C_19  and  O_20 
REMARK   10  A    between atoms: C_29  and  N_30 
ROOT
HETATM    1  N   UNL     1       8.729   0.158  -2.435  1.00  0.00    -0.276 N 
HETATM    2  C   UNL     1       9.351  -1.046  -2.606  1.00  0.00     0.177 A 
HETATM    3  N   UNL     1      10.564  -1.196  -3.151  1.00  0.00    -0.204 NA
HETATM    4  C   UNL     1      11.102  -0.058  -3.565  1.00  0.00     0.162 A 
HETATM    5  C   UNL     1      10.557   1.199  -3.440  1.00  0.00     0.081 A 
HETATM    6  C   UNL     1       9.312   1.340  -2.806  1.00  0.00     0.124 A 
HETATM    7  N   UNL     1      12.301   0.076  -4.199  1.00  0.00    -0.260 N 
HETATM    8  H   UNL     1      12.954  -0.660  -4.455  1.00  0.00     0.191 HD
HETATM    9  N   UNL     1      12.588   1.353  -4.499  1.00  0.00    -0.177 NA
HETATM   10  C   UNL     1      11.532   2.044  -4.051  1.00  0.00     0.068 A 
HETATM   11  C   UNL     1      11.500   3.518  -4.242  1.00  0.00     0.073 C 
ENDROOT
BRANCH   2  12
HETATM   12  S   UNL     1       8.597  -2.606  -2.104  1.00  0.00    -0.082 SA
BRANCH  12  13
HETATM   13  C   UNL     1       9.447  -3.811  -3.205  1.00  0.00     0.185 C 
BRANCH  13  14
HETATM   14  C   UNL     1      10.931  -3.960  -2.897  1.00  0.00     0.232 C 
HETATM   15  N   UNL     1      11.379  -4.367  -1.677  1.00  0.00    -0.324 N 
HETATM   16  H   UNL     1      12.351  -4.114  -1.510  1.00  0.00     0.169 HD
HETATM   17  O   UNL     1      11.773  -3.620  -3.738  1.00  0.00    -0.272 OA
BRANCH  15  18
HETATM   18  C   UNL     1      10.811  -5.129  -0.639  1.00  0.00     0.070 A 
HETATM   19  C   UNL     1      11.430  -5.045   0.627  1.00  0.00     0.097 A 
HETATM   20  C   UNL     1      10.971  -5.834   1.691  1.00  0.00     0.077 A 
HETATM   21  C   UNL     1       9.913  -6.729   1.503  1.00  0.00     0.092 A 
HETATM   22  C   UNL     1       9.320  -6.819   0.234  1.00  0.00     0.069 A 
HETATM   23 CL   UNL     1       8.035  -7.934  -0.083  1.00  0.00    -0.081 Cl
HETATM   24  C   UNL     1       9.766  -6.028  -0.830  1.00  0.00     0.059 A 
BRANCH  19  25
HETATM   25  O   UNL     1      12.464  -4.140   0.711  1.00  0.00    -0.354 OA
HETATM   26  C   UNL     1      13.130  -4.015   1.963  1.00  0.00     0.210 C 
ENDBRANCH  19  25
BRANCH  21  27
HETATM   27  O   UNL     1       9.404  -7.548   2.476  1.00  0.00    -0.354 OA
HETATM   28  C   UNL     1      10.013  -7.526   3.760  1.00  0.00     0.210 C 
ENDBRANCH  21  27
ENDBRANCH  15  18
ENDBRANCH  13  14
ENDBRANCH  12  13
ENDBRANCH   2  12
BRANCH   1  29
HETATM   29  C   UNL     1       7.397   0.207  -1.896  1.00  0.00     0.043 A 
HETATM   30  C   UNL     1       7.200   0.014  -0.527  1.00  0.00     0.033 A 
HETATM   31  C   UNL     1       5.919   0.201   0.005  1.00  0.00     0.039 A 
HETATM   32  C   UNL     1       4.863   0.597  -0.822  1.00  0.00     0.068 A 
HETATM   33  C   UNL     1       5.087   0.783  -2.192  1.00  0.00     0.039 A 
HETATM   34  C   UNL     1       6.354   0.591  -2.740  1.00  0.00     0.033 A 
BRANCH  32  35
HETATM   35  O   UNL     1       3.583   0.857  -0.428  1.00  0.00    -0.352 OA
BRANCH  35  36
HETATM   36  C   UNL     1       3.259   0.692   0.952  1.00  0.00     0.171 C 
HETATM   37  C   UNL     1       1.818   1.129   1.147  1.00  0.00     0.034 C 
ENDBRANCH  35  36
ENDBRANCH  32  35
ENDBRANCH   1  29
BRANCH   6  38
HETATM   38  N   UNL     1       8.724   2.582  -2.585  1.00  0.00    -0.384 N 
HETATM   39  H   UNL     1       9.292   3.413  -2.721  1.00  0.00     0.157 HD
HETATM   40  H   UNL     1       7.973   2.699  -1.914  1.00  0.00     0.157 HD
ENDBRANCH   6  38
TORSDOF 10
