REMARK  9 active torsions:
REMARK  status: ('A' for Active; 'I' for Inactive)
REMARK    1  A    between atoms: C_2  and  O_3 
REMARK    2  A    between atoms: O_3  and  C_4 
REMARK    3  A    between atoms: C_5  and  C_6 
REMARK    4  A    between atoms: N_7  and  C_9 
REMARK    5  A    between atoms: C_9  and  C_10 
REMARK       I    between atoms: C_10  and  N_11 
REMARK    6  A    between atoms: N_11  and  C_12 
REMARK    7  A    between atoms: C_20  and  C_21 
REMARK    8  A    between atoms: C_21  and  O_22 
REMARK    9  A    between atoms: C_28  and  O_29 
ROOT
HETATM    1  C   UNL     1       1.180   0.698   0.266  1.00  0.00     0.231 C 
HETATM    2  N   UNL     1      -0.111   0.633   1.100  1.00  0.00    -0.054 N 
HETATM    3  H   UNL     1      -0.594  -0.119   0.580  1.00  0.00     0.281 HD
HETATM    4  C   UNL     1      -0.986   1.840   0.987  1.00  0.00     0.239 C 
HETATM    5  C   UNL     1      -0.210   3.098   1.328  1.00  0.00     0.066 C 
HETATM    6  C   UNL     1       0.975   3.248   0.377  1.00  0.00     0.065 C 
HETATM    7  C   UNL     1       1.929   2.036   0.517  1.00  0.00     0.055 C 
HETATM    8  C   UNL     1       1.728   4.565   0.628  1.00  0.00     0.038 C 
HETATM    9  C   UNL     1       2.913   4.728  -0.323  1.00  0.00     0.003 C 
HETATM   10  C   UNL     1       3.847   3.526  -0.262  1.00  0.00     0.001 C 
HETATM   11  C   UNL     1       3.108   2.207  -0.474  1.00  0.00     0.010 C 
ENDROOT
BRANCH   2  12
HETATM   12  C   UNL     1       0.008   0.074   2.532  1.00  0.00     0.338 C 
BRANCH  12  13
HETATM   13  C   UNL     1      -0.496  -1.379   2.618  1.00  0.00     0.248 C 
HETATM   14  N   UNL     1      -1.681  -1.539   1.906  1.00  0.00    -0.319 N 
HETATM   15  H   UNL     1      -2.252  -0.723   1.706  1.00  0.00     0.169 HD
HETATM   16  O   UNL     1       0.127  -2.224   3.245  1.00  0.00    -0.271 OA
BRANCH  14  17
HETATM   17  C   UNL     1      -2.224  -2.720   1.421  1.00  0.00     0.094 A 
HETATM   18  S   UNL     1      -1.457  -4.209   1.699  1.00  0.00    -0.075 SA
HETATM   19  C   UNL     1      -2.617  -5.054   0.801  1.00  0.00    -0.008 A 
HETATM   20  C   UNL     1      -3.610  -4.231   0.307  1.00  0.00    -0.026 A 
HETATM   21  C   UNL     1      -2.542  -6.537   0.598  1.00  0.00     0.047 C 
HETATM   22  C   UNL     1      -4.733  -4.773  -0.540  1.00  0.00     0.041 C 
HETATM   23  C   UNL     1      -3.366  -2.840   0.634  1.00  0.00     0.080 A 
HETATM   24  C   UNL     1      -4.812  -6.306  -0.502  1.00  0.00     0.005 C 
HETATM   25  C   UNL     1      -3.426  -6.954  -0.587  1.00  0.00     0.005 C 
BRANCH  23  26
HETATM   26  C   UNL     1      -4.188  -1.724   0.148  1.00  0.00     0.296 C 
HETATM   27  O   UNL     1      -5.279  -1.873  -0.382  1.00  0.00    -0.259 OA
BRANCH  26  28
HETATM   28  O   UNL     1      -3.577  -0.500   0.296  1.00  0.00    -0.322 OA
HETATM   29  C   UNL     1      -4.271   0.606  -0.302  1.00  0.00     0.213 C 
ENDBRANCH  26  28
ENDBRANCH  23  26
ENDBRANCH  14  17
ENDBRANCH  12  13
ENDBRANCH   2  12
BRANCH   1  30
HETATM   30  C   UNL     1       1.968  -0.601   0.406  1.00  0.00     0.006 A 
HETATM   31  C   UNL     1       1.479  -1.770  -0.217  1.00  0.00     0.077 A 
HETATM   32  C   UNL     1       2.147  -2.988  -0.055  1.00  0.00     0.037 A 
HETATM   33  C   UNL     1       3.308  -3.055   0.714  1.00  0.00     0.003 A 
HETATM   34  C   UNL     1       3.799  -1.915   1.337  1.00  0.00     0.001 A 
HETATM   35  C   UNL     1       3.131  -0.699   1.193  1.00  0.00     0.012 A 
BRANCH  31  36
HETATM   36  O   UNL     1       0.296  -1.627  -0.904  1.00  0.00    -0.351 OA
BRANCH  36  37
HETATM   37  C   UNL     1       0.014  -2.642  -1.877  1.00  0.00     0.171 C 
HETATM   38  C   UNL     1      -1.143  -2.156  -2.731  1.00  0.00     0.034 C 
ENDBRANCH  36  37
ENDBRANCH  31  36
ENDBRANCH   1  30
BRANCH   6  39
HETATM   39  O   UNL     1       0.436   3.256  -0.952  1.00  0.00    -0.389 OA
HETATM   40  H   UNL     1       0.323   4.180  -1.252  1.00  0.00     0.210 HD
ENDBRANCH   6  39
TORSDOF 9
