REMARK  3 active torsions:
REMARK  status: ('A' for Active; 'I' for Inactive)
REMARK    1  A    between atoms: C_9  and  C_10 
REMARK       I    between atoms: C_10  and  N_11 
REMARK    2  A    between atoms: N_11  and  C_12 
REMARK    3  A    between atoms: C_20  and  N_21 
ROOT
HETATM    1  C   UNL     1       3.567   4.614  -0.223  1.00  0.00     0.258 C 
HETATM    2  N   UNL     1       2.315   5.150   0.009  1.00  0.00    -0.305 N 
HETATM    3  O   UNL     1       3.876   3.430  -0.260  1.00  0.00    -0.267 OA
HETATM    4  H   UNL     1       2.210   6.143   0.133  1.00  0.00     0.170 HD
ENDROOT
BRANCH   2   5
HETATM    5  C   UNL     1       1.153   4.411   0.154  1.00  0.00     0.163 A 
HETATM    6  N   UNL     1       1.073   3.085   0.058  1.00  0.00    -0.155 NA
HETATM    7  N   UNL     1      -0.218   2.802   0.259  1.00  0.00    -0.275 N 
HETATM    8  H   UNL     1      -0.501   1.828   0.235  1.00  0.00     0.189 HD
HETATM    9  C   UNL     1      -1.005   3.901   0.467  1.00  0.00     0.064 A 
HETATM   10  C   UNL     1      -0.132   4.983   0.408  1.00  0.00     0.042 A 
HETATM   11  C   UNL     1      -2.380   4.026   0.695  1.00  0.00     0.034 A 
HETATM   12  C   UNL     1      -0.647   6.283   0.584  1.00  0.00     0.053 A 
HETATM   13  C   UNL     1      -2.030   6.429   0.809  1.00  0.00     0.103 A 
HETATM   14  C   UNL     1      -2.884   5.320   0.865  1.00  0.00     0.038 A 
BRANCH  13  15
HETATM   15  N   UNL     1      -2.584   7.779   0.983  1.00  0.00    -0.116 N 
HETATM   16  O   UNL     1      -3.798   7.882   1.207  1.00  0.00    -0.532 OA
HETATM   17  O   UNL     1      -1.801   8.736   0.891  1.00  0.00    -0.532 OA
ENDBRANCH  13  15
ENDBRANCH   2   5
BRANCH   1  18
HETATM   18  C   UNL     1       4.658   5.606  -0.419  1.00  0.00     0.051 A 
HETATM   19  C   UNL     1       5.963   5.222  -0.103  1.00  0.00     0.136 A 
HETATM   20  N   UNL     1       7.073   5.994  -0.222  1.00  0.00    -0.233 NA
HETATM   21  C   UNL     1       6.808   7.219  -0.716  1.00  0.00     0.206 A 
HETATM   22  O   UNL     1       7.752   8.176  -0.935  1.00  0.00    -0.192 OA
HETATM   23  C   UNL     1       5.567   7.720  -1.085  1.00  0.00     0.047 A 
HETATM   24  N   UNL     1       7.153   9.317  -1.451  1.00  0.00    -0.130 NA
HETATM   25  C   UNL     1       5.847   9.032  -1.541  1.00  0.00     0.073 A 
HETATM   26  C   UNL     1       4.898  10.044  -2.059  1.00  0.00     0.074 C 
HETATM   27  C   UNL     1       4.442   6.889  -0.942  1.00  0.00     0.036 A 
ENDBRANCH   1  18
TORSDOF 3
