REMARK  10 active torsions:
REMARK  status: ('A' for Active; 'I' for Inactive)
REMARK    1  A    between atoms: C_2  and  O_3 
REMARK    2  A    between atoms: O_3  and  C_4 
REMARK    3  A    between atoms: C_9  and  C_10 
REMARK    4  A    between atoms: C_10  and  O_11 
REMARK    5  A    between atoms: O_11  and  C_12 
REMARK    6  A    between atoms: C_12  and  C_13 
REMARK       I    between atoms: C_13  and  N_14 
REMARK    7  A    between atoms: N_14  and  C_15 
REMARK    8  A    between atoms: C_16  and  C_17 
REMARK       I    between atoms: C_17  and  N_18 
REMARK    9  A    between atoms: N_18  and  C_19 
REMARK   10  A    between atoms: C_19  and  C_20 
ROOT
HETATM    1  C   UNL     1       7.252 -10.925  -3.353  1.00  0.00     0.050 A 
HETATM    2  C   UNL     1       6.985  -9.913  -4.303  1.00  0.00     0.058 A 
HETATM    3  C   UNL     1       7.953  -9.566  -5.263  1.00  0.00     0.019 A 
HETATM    4  C   UNL     1       9.198 -10.189  -5.273  1.00  0.00     0.001 A 
HETATM    5  C   UNL     1       9.480 -11.164  -4.325  1.00  0.00     0.002 A 
HETATM    6  C   UNL     1       8.518 -11.528  -3.377  1.00  0.00     0.030 A 
ENDROOT
BRANCH   1   7
HETATM    7  N   UNL     1       6.247 -11.327  -2.434  1.00  0.00    -0.324 N 
HETATM    8  C   UNL     1       6.386 -12.165  -1.340  1.00  0.00     0.246 C 
HETATM    9  O   UNL     1       7.420 -12.715  -0.969  1.00  0.00    -0.271 OA
HETATM   10  H   UNL     1       5.297 -11.002  -2.638  1.00  0.00     0.169 HD
BRANCH   8  11
HETATM   11  C   UNL     1       5.095 -12.337  -0.535  1.00  0.00     0.282 C 
BRANCH  11  12
HETATM   12  O   UNL     1       4.266 -13.395  -1.009  1.00  0.00    -0.308 OA
BRANCH  12  13
HETATM   13  C   UNL     1       3.493 -13.079  -2.079  1.00  0.00     0.298 C 
HETATM   14  O   UNL     1       3.482 -11.993  -2.632  1.00  0.00    -0.259 OA
BRANCH  13  15
HETATM   15  C   UNL     1       2.672 -14.257  -2.434  1.00  0.00     0.092 A 
HETATM   16  C   UNL     1       2.357 -14.549  -3.756  1.00  0.00     0.180 A 
HETATM   17  N   UNL     1       1.594 -15.614  -4.116  1.00  0.00    -0.236 NA
HETATM   18  C   UNL     1       1.128 -16.410  -3.129  1.00  0.00     0.119 A 
HETATM   19  C   UNL     1       1.388 -16.199  -1.787  1.00  0.00     0.020 A 
HETATM   20  C   UNL     1       2.171 -15.104  -1.435  1.00  0.00     0.023 A 
BRANCH  16  21
HETATM   21  O   UNL     1       2.880 -13.753  -4.753  1.00  0.00    -0.334 OA
BRANCH  21  22
HETATM   22  C   UNL     1       2.470 -14.130  -6.069  1.00  0.00     0.173 C 
HETATM   23  C   UNL     1       3.091 -13.155  -7.052  1.00  0.00     0.034 C 
ENDBRANCH  21  22
ENDBRANCH  16  21
ENDBRANCH  13  15
ENDBRANCH  12  13
ENDBRANCH  11  12
ENDBRANCH   8  11
ENDBRANCH   1   7
BRANCH   2  24
HETATM   24  C   UNL     1       5.730  -9.107  -4.336  1.00  0.00     0.254 C 
HETATM   25  N   UNL     1       5.164  -8.827  -3.110  1.00  0.00    -0.349 N 
HETATM   26  H   UNL     1       5.757  -8.952  -2.298  1.00  0.00     0.163 HD
HETATM   27  O   UNL     1       5.304  -8.671  -5.399  1.00  0.00    -0.268 OA
BRANCH  25  28
HETATM   28  C   UNL     1       4.064  -7.882  -2.965  1.00  0.00     0.114 C 
HETATM   29  C   UNL     1       2.779  -8.353  -3.654  1.00  0.00     0.037 C 
BRANCH  28  30
HETATM   30  C   UNL     1       3.847  -7.614  -1.483  1.00  0.00    -0.036 A 
HETATM   31  C   UNL     1       3.250  -8.570  -0.644  1.00  0.00     0.009 A 
HETATM   32  C   UNL     1       3.088  -8.321   0.720  1.00  0.00     0.001 A 
HETATM   33  C   UNL     1       3.527  -7.117   1.265  1.00  0.00     0.000 A 
HETATM   34  C   UNL     1       4.130  -6.162   0.449  1.00  0.00     0.001 A 
HETATM   35  C   UNL     1       4.293  -6.410  -0.916  1.00  0.00     0.009 A 
ENDBRANCH  28  30
ENDBRANCH  25  28
ENDBRANCH   2  24
TORSDOF 10
