REMARK  4 active torsions:
REMARK  status: ('A' for Active; 'I' for Inactive)
REMARK    1  A    between atoms: C_9  and  C_10 
REMARK    2  A    between atoms: C_18  and  C_19 
REMARK       I    between atoms: C_19  and  N_20 
REMARK    3  A    between atoms: N_20  and  C_21 
REMARK    4  A    between atoms: C_24  and  O_25 
ROOT
HETATM    1  C   UNL     1       1.065   0.112   0.711  1.00  0.00     0.070 C 
HETATM    2  C   UNL     1       2.419  -0.077   0.074  1.00  0.00     0.037 C 
HETATM    3  N   UNL     1       3.062   1.091  -0.325  1.00  0.00    -0.192 N 
HETATM    4  C   UNL     1       4.353   1.128  -0.707  1.00  0.00     0.725 A 
HETATM    5  N   UNL     1       5.050  -0.042  -0.834  1.00  0.00    -0.084 N 
HETATM    6  N   UNL     1       6.340   0.187  -1.157  1.00  0.00    -0.149 NA
HETATM    7  C   UNL     1       6.339   1.523  -1.243  1.00  0.00     0.275 A 
HETATM    8  N   UNL     1       5.141   2.136  -0.977  1.00  0.00    -0.054 NA
HETATM    9  C   UNL     1       4.473  -1.372  -0.607  1.00  0.00     0.202 C 
HETATM   10  C   UNL     1       3.050  -1.269  -0.066  1.00  0.00     0.062 C 
HETATM   11  H   UNL     1       2.595   1.975  -0.138  1.00  0.00     0.184 HD
ENDROOT
BRANCH  10  12
HETATM   12  C   UNL     1       2.491  -2.577   0.372  1.00  0.00     0.256 C 
HETATM   13  N   UNL     1       1.260  -2.860  -0.179  1.00  0.00    -0.323 N 
HETATM   14  H   UNL     1       0.859  -2.167  -0.798  1.00  0.00     0.169 HD
HETATM   15  O   UNL     1       3.170  -3.289   1.100  1.00  0.00    -0.267 OA
BRANCH  13  16
HETATM   16  C   UNL     1       0.481  -4.018   0.026  1.00  0.00     0.035 A 
HETATM   17  C   UNL     1       0.899  -5.118   0.774  1.00  0.00     0.032 A 
HETATM   18  C   UNL     1       0.060  -6.227   0.929  1.00  0.00     0.039 A 
HETATM   19  C   UNL     1      -1.210  -6.253   0.351  1.00  0.00     0.068 A 
HETATM   20  C   UNL     1      -1.633  -5.158  -0.396  1.00  0.00     0.039 A 
HETATM   21  C   UNL     1      -0.790  -4.050  -0.561  1.00  0.00     0.032 A 
BRANCH  19  22
HETATM   22  O   UNL     1      -1.924  -7.394   0.589  1.00  0.00    -0.356 OA
HETATM   23  C   UNL     1      -3.244  -7.450   0.065  1.00  0.00     0.210 C 
ENDBRANCH  19  22
ENDBRANCH  13  16
ENDBRANCH  10  12
BRANCH   9  24
HETATM   24  C   UNL     1       4.542  -2.209  -1.885  1.00  0.00    -0.026 A 
HETATM   25  C   UNL     1       4.005  -1.751  -3.102  1.00  0.00     0.035 A 
HETATM   26  C   UNL     1       4.067  -2.543  -4.255  1.00  0.00     0.056 A 
HETATM   27 CL   UNL     1       3.381  -1.899  -5.705  1.00  0.00    -0.083 Cl
HETATM   28  C   UNL     1       4.661  -3.807  -4.204  1.00  0.00     0.055 A 
HETATM   29 CL   UNL     1       4.771  -4.838  -5.586  1.00  0.00    -0.083 Cl
HETATM   30  C   UNL     1       5.186  -4.276  -2.998  1.00  0.00     0.026 A 
HETATM   31  C   UNL     1       5.125  -3.486  -1.847  1.00  0.00     0.011 A 
ENDBRANCH   9  24
TORSDOF 4
