REMARK  7 active torsions:
REMARK  status: ('A' for Active; 'I' for Inactive)
REMARK    1  A    between atoms: C_3  and  N_4 
REMARK       I    between atoms: N_4  and  C_5 
REMARK    2  A    between atoms: C_5  and  C_6 
REMARK    3  A    between atoms: C_7  and  C_8 
REMARK    4  A    between atoms: C_20  and  C_21 
REMARK    5  A    between atoms: C_21  and  C_22 
REMARK    6  A    between atoms: C_22  and  C_23 
REMARK    7  A    between atoms: C_23  and  O_24 
ROOT
HETATM    1  C   UNL     1       4.609   3.404   0.186  1.00  0.00     0.062 C 
HETATM    2  C   UNL     1       5.243   4.766  -0.121  1.00  0.00     0.202 C 
HETATM    3  N   UNL     1       6.703   4.709   0.017  1.00  0.00    -0.083 N 
HETATM    4  C   UNL     1       7.371   3.680   0.619  1.00  0.00     0.726 A 
HETATM    5  N   UNL     1       6.686   2.593   1.015  1.00  0.00    -0.192 N 
HETATM    6  N   UNL     1       7.544   5.708  -0.325  1.00  0.00    -0.140 NA
HETATM    7  C   UNL     1       8.699   5.241   0.170  1.00  0.00     0.166 A 
HETATM    8  N   UNL     1       8.637   3.986   0.730  1.00  0.00    -0.046 NA
HETATM    9  C   UNL     1       5.326   2.418   0.787  1.00  0.00     0.037 C 
HETATM   10  C   UNL     1       4.754   1.117   1.295  1.00  0.00     0.070 C 
HETATM   11  H   UNL     1       7.194   1.842   1.475  1.00  0.00     0.184 HD
ENDROOT
BRANCH   1  12
HETATM   12  C   UNL     1       3.170   3.287  -0.204  1.00  0.00     0.256 C 
HETATM   13  N   UNL     1       2.839   2.074  -0.762  1.00  0.00    -0.323 N 
HETATM   14  H   UNL     1       3.613   1.526  -1.117  1.00  0.00     0.169 HD
HETATM   15  O   UNL     1       2.444   4.270  -0.143  1.00  0.00    -0.267 OA
BRANCH  13  16
HETATM   16  C   UNL     1       1.555   1.549  -1.037  1.00  0.00     0.041 A 
HETATM   17  C   UNL     1       0.350   1.905  -0.401  1.00  0.00    -0.035 A 
HETATM   18  C   UNL     1       0.224   2.887   0.731  1.00  0.00     0.050 C 
HETATM   19  C   UNL     1      -0.845   1.275  -0.812  1.00  0.00     0.009 A 
HETATM   20  C   UNL     1      -0.849   0.277  -1.783  1.00  0.00     0.001 A 
HETATM   21  C   UNL     1       0.346  -0.113  -2.367  1.00  0.00     0.002 A 
HETATM   22  C   UNL     1       1.535   0.516  -1.994  1.00  0.00     0.030 A 
ENDBRANCH  13  16
ENDBRANCH   1  12
BRANCH   2  23
HETATM   23  C   UNL     1       4.714   5.899   0.764  1.00  0.00    -0.026 A 
HETATM   24  C   UNL     1       4.772   5.826   2.168  1.00  0.00     0.035 A 
HETATM   25  C   UNL     1       4.286   6.871   2.962  1.00  0.00     0.056 A 
HETATM   26 CL   UNL     1       4.388   6.688   4.678  1.00  0.00    -0.083 Cl
HETATM   27  C   UNL     1       3.740   8.009   2.361  1.00  0.00     0.055 A 
HETATM   28 CL   UNL     1       3.118   9.335   3.276  1.00  0.00    -0.083 Cl
HETATM   29  C   UNL     1       3.684   8.096   0.968  1.00  0.00     0.026 A 
HETATM   30  C   UNL     1       4.168   7.051   0.175  1.00  0.00     0.011 A 
ENDBRANCH   2  23
BRANCH   7  31
HETATM   31  C   UNL     1       9.942   6.053   0.212  1.00  0.00     0.085 C 
BRANCH  31  32
HETATM   32  C   UNL     1       9.970   7.028   1.390  1.00  0.00     0.034 C 
BRANCH  32  33
HETATM   33  C   UNL     1       9.917   6.331   2.746  1.00  0.00     0.164 C 
BRANCH  33  34
HETATM   34  O   UNL     1      10.046   7.295   3.785  1.00  0.00    -0.401 OA
HETATM   35  H   UNL     1      10.911   7.726   3.685  1.00  0.00     0.209 HD
ENDBRANCH  33  34
ENDBRANCH  32  33
ENDBRANCH  31  32
ENDBRANCH   7  31
TORSDOF 7
