REMARK  6 active torsions:
REMARK  status: ('A' for Active; 'I' for Inactive)
REMARK    1  A    between atoms: C_4  and  C_5 
REMARK    2  A    between atoms: N_7  and  C_8 
REMARK    3  A    between atoms: C_8  and  C_9 
REMARK    4  A    between atoms: C_9  and  C_10 
REMARK       I    between atoms: C_10  and  N_11 
REMARK    5  A    between atoms: N_11  and  N_12 
REMARK    6  A    between atoms: C_24  and  C_25 
ROOT
HETATM    1  C   UNL     1       5.821   1.840  -0.850  1.00  0.00     0.161 C 
ENDROOT
BRANCH   1   2
HETATM    2  N   UNL     1       4.826   0.818  -0.566  1.00  0.00    -0.268 N 
HETATM    3  N   UNL     1       3.538   1.196  -0.489  1.00  0.00    -0.172 NA
HETATM    4  C   UNL     1       2.845   0.061  -0.310  1.00  0.00     0.089 A 
HETATM    5  C   UNL     1       3.732  -1.046  -0.290  1.00  0.00     0.066 A 
HETATM    6  C   UNL     1       5.007  -0.540  -0.463  1.00  0.00     0.065 A 
BRANCH   4   7
HETATM    7  C   UNL     1       1.380   0.061  -0.193  1.00  0.00    -0.006 A 
HETATM    8  C   UNL     1       0.666   1.269  -0.208  1.00  0.00     0.014 A 
HETATM    9  C   UNL     1      -0.728   1.282  -0.097  1.00  0.00     0.001 A 
HETATM   10  C   UNL     1      -1.428   0.085   0.029  1.00  0.00     0.000 A 
HETATM   11  C   UNL     1      -0.736  -1.124   0.042  1.00  0.00     0.001 A 
HETATM   12  C   UNL     1       0.659  -1.136  -0.068  1.00  0.00     0.014 A 
ENDBRANCH   4   7
BRANCH   6  13
HETATM   13  C   UNL     1       6.269  -1.257  -0.613  1.00  0.00    -0.008 A 
HETATM   14  C   UNL     1       7.354  -1.014   0.237  1.00  0.00     0.014 A 
HETATM   15  C   UNL     1       8.555  -1.707   0.066  1.00  0.00     0.001 A 
HETATM   16  C   UNL     1       8.676  -2.658  -0.946  1.00  0.00     0.000 A 
HETATM   17  C   UNL     1       7.596  -2.922  -1.784  1.00  0.00     0.001 A 
HETATM   18  C   UNL     1       6.397  -2.226  -1.617  1.00  0.00     0.014 A 
ENDBRANCH   6  13
ENDBRANCH   1   2
BRANCH   1  19
HETATM   19  C   UNL     1       6.210   1.887  -2.317  1.00  0.00     0.126 C 
BRANCH  19  20
HETATM   20  C   UNL     1       5.268   2.765  -3.107  1.00  0.00     0.239 C 
HETATM   21  N   UNL     1       4.084   2.143  -3.458  1.00  0.00    -0.246 N 
HETATM   22  H   UNL     1       3.833   1.231  -3.067  1.00  0.00     0.192 HD
HETATM   23  O   UNL     1       5.585   3.916  -3.403  1.00  0.00    -0.272 OA
BRANCH  21  24
HETATM   24  N   UNL     1       3.159   2.815  -4.202  1.00  0.00    -0.166 NA
HETATM   25  C   UNL     1       2.086   2.166  -4.519  1.00  0.00     0.157 A 
HETATM   26  C   UNL     1       1.715   0.710  -4.216  1.00  0.00     0.277 A 
HETATM   27  C   UNL     1       0.971   2.707  -5.287  1.00  0.00     0.027 A 
HETATM   28  O   UNL     1       2.429  -0.092  -3.650  1.00  0.00    -0.266 OA
HETATM   29  N   UNL     1       0.464   0.525  -4.763  1.00  0.00    -0.321 N 
HETATM   30  C   UNL     1       0.031   1.685  -5.401  1.00  0.00     0.048 A 
HETATM   31  H   UNL     1      -0.034  -0.351  -4.721  1.00  0.00     0.169 HD
HETATM   32  C   UNL     1      -1.146   1.872  -6.093  1.00  0.00     0.030 A 
HETATM   33  C   UNL     1      -1.356   3.129  -6.676  1.00  0.00     0.002 A 
HETATM   34  C   UNL     1      -0.400   4.159  -6.555  1.00  0.00     0.001 A 
HETATM   35  C   UNL     1       0.788   3.953  -5.849  1.00  0.00     0.016 A 
ENDBRANCH  21  24
ENDBRANCH  19  20
ENDBRANCH   1  19
TORSDOF 6
