REMARK  11 active torsions:
REMARK  status: ('A' for Active; 'I' for Inactive)
REMARK    1  A    between atoms: C_2  and  O_3 
REMARK    2  A    between atoms: O_3  and  C_4 
REMARK    3  A    between atoms: C_5  and  O_6 
REMARK    4  A    between atoms: C_9  and  C_10 
REMARK    5  A    between atoms: N_11  and  C_12 
REMARK    6  A    between atoms: C_12  and  C_13 
REMARK    7  A    between atoms: C_13  and  C_14 
REMARK    8  A    between atoms: C_14  and  N_15 
REMARK    9  A    between atoms: C_24  and  O_25 
REMARK   10  A    between atoms: C_26  and  C_27 
REMARK   11  A    between atoms: C_27  and  C_28 
ROOT
HETATM    1  C   UNL     1       7.917  -0.572   0.917  1.00  0.00     0.161 C 
HETATM    2  N   UNL     1       7.637  -2.005   0.949  1.00  0.00    -0.333 N 
HETATM    3  C   UNL     1       7.929  -2.555   2.175  1.00  0.00     0.278 C 
HETATM    4  O   UNL     1       7.910  -3.742   2.468  1.00  0.00    -0.265 OA
HETATM    5  C   UNL     1       8.550  -1.501   3.000  1.00  0.00     0.146 C 
HETATM    6  C   UNL     1       8.669  -0.423   2.214  1.00  0.00     0.059 C 
ENDROOT
BRANCH   1   7
HETATM    7  C   UNL     1       6.629   0.234   0.813  1.00  0.00    -0.028 A 
HETATM    8  C   UNL     1       5.819   0.492   1.939  1.00  0.00     0.012 A 
HETATM    9  C   UNL     1       4.639   1.225   1.824  1.00  0.00     0.040 A 
HETATM   10  C   UNL     1       4.252   1.697   0.581  1.00  0.00     0.099 A 
HETATM   11  C   UNL     1       5.027   1.467  -0.558  1.00  0.00     0.102 A 
HETATM   12  C   UNL     1       6.207   0.726  -0.442  1.00  0.00     0.049 A 
BRANCH  10  13
HETATM   13  O   UNL     1       3.090   2.412   0.497  1.00  0.00    -0.358 OA
HETATM   14  H   UNL     1       3.010   2.668  -0.442  1.00  0.00     0.218 HD
ENDBRANCH  10  13
BRANCH  11  15
HETATM   15  O   UNL     1       4.513   1.990  -1.715  1.00  0.00    -0.349 OA
BRANCH  15  16
HETATM   16  C   UNL     1       5.429   2.201  -2.787  1.00  0.00     0.171 C 
HETATM   17  C   UNL     1       4.760   3.130  -3.785  1.00  0.00     0.034 C 
ENDBRANCH  15  16
ENDBRANCH  11  15
ENDBRANCH   1   7
BRANCH   2  18
HETATM   18  C   UNL     1       7.408  -2.803  -0.241  1.00  0.00     0.129 C 
BRANCH  18  19
HETATM   19  C   UNL     1       8.701  -3.195  -0.970  1.00  0.00     0.048 C 
BRANCH  19  20
HETATM   20  C   UNL     1       9.807  -3.849  -0.135  1.00  0.00     0.236 C 
BRANCH  20  21
HETATM   21  N   UNL     1       9.373  -5.087   0.604  1.00  0.00    -0.067 N 
HETATM   22  H   UNL     1       8.537  -4.849   1.177  1.00  0.00     0.280 HD
HETATM   23  C   UNL     1       9.042  -6.264  -0.303  1.00  0.00     0.261 C 
HETATM   24  C   UNL     1       8.659  -7.490   0.533  1.00  0.00     0.195 C 
HETATM   25  O   UNL     1       9.695  -7.829   1.461  1.00  0.00    -0.388 OA
HETATM   26  C   UNL     1       9.936  -6.761   2.383  1.00  0.00     0.195 C 
HETATM   27  C   UNL     1      10.419  -5.511   1.642  1.00  0.00     0.261 C 
ENDBRANCH  20  21
ENDBRANCH  19  20
ENDBRANCH  18  19
ENDBRANCH   2  18
BRANCH   6  28
HETATM   28  C   UNL     1       9.437   0.820   2.438  1.00  0.00     0.193 C 
HETATM   29  O   UNL     1       9.221   1.804   1.738  1.00  0.00    -0.287 OA
BRANCH  28  30
HETATM   30  C   UNL     1      10.538   0.861   3.426  1.00  0.00     0.015 A 
HETATM   31  C   UNL     1      11.490  -0.163   3.505  1.00  0.00     0.016 A 
HETATM   32  C   UNL     1      12.527  -0.083   4.437  1.00  0.00     0.007 A 
HETATM   33  C   UNL     1      12.633   1.027   5.282  1.00  0.00    -0.062 A 
HETATM   34  C   UNL     1      13.758   1.126   6.271  1.00  0.00     0.048 C 
HETATM   35  C   UNL     1      11.714   2.076   5.154  1.00  0.00     0.007 A 
HETATM   36  C   UNL     1      10.672   1.997   4.227  1.00  0.00     0.016 A 
ENDBRANCH  28  30
ENDBRANCH   6  28
BRANCH   5  37
HETATM   37  O   UNL     1       9.046  -1.728   4.245  1.00  0.00    -0.355 OA
HETATM   38  H   UNL     1       8.663  -2.569   4.565  1.00  0.00     0.218 HD
ENDBRANCH   5  37
TORSDOF 11
