REMARK  5 active torsions:
REMARK  status: ('A' for Active; 'I' for Inactive)
REMARK    1  A    between atoms: C_6  and  C_7 
REMARK       I    between atoms: C_7  and  N_8 
REMARK    2  A    between atoms: N_8  and  C_9 
REMARK    3  A    between atoms: C_16  and  C_17 
REMARK    4  A    between atoms: C_23  and  C_24 
REMARK       I    between atoms: C_24  and  N_25 
REMARK    5  A    between atoms: N_25  and  C_26 
ROOT
HETATM    1  C   UNL     1       1.016  -0.168   0.420  1.00  0.00     0.069 C 
HETATM    2  C   UNL     1       2.447  -0.247  -0.053  1.00  0.00     0.018 C 
HETATM    3  N   UNL     1       3.115   0.965  -0.164  1.00  0.00    -0.362 N 
HETATM    4  C   UNL     1       4.476   1.084  -0.406  1.00  0.00     0.018 C 
HETATM    5  C   UNL     1       5.058   2.465  -0.252  1.00  0.00     0.069 C 
HETATM    6  C   UNL     1       5.189  -0.018  -0.725  1.00  0.00     0.045 C 
HETATM    7  C   UNL     1       4.544  -1.395  -0.826  1.00  0.00     0.101 C 
HETATM    8  C   UNL     1       3.094  -1.399  -0.342  1.00  0.00     0.045 C 
HETATM    9  H   UNL     1       2.627   1.796   0.164  1.00  0.00     0.165 HD
ENDROOT
BRANCH   6  10
HETATM   10  C   UNL     1       6.672   0.049  -0.769  1.00  0.00     0.255 C 
HETATM   11  N   UNL     1       7.178  -0.054  -2.044  1.00  0.00    -0.323 N 
HETATM   12  H   UNL     1       6.518  -0.224  -2.795  1.00  0.00     0.169 HD
HETATM   13  O   UNL     1       7.294   0.158   0.280  1.00  0.00    -0.268 OA
BRANCH  11  14
HETATM   14  C   UNL     1       8.536  -0.043  -2.421  1.00  0.00     0.035 A 
HETATM   15  C   UNL     1       9.577   0.318  -1.564  1.00  0.00     0.029 A 
HETATM   16  C   UNL     1      10.900   0.311  -2.017  1.00  0.00     0.002 A 
HETATM   17  C   UNL     1      11.192  -0.066  -3.326  1.00  0.00     0.000 A 
HETATM   18  C   UNL     1      10.160  -0.430  -4.187  1.00  0.00     0.002 A 
HETATM   19  C   UNL     1       8.837  -0.411  -3.739  1.00  0.00     0.029 A 
ENDBRANCH  11  14
ENDBRANCH   6  10
BRANCH   7  20
HETATM   20  C   UNL     1       4.665  -1.956  -2.236  1.00  0.00    -0.027 A 
HETATM   21  C   UNL     1       5.568  -2.979  -2.520  1.00  0.00     0.124 A 
HETATM   22  N   UNL     1       5.772  -3.489  -3.755  1.00  0.00    -0.273 NA
HETATM   23  C   UNL     1       5.025  -2.981  -4.758  1.00  0.00     0.116 A 
HETATM   24  C   UNL     1       4.100  -1.966  -4.587  1.00  0.00     0.020 A 
HETATM   25  C   UNL     1       3.925  -1.443  -3.310  1.00  0.00     0.011 A 
ENDBRANCH   7  20
BRANCH   8  26
HETATM   26  C   UNL     1       2.368  -2.701  -0.305  1.00  0.00     0.255 C 
HETATM   27  N   UNL     1       2.998  -3.651   0.471  1.00  0.00    -0.323 N 
HETATM   28  H   UNL     1       3.850  -3.382   0.944  1.00  0.00     0.169 HD
HETATM   29  O   UNL     1       1.325  -2.830  -0.935  1.00  0.00    -0.268 OA
BRANCH  27  30
HETATM   30  C   UNL     1       2.576  -4.978   0.702  1.00  0.00     0.035 A 
HETATM   31  C   UNL     1       1.362  -5.501   0.253  1.00  0.00     0.029 A 
HETATM   32  C   UNL     1       1.014  -6.827   0.534  1.00  0.00     0.002 A 
HETATM   33  C   UNL     1       1.880  -7.643   1.257  1.00  0.00     0.000 A 
HETATM   34  C   UNL     1       3.095  -7.133   1.706  1.00  0.00     0.002 A 
HETATM   35  C   UNL     1       3.438  -5.805   1.435  1.00  0.00     0.029 A 
ENDBRANCH  27  30
ENDBRANCH   8  26
TORSDOF 5
