REMARK  7 active torsions:
REMARK  status: ('A' for Active; 'I' for Inactive)
REMARK    1  A    between atoms: O_2  and  C_3 
REMARK    2  A    between atoms: C_6  and  C_7 
REMARK       I    between atoms: C_7  and  N_8 
REMARK    3  A    between atoms: C_14  and  C_15 
REMARK       I    between atoms: C_15  and  N_16 
REMARK    4  A    between atoms: N_16  and  C_17 
REMARK    5  A    between atoms: C_17  and  C_18 
REMARK       I    between atoms: N_25  and  C_26 
REMARK    6  A    between atoms: C_26  and  C_27 
REMARK    7  A    between atoms: C_30  and  O_31 
ROOT
HETATM    1  C   UNL     1       5.110  -4.986  -0.745  1.00  0.00     0.253 C 
HETATM    2  N   UNL     1       6.511  -5.011  -0.649  1.00  0.00    -0.348 N 
HETATM    3  C   UNL     1       7.299  -3.835  -0.290  1.00  0.00     0.131 C 
HETATM    4  C   UNL     1       8.662  -4.185   0.266  1.00  0.00     0.081 C 
HETATM    5  C   UNL     1       9.460  -5.163  -0.600  1.00  0.00     0.142 C 
HETATM    6  O   UNL     1      10.504  -5.648   0.301  1.00  0.00    -0.358 OA
HETATM    7  C   UNL     1      11.759  -5.637  -0.389  1.00  0.00     0.206 C 
HETATM    8  C   UNL     1      11.629  -4.536  -1.409  1.00  0.00     0.206 C 
HETATM    9  N   UNL     1      10.202  -4.570  -1.725  1.00  0.00    -0.300 N 
HETATM   10  C   UNL     1       9.631  -4.094  -2.891  1.00  0.00     0.257 C 
HETATM   11  O   UNL     1       8.423  -3.995  -3.075  1.00  0.00    -0.267 OA
HETATM   12  C   UNL     1       8.603  -6.387  -0.946  1.00  0.00     0.081 C 
HETATM   13  C   UNL     1       7.180  -6.076  -1.395  1.00  0.00     0.131 C 
HETATM   14  O   UNL     1       4.436  -5.962  -1.073  1.00  0.00    -0.267 OA
ENDROOT
BRANCH   8  15
HETATM   15  C   UNL     1      12.129  -3.201  -0.818  1.00  0.00     0.243 C 
HETATM   16  N   UNL     1      11.259  -2.145  -0.944  1.00  0.00    -0.355 N 
HETATM   17  H   UNL     1      10.313  -2.333  -1.248  1.00  0.00     0.162 HD
HETATM   18  O   UNL     1      13.258  -3.074  -0.350  1.00  0.00    -0.271 OA
BRANCH  16  19
HETATM   19  C   UNL     1      11.557  -0.826  -0.444  1.00  0.00     0.161 C 
BRANCH  19  20
HETATM   20  C   UNL     1      10.334   0.045  -0.561  1.00  0.00    -0.041 A 
HETATM   21  C   UNL     1       9.473   0.211   0.532  1.00  0.00     0.009 A 
HETATM   22  C   UNL     1       8.300   0.957   0.402  1.00  0.00     0.001 A 
HETATM   23  C   UNL     1       7.973   1.534  -0.824  1.00  0.00     0.000 A 
HETATM   24  C   UNL     1       8.819   1.371  -1.919  1.00  0.00     0.001 A 
HETATM   25  C   UNL     1       9.995   0.631  -1.789  1.00  0.00     0.009 A 
ENDBRANCH  19  20
ENDBRANCH  16  19
ENDBRANCH   8  15
BRANCH  10  26
HETATM   26  C   UNL     1      10.488  -3.585  -3.984  1.00  0.00     0.032 A 
HETATM   27  C   UNL     1      11.401  -4.405  -4.647  1.00  0.00     0.020 A 
HETATM   28  C   UNL     1      12.165  -3.878  -5.692  1.00  0.00     0.038 A 
HETATM   29  C   UNL     1      11.996  -2.551  -6.105  1.00  0.00     0.068 A 
HETATM   30  C   UNL     1      11.050  -1.749  -5.466  1.00  0.00     0.038 A 
HETATM   31  C   UNL     1      10.291  -2.268  -4.413  1.00  0.00     0.020 A 
BRANCH  29  32
HETATM   32  O   UNL     1      12.803  -2.168  -7.141  1.00  0.00    -0.356 OA
HETATM   33  C   UNL     1      12.596  -0.864  -7.670  1.00  0.00     0.210 C 
ENDBRANCH  29  32
ENDBRANCH  10  26
BRANCH   1  34
HETATM   34  C   UNL     1       4.375  -3.738  -0.431  1.00  0.00     0.032 A 
HETATM   35  C   UNL     1       4.595  -2.568  -1.164  1.00  0.00     0.020 A 
HETATM   36  C   UNL     1       3.868  -1.415  -0.860  1.00  0.00     0.038 A 
HETATM   37  C   UNL     1       2.888  -1.435   0.137  1.00  0.00     0.068 A 
HETATM   38  C   UNL     1       2.653  -2.613   0.849  1.00  0.00     0.038 A 
HETATM   39  C   UNL     1       3.392  -3.766   0.562  1.00  0.00     0.020 A 
BRANCH  37  40
HETATM   40  O   UNL     1       2.239  -0.245   0.326  1.00  0.00    -0.356 OA
HETATM   41  C   UNL     1       0.994  -0.311   1.013  1.00  0.00     0.210 C 
ENDBRANCH  37  40
ENDBRANCH   1  34
TORSDOF 7
