REMARK  3 active torsions:
REMARK  status: ('A' for Active; 'I' for Inactive)
REMARK    1  A    between atoms: O_2  and  C_3 
REMARK    2  A    between atoms: C_4  and  C_5 
REMARK    3  A    between atoms: C_16  and  N_17 
ROOT
HETATM    1  C   UNL     1       0.966   2.403   0.792  1.00  0.00     0.246 C 
HETATM    2  N   UNL     1       0.445   1.178   0.224  1.00  0.00    -0.151 N 
HETATM    3  C   UNL     1      -0.581   1.206  -0.688  1.00  0.00     0.734 A 
HETATM    4  N   UNL     1      -0.887  -0.024  -1.041  1.00  0.00    -0.060 NA
HETATM    5  C   UNL     1       0.001  -0.846  -0.395  1.00  0.00     0.103 A 
HETATM    6  C   UNL     1       0.877  -0.110   0.397  1.00  0.00     0.083 A 
HETATM    7  C   UNL     1       0.120  -2.242  -0.442  1.00  0.00     0.034 A 
HETATM    8  C   UNL     1       1.128  -2.855   0.311  1.00  0.00     0.002 A 
HETATM    9  C   UNL     1       2.000  -2.093   1.093  1.00  0.00     0.002 A 
HETATM   10  C   UNL     1       1.895  -0.698   1.155  1.00  0.00     0.033 A 
HETATM   11  N   UNL     1      -1.144   2.354  -1.126  1.00  0.00    -0.033 NA
HETATM   12  C   UNL     1      -0.653   3.473  -0.734  1.00  0.00     0.193 C 
HETATM   13  N   UNL     1       0.410   3.597   0.160  1.00  0.00    -0.338 N 
HETATM   14  H   UNL     1       0.825   4.487   0.390  1.00  0.00     0.164 HD
ENDROOT
BRANCH   1  15
HETATM   15  C   UNL     1       0.745   2.556   2.294  1.00  0.00     0.020 A 
HETATM   16  C   UNL     1       1.422   3.595   2.978  1.00  0.00     0.078 A 
HETATM   17  C   UNL     1       1.256   3.755   4.358  1.00  0.00     0.039 A 
HETATM   18  C   UNL     1       0.409   2.905   5.071  1.00  0.00     0.022 A 
HETATM   19  C   UNL     1      -0.284   1.903   4.404  1.00  0.00     0.011 A 
HETATM   20  C   UNL     1      -0.131   1.730   3.028  1.00  0.00     0.033 A 
HETATM   21 BR   UNL     1      -1.441   0.762   5.368  1.00  0.00    -0.051 Br
BRANCH  16  22
HETATM   22  O   UNL     1       2.201   4.408   2.191  1.00  0.00    -0.355 OA
HETATM   23  C   UNL     1       2.836   5.517   2.826  1.00  0.00     0.210 C 
ENDBRANCH  16  22
ENDBRANCH   1  15
BRANCH  12  24
HETATM   24  N   UNL     1      -1.119   4.667  -1.153  1.00  0.00    -0.272 NA
HETATM   25  H   UNL     1      -1.982   4.557  -1.681  1.00  0.00     0.127 HD
HETATM   26  H   UNL     1      -1.208   5.388  -0.449  1.00  0.00     0.127 HD
ENDBRANCH  12  24
TORSDOF 3
