REMARK  6 active torsions:
REMARK  status: ('A' for Active; 'I' for Inactive)
REMARK    1  A    between atoms: C_2  and  O_3 
REMARK    2  A    between atoms: C_2  and  C_4 
REMARK    3  A    between atoms: C_7  and  N_8 
REMARK       I    between atoms: N_8  and  C_9 
REMARK    4  A    between atoms: C_9  and  C_10 
REMARK    5  A    between atoms: C_15  and  C_16 
REMARK    6  A    between atoms: C_22  and  C_23 
ROOT
HETATM    1  C   UNL     1       4.011  -2.226  -5.539  1.00  0.00     0.148 A 
HETATM    2  N   UNL     1       4.709  -3.236  -6.113  1.00  0.00    -0.165 NA
HETATM    3  N   UNL     1       4.326  -4.313  -5.402  1.00  0.00    -0.240 N 
HETATM    4  C   UNL     1       3.501  -4.026  -4.353  1.00  0.00     0.123 A 
HETATM    5  N   UNL     1       3.160  -4.973  -3.458  1.00  0.00    -0.364 N 
HETATM    6  C   UNL     1       3.906  -6.232  -3.318  1.00  0.00     0.143 C 
HETATM    7  C   UNL     1       5.157  -6.259  -4.228  1.00  0.00     0.068 C 
HETATM    8  C   UNL     1       4.903  -5.627  -5.603  1.00  0.00     0.221 C 
HETATM    9  C   UNL     1       3.203  -2.696  -4.464  1.00  0.00     0.089 A 
HETATM   10  H   UNL     1       2.538  -4.759  -2.679  1.00  0.00     0.162 HD
ENDROOT
BRANCH   1  11
HETATM   11  C   UNL     1       4.171  -0.821  -5.958  1.00  0.00     0.276 C 
HETATM   12  N   UNL     1       5.110  -0.687  -6.962  1.00  0.00    -0.322 N 
HETATM   13  H   UNL     1       5.472  -1.576  -7.299  1.00  0.00     0.169 HD
HETATM   14  O   UNL     1       3.542   0.080  -5.416  1.00  0.00    -0.266 OA
BRANCH  12  15
HETATM   15  C   UNL     1       5.662   0.495  -7.482  1.00  0.00     0.035 A 
HETATM   16  C   UNL     1       5.340   1.771  -7.018  1.00  0.00     0.030 A 
HETATM   17  C   UNL     1       5.979   2.901  -7.541  1.00  0.00     0.012 A 
HETATM   18  C   UNL     1       6.951   2.777  -8.542  1.00  0.00    -0.030 A 
HETATM   19  C   UNL     1       7.248   1.497  -9.028  1.00  0.00     0.012 A 
HETATM   20  C   UNL     1       6.615   0.368  -8.497  1.00  0.00     0.030 A 
BRANCH  18  21
HETATM   21  C   UNL     1       7.639   4.009  -9.087  1.00  0.00     0.147 C 
HETATM   22  C   UNL     1       7.051   4.456 -10.417  1.00  0.00     0.044 C 
BRANCH  21  23
HETATM   23  O   UNL     1       9.035   3.765  -9.257  1.00  0.00    -0.391 OA
HETATM   24  H   UNL     1       9.324   3.242  -8.489  1.00  0.00     0.210 HD
ENDBRANCH  21  23
ENDBRANCH  18  21
ENDBRANCH  12  15
ENDBRANCH   1  11
BRANCH   8  25
HETATM   25  C   UNL     1       4.003  -6.466  -6.481  1.00  0.00     0.409 C 
HETATM   26  F   UNL     1       3.840  -5.927  -7.709  1.00  0.00    -0.169 F 
HETATM   27  F   UNL     1       4.564  -7.690  -6.669  1.00  0.00    -0.169 F 
HETATM   28  F   UNL     1       2.779  -6.681  -5.958  1.00  0.00    -0.169 F 
ENDBRANCH   8  25
BRANCH   6  29
HETATM   29  C   UNL     1       4.331  -6.488  -1.902  1.00  0.00     0.075 A 
HETATM   30  O   UNL     1       4.325  -7.785  -1.480  1.00  0.00    -0.325 OA
HETATM   31  C   UNL     1       4.749  -7.782  -0.189  1.00  0.00     0.142 A 
HETATM   32  C   UNL     1       5.034  -6.501   0.224  1.00  0.00     0.027 A 
HETATM   33  C   UNL     1       4.765  -5.662  -0.883  1.00  0.00     0.037 A 
ENDBRANCH   6  29
TORSDOF 6
