REMARK  7 active torsions:
REMARK  status: ('A' for Active; 'I' for Inactive)
REMARK    1  A    between atoms: N_3  and  N_4 
REMARK       I    between atoms: N_4  and  C_5 
REMARK    2  A    between atoms: C_5  and  C_6 
REMARK    3  A    between atoms: C_9  and  O_10 
REMARK    4  A    between atoms: O_10  and  C_11 
REMARK    5  A    between atoms: C_11  and  C_12 
REMARK       I    between atoms: C_12  and  N_13 
REMARK    6  A    between atoms: N_13  and  C_14 
REMARK    7  A    between atoms: C_16  and  O_17 
ROOT
HETATM    1  C   UNL     1       5.303   3.340   0.223  1.00  0.00     0.033 A 
HETATM    2  C   UNL     1       6.220   3.998   1.051  1.00  0.00     0.020 A 
HETATM    3  C   UNL     1       7.540   3.541   1.123  1.00  0.00     0.038 A 
HETATM    4  C   UNL     1       7.948   2.424   0.388  1.00  0.00     0.069 A 
HETATM    5  C   UNL     1       7.037   1.786  -0.456  1.00  0.00     0.038 A 
HETATM    6  C   UNL     1       5.720   2.246  -0.542  1.00  0.00     0.020 A 
ENDROOT
BRANCH   4   7
HETATM    7  O   UNL     1       9.261   2.069   0.543  1.00  0.00    -0.342 OA
BRANCH   7   8
HETATM    8  C   UNL     1       9.559   0.700   0.275  1.00  0.00     0.278 C 
BRANCH   8   9
HETATM    9  C   UNL     1      10.994   0.350   0.676  1.00  0.00     0.246 C 
HETATM   10  N   UNL     1      11.847   1.438   0.622  1.00  0.00    -0.325 N 
HETATM   11  H   UNL     1      11.398   2.325   0.414  1.00  0.00     0.169 HD
HETATM   12  O   UNL     1      11.300  -0.810   0.940  1.00  0.00    -0.271 OA
BRANCH  10  13
HETATM   13  C   UNL     1      13.241   1.460   0.831  1.00  0.00     0.037 A 
HETATM   14  C   UNL     1      13.999   0.330   1.157  1.00  0.00     0.066 A 
HETATM   15  C   UNL     1      15.383   0.427   1.336  1.00  0.00     0.070 A 
HETATM   16  C   UNL     1      16.010   1.664   1.183  1.00  0.00     0.037 A 
HETATM   17  C   UNL     1      15.267   2.797   0.861  1.00  0.00     0.005 A 
HETATM   18  C   UNL     1      13.886   2.695   0.688  1.00  0.00     0.029 A 
BRANCH  15  19
HETATM   19  O   UNL     1      16.227  -0.603   1.655  1.00  0.00    -0.356 OA
HETATM   20  C   UNL     1      15.635  -1.885   1.839  1.00  0.00     0.210 C 
ENDBRANCH  15  19
ENDBRANCH  10  13
ENDBRANCH   8   9
ENDBRANCH   7   8
ENDBRANCH   4   7
BRANCH   1  21
HETATM   21  C   UNL     1       3.890   3.785   0.112  1.00  0.00     0.270 C 
HETATM   22  N   UNL     1       3.323   4.211   1.289  1.00  0.00    -0.259 N 
HETATM   23  H   UNL     1       3.752   4.073   2.191  1.00  0.00     0.191 HD
HETATM   24  O   UNL     1       3.322   3.711  -0.970  1.00  0.00    -0.266 OA
BRANCH  22  25
HETATM   25  N   UNL     1       2.012   4.515   1.325  1.00  0.00    -0.263 N 
HETATM   26  C   UNL     1       1.546   5.797   1.418  1.00  0.00     0.030 A 
HETATM   27  C   UNL     1       2.413   6.994   1.287  1.00  0.00     0.070 C 
HETATM   28  C   UNL     1       0.181   5.703   1.626  1.00  0.00     0.028 A 
HETATM   29  C   UNL     1      -0.152   4.326   1.690  1.00  0.00     0.028 A 
HETATM   30  C   UNL     1       1.014   3.600   1.522  1.00  0.00     0.030 A 
HETATM   31  C   UNL     1       1.223   2.131   1.495  1.00  0.00     0.070 C 
ENDBRANCH  22  25
ENDBRANCH   1  21
TORSDOF 7
