REMARK  9 active torsions:
REMARK  status: ('A' for Active; 'I' for Inactive)
REMARK    1  A    between atoms: O_2  and  C_3 
REMARK    2  A    between atoms: C_3  and  C_4 
REMARK    3  A    between atoms: C_4  and  S_5 
REMARK    4  A    between atoms: S_5  and  C_6 
REMARK    5  A    between atoms: C_7  and  C_8 
REMARK       I    between atoms: C_8  and  N_9 
REMARK    6  A    between atoms: N_9  and  C_10 
REMARK    7  A    between atoms: C_11  and  C_12 
REMARK       I    between atoms: C_12  and  N_13 
REMARK    8  A    between atoms: N_13  and  C_14 
REMARK    9  A    between atoms: C_14  and  C_15 
ROOT
HETATM    1  C   UNL     1       8.971   4.562  -4.486  1.00  0.00     0.050 A 
HETATM    2  C   UNL     1      10.121   4.831  -3.725  1.00  0.00     0.058 A 
HETATM    3  C   UNL     1      11.309   4.119  -3.951  1.00  0.00     0.019 A 
HETATM    4  C   UNL     1      11.361   3.148  -4.950  1.00  0.00     0.001 A 
HETATM    5  C   UNL     1      10.238   2.906  -5.739  1.00  0.00     0.002 A 
HETATM    6  C   UNL     1       9.054   3.616  -5.517  1.00  0.00     0.030 A 
ENDROOT
BRANCH   1   7
HETATM    7  N   UNL     1       7.729   5.207  -4.310  1.00  0.00    -0.322 N 
HETATM    8  C   UNL     1       7.221   5.587  -3.083  1.00  0.00     0.257 C 
HETATM    9  O   UNL     1       7.615   5.209  -1.988  1.00  0.00    -0.267 OA
HETATM   10  H   UNL     1       7.082   5.211  -5.090  1.00  0.00     0.169 HD
BRANCH   8  11
HETATM   11  C   UNL     1       6.092   6.535  -3.171  1.00  0.00     0.049 A 
HETATM   12  C   UNL     1       4.788   6.209  -2.771  1.00  0.00     0.016 A 
HETATM   13  C   UNL     1       3.791   7.187  -2.901  1.00  0.00     0.019 A 
HETATM   14  C   UNL     1       4.092   8.461  -3.396  1.00  0.00     0.001 A 
HETATM   15  C   UNL     1       5.394   8.776  -3.776  1.00  0.00     0.001 A 
HETATM   16  C   UNL     1       6.396   7.815  -3.664  1.00  0.00     0.018 A 
BRANCH  12  17
HETATM   17  S   UNL     1       4.267   4.596  -2.205  1.00  0.00    -0.127 SA
BRANCH  17  18
HETATM   18  C   UNL     1       5.074   4.538  -0.559  1.00  0.00     0.106 C 
BRANCH  18  19
HETATM   19  C   UNL     1       4.067   4.295   0.570  1.00  0.00     0.177 C 
BRANCH  19  20
HETATM   20  O   UNL     1       3.277   3.112   0.439  1.00  0.00    -0.395 OA
HETATM   21  C   UNL     1       4.024   1.908   0.536  1.00  0.00     0.201 C 
ENDBRANCH  19  20
ENDBRANCH  18  19
ENDBRANCH  17  18
ENDBRANCH  12  17
ENDBRANCH   8  11
ENDBRANCH   1   7
BRANCH   2  22
HETATM   22  C   UNL     1      10.229   6.011  -2.839  1.00  0.00     0.254 C 
HETATM   23  N   UNL     1      10.359   5.724  -1.496  1.00  0.00    -0.354 N 
HETATM   24  H   UNL     1       9.890   4.867  -1.214  1.00  0.00     0.162 HD
HETATM   25  O   UNL     1      10.215   7.140  -3.317  1.00  0.00    -0.268 OA
BRANCH  23  26
HETATM   26  C   UNL     1      10.265   6.807  -0.534  1.00  0.00     0.155 C 
BRANCH  26  27
HETATM   27  C   UNL     1      10.466   6.306   0.903  1.00  0.00     0.139 C 
HETATM   28  O   UNL     1       9.366   5.442   1.263  1.00  0.00    -0.384 OA
HETATM   29  C   UNL     1       8.478   6.160   2.132  1.00  0.00     0.168 C 
HETATM   30  C   UNL     1       8.977   7.588   2.216  1.00  0.00     0.029 C 
HETATM   31  C   UNL     1      10.448   7.433   1.923  1.00  0.00     0.035 C 
ENDBRANCH  26  27
ENDBRANCH  23  26
ENDBRANCH   2  22
TORSDOF 9
