REMARK  3 active torsions:
REMARK  status: ('A' for Active; 'I' for Inactive)
REMARK    1  A    between atoms: N_3  and  C_4 
REMARK    2  A    between atoms: C_6  and  C_7 
REMARK       I    between atoms: C_7  and  N_8 
REMARK    3  A    between atoms: N_8  and  C_9 
ROOT
HETATM    1  C   UNL     1       5.220   0.478  -3.050  1.00  0.00     0.072 C 
HETATM    2  C   UNL     1       4.919  -0.169  -1.682  1.00  0.00     0.149 C 
HETATM    3  N   UNL     1       3.465  -0.367  -1.461  1.00  0.00    -0.267 N 
HETATM    4  C   UNL     1       2.903  -0.282  -0.191  1.00  0.00     0.326 C 
HETATM    5  O   UNL     1       1.723  -0.485   0.087  1.00  0.00    -0.247 OA
HETATM    6  N   UNL     1       3.746   0.055   0.829  1.00  0.00    -0.334 N 
HETATM    7  O   UNL     1       5.602  -1.441  -1.682  1.00  0.00    -0.319 OA
HETATM    8  C   UNL     1       5.963  -1.949  -0.465  1.00  0.00     0.080 A 
HETATM    9  C   UNL     1       5.785  -1.251   0.734  1.00  0.00    -0.002 A 
HETATM   10  C   UNL     1       6.552  -3.212  -0.468  1.00  0.00     0.037 A 
HETATM   11  C   UNL     1       6.953  -3.795   0.734  1.00  0.00     0.003 A 
HETATM   12  C   UNL     1       6.759  -3.116   1.936  1.00  0.00     0.001 A 
HETATM   13  C   UNL     1       6.173  -1.849   1.940  1.00  0.00     0.012 A 
HETATM   14  C   UNL     1       5.505   0.775  -0.625  1.00  0.00     0.092 C 
HETATM   15  C   UNL     1       5.176   0.122   0.695  1.00  0.00     0.127 C 
HETATM   16  H   UNL     1       3.326  -0.029   1.746  1.00  0.00     0.165 HD
ENDROOT
BRANCH   3  17
HETATM   17  C   UNL     1       2.637  -0.819  -2.533  1.00  0.00     0.043 A 
HETATM   18  C   UNL     1       2.974  -1.948  -3.287  1.00  0.00     0.047 A 
HETATM   19  C   UNL     1       2.131  -2.370  -4.323  1.00  0.00     0.034 A 
HETATM   20  C   UNL     1       0.986  -1.641  -4.653  1.00  0.00     0.017 A 
HETATM   21  C   UNL     1       0.644  -0.521  -3.900  1.00  0.00     0.003 A 
HETATM   22  C   UNL     1       1.453  -0.127  -2.831  1.00  0.00     0.030 A 
BRANCH  19  23
HETATM   23  C   UNL     1       2.400  -3.627  -5.056  1.00  0.00     0.252 C 
HETATM   24  N   UNL     1       2.638  -4.721  -4.253  1.00  0.00    -0.352 N 
HETATM   25  H   UNL     1       2.638  -4.602  -3.247  1.00  0.00     0.163 HD
HETATM   26  O   UNL     1       2.341  -3.654  -6.278  1.00  0.00    -0.268 OA
BRANCH  24  27
HETATM   27  C   UNL     1       2.867  -6.042  -4.795  1.00  0.00     0.084 C 
HETATM   28  C   UNL     1       4.351  -6.373  -4.908  1.00  0.00     0.025 C 
HETATM   29  C   UNL     1       4.348  -7.889  -5.012  1.00  0.00     0.002 C 
HETATM   30  C   UNL     1       3.273  -8.328  -4.025  1.00  0.00     0.002 C 
HETATM   31  C   UNL     1       2.306  -7.150  -3.899  1.00  0.00     0.025 C 
ENDBRANCH  24  27
ENDBRANCH  19  23
ENDBRANCH   3  17
TORSDOF 3
