REMARK  8 active torsions:
REMARK  status: ('A' for Active; 'I' for Inactive)
REMARK    1  A    between atoms: C_2  and  C_3 
REMARK    2  A    between atoms: C_3  and  O_4 
REMARK    3  A    between atoms: O_4  and  C_5 
REMARK    4  A    between atoms: C_8  and  C_9 
REMARK    5  A    between atoms: C_13  and  C_14 
REMARK       I    between atoms: C_14  and  N_15 
REMARK    6  A    between atoms: N_15  and  N_16 
REMARK    7  A    between atoms: C_17  and  C_18 
REMARK    8  A    between atoms: C_21  and  O_22 
ROOT
HETATM    1  C   UNL     1       6.634   0.873  -6.601  1.00  0.00     0.089 A 
HETATM    2  N   UNL     1       6.654   2.018  -7.300  1.00  0.00    -0.174 NA
HETATM    3  N   UNL     1       7.103   1.667  -8.514  1.00  0.00    -0.272 N 
HETATM    4  H   UNL     1       7.207   2.382  -9.229  1.00  0.00     0.189 HD
HETATM    5  C   UNL     1       7.354   0.331  -8.656  1.00  0.00     0.121 A 
HETATM    6  C   UNL     1       7.074  -0.209  -7.416  1.00  0.00     0.071 A 
ENDROOT
BRANCH   5   7
HETATM    7  C   UNL     1       7.796  -0.216  -9.915  1.00  0.00     0.289 C 
HETATM    8  N   UNL     1       7.967  -1.592  -9.917  1.00  0.00    -0.242 N 
HETATM    9  H   UNL     1       7.786  -2.132  -9.083  1.00  0.00     0.192 HD
HETATM   10  O   UNL     1       7.985   0.509 -10.888  1.00  0.00    -0.264 OA
BRANCH   8  11
HETATM   11  N   UNL     1       8.328  -2.240 -11.063  1.00  0.00    -0.184 NA
HETATM   12  C   UNL     1       8.466  -3.523 -10.960  1.00  0.00     0.150 C 
BRANCH  12  13
HETATM   13  C   UNL     1       8.841  -4.360 -12.117  1.00  0.00    -0.017 A 
HETATM   14  C   UNL     1       8.996  -3.801 -13.386  1.00  0.00     0.016 A 
HETATM   15  C   UNL     1       9.353  -4.618 -14.461  1.00  0.00     0.037 A 
HETATM   16  C   UNL     1       9.563  -5.988 -14.278  1.00  0.00     0.068 A 
HETATM   17  C   UNL     1       9.400  -6.542 -13.006  1.00  0.00     0.037 A 
HETATM   18  C   UNL     1       9.038  -5.730 -11.925  1.00  0.00     0.016 A 
BRANCH  16  19
HETATM   19  O   UNL     1       9.914  -6.668 -15.411  1.00  0.00    -0.356 OA
HETATM   20  C   UNL     1      10.270  -8.036 -15.257  1.00  0.00     0.210 C 
ENDBRANCH  16  19
ENDBRANCH  12  13
ENDBRANCH   8  11
ENDBRANCH   5   7
BRANCH   1  21
HETATM   21  C   UNL     1       6.175   0.825  -5.211  1.00  0.00    -0.005 A 
HETATM   22  C   UNL     1       5.316   1.815  -4.713  1.00  0.00     0.016 A 
HETATM   23  C   UNL     1       4.833   1.758  -3.399  1.00  0.00     0.037 A 
HETATM   24  C   UNL     1       5.207   0.709  -2.562  1.00  0.00     0.068 A 
HETATM   25  C   UNL     1       6.084  -0.265  -3.041  1.00  0.00     0.037 A 
HETATM   26  C   UNL     1       6.564  -0.213  -4.355  1.00  0.00     0.016 A 
BRANCH  24  27
HETATM   27  O   UNL     1       4.799   0.526  -1.270  1.00  0.00    -0.351 OA
BRANCH  27  28
HETATM   28  C   UNL     1       3.751   1.374  -0.799  1.00  0.00     0.175 C 
BRANCH  28  29
HETATM   29  C   UNL     1       3.350   0.891   0.592  1.00  0.00     0.022 C 
HETATM   30  C   UNL     1       2.219   1.720   1.174  1.00  0.00     0.007 C 
ENDBRANCH  28  29
ENDBRANCH  27  28
ENDBRANCH  24  27
ENDBRANCH   1  21
TORSDOF 8
