REMARK  9 active torsions:
REMARK  status: ('A' for Active; 'I' for Inactive)
REMARK    1  A    between atoms: N_2  and  C_4 
REMARK    2  A    between atoms: C_4  and  C_5 
REMARK    3  A    between atoms: C_6  and  O_7 
REMARK    4  A    between atoms: O_7  and  C_8 
REMARK    5  A    between atoms: C_8  and  C_9 
REMARK       I    between atoms: C_9  and  N_10 
REMARK    6  A    between atoms: N_10  and  C_11 
REMARK    7  A    between atoms: C_11  and  C_12 
REMARK    8  A    between atoms: C_12  and  C_13 
REMARK    9  A    between atoms: C_27  and  C_28 
ROOT
HETATM    1  C   UNL     1       2.642   0.512  -2.525  1.00  0.00     0.002 A 
HETATM    2  C   UNL     1       2.781  -0.867  -2.746  1.00  0.00     0.077 A 
HETATM    3  C   UNL     1       2.677  -1.365  -4.047  1.00  0.00     0.038 A 
HETATM    4  C   UNL     1       2.454  -0.502  -5.128  1.00  0.00     0.017 A 
HETATM    5  C   UNL     1       2.331   0.879  -4.936  1.00  0.00     0.000 A 
HETATM    6  C   UNL     1       2.424   1.368  -3.622  1.00  0.00     0.026 A 
ENDROOT
BRANCH   2   7
HETATM    7  O   UNL     1       2.976  -1.640  -1.627  1.00  0.00    -0.342 OA
BRANCH   7   8
HETATM    8  C   UNL     1       3.498  -2.950  -1.868  1.00  0.00     0.278 C 
BRANCH   8   9
HETATM    9  C   UNL     1       3.920  -3.675  -0.590  1.00  0.00     0.241 C 
HETATM   10  N   UNL     1       3.503  -3.094   0.587  1.00  0.00    -0.359 N 
HETATM   11  H   UNL     1       3.259  -2.114   0.570  1.00  0.00     0.162 HD
HETATM   12  O   UNL     1       4.556  -4.725  -0.628  1.00  0.00    -0.271 OA
BRANCH  10  13
HETATM   13  C   UNL     1       3.860  -3.671   1.873  1.00  0.00     0.130 C 
BRANCH  13  14
HETATM   14  C   UNL     1       5.250  -3.243   2.344  1.00  0.00     0.098 C 
BRANCH  14  15
HETATM   15  C   UNL     1       5.250  -1.892   2.990  1.00  0.00     0.106 A 
HETATM   16  N   UNL     1       4.401  -0.894   2.813  1.00  0.00    -0.233 NA
HETATM   17  C   UNL     1       4.786   0.075   3.716  1.00  0.00     0.087 A 
HETATM   18  C   UNL     1       5.917  -0.321   4.420  1.00  0.00     0.062 A 
HETATM   19  C   UNL     1       4.210   1.321   4.000  1.00  0.00     0.057 A 
HETATM   20  N   UNL     1       6.205  -1.564   3.925  1.00  0.00    -0.343 N 
HETATM   21  C   UNL     1       6.528   0.459   5.405  1.00  0.00     0.034 A 
HETATM   22  H   UNL     1       6.965  -2.159   4.228  1.00  0.00     0.167 HD
HETATM   23  C   UNL     1       5.940   1.699   5.676  1.00  0.00     0.026 A 
HETATM   24  C   UNL     1       4.803   2.118   4.985  1.00  0.00     0.036 A 
HETATM   25 CL   UNL     1       4.102   3.649   5.348  1.00  0.00    -0.084 Cl
ENDBRANCH  14  15
ENDBRANCH  13  14
ENDBRANCH  10  13
ENDBRANCH   8   9
ENDBRANCH   7   8
ENDBRANCH   2   7
BRANCH   1  26
HETATM   26  C   UNL     1       2.683   1.084  -1.133  1.00  0.00     0.275 C 
BRANCH  26  27
HETATM   27  N   UNL     1       1.417   0.805  -0.353  1.00  0.00    -0.075 N 
HETATM   28  C   UNL     1       0.231   1.574  -0.857  1.00  0.00     0.269 C 
HETATM   29  H   UNL     1       1.220  -0.194  -0.503  1.00  0.00     0.279 HD
HETATM   30  C   UNL     1       1.622   0.990   1.118  1.00  0.00     0.269 C 
ENDBRANCH  26  27
ENDBRANCH   1  26
BRANCH   5  31
HETATM   31  C   UNL     1       2.075   1.835  -6.030  1.00  0.00     0.109 A 
HETATM   32  S   UNL     1       2.454   1.466  -7.666  1.00  0.00    -0.068 SA
HETATM   33  C   UNL     1       1.904   3.018  -8.158  1.00  0.00     0.035 A 
HETATM   34  C   UNL     1       1.467   3.720  -7.035  1.00  0.00     0.075 A 
HETATM   35  C   UNL     1       1.862   3.576  -9.446  1.00  0.00     0.021 A 
HETATM   36  N   UNL     1       1.576   3.039  -5.831  1.00  0.00    -0.240 NA
HETATM   37  C   UNL     1       0.968   5.027  -7.204  1.00  0.00     0.033 A 
HETATM   38  C   UNL     1       0.921   5.593  -8.482  1.00  0.00     0.002 A 
HETATM   39  C   UNL     1       1.364   4.875  -9.588  1.00  0.00     0.002 A 
ENDBRANCH   5  31
TORSDOF 9
