REMARK  8 active torsions:
REMARK  status: ('A' for Active; 'I' for Inactive)
REMARK    1  A    between atoms: C_4  and  N_5 
REMARK       I    between atoms: N_5  and  C_6 
REMARK       I    between atoms: C_6  and  N_7 
REMARK    2  A    between atoms: N_7  and  C_8 
REMARK    3  A    between atoms: C_8  and  C_9 
REMARK    4  A    between atoms: C_9  and  C_10 
REMARK    5  A    between atoms: C_14  and  O_15 
REMARK       I    between atoms: N_22  and  C_23 
REMARK    6  A    between atoms: C_23  and  C_24 
REMARK    7  A    between atoms: C_24  and  N_25 
REMARK    8  A    between atoms: N_29  and  C_30 
ROOT
HETATM    1  N   UNL     1       5.063   2.589  -0.421  1.00  0.00    -0.017 N 
HETATM    2  C   UNL     1       6.415   2.460  -0.529  1.00  0.00     0.718 C 
HETATM    3  N   UNL     1       6.824   1.149  -0.530  1.00  0.00    -0.223 N 
HETATM    4  N   UNL     1       7.205   3.486  -0.585  1.00  0.00    -0.026 NA
HETATM    5  C   UNL     1       8.558   3.366  -0.676  1.00  0.00     0.286 C 
HETATM    6  O   UNL     1       9.228   2.332  -0.656  1.00  0.00    -0.269 OA
HETATM    7  H   UNL     1       4.596   1.985   0.236  1.00  0.00     0.203 HD
HETATM    8  H   UNL     1       7.827   1.049  -0.701  1.00  0.00     0.177 HD
ENDROOT
BRANCH   1   9
HETATM    9  C   UNL     1       4.334   3.765  -0.562  1.00  0.00     0.741 A 
HETATM   10  N   UNL     1       4.722   4.728  -1.418  1.00  0.00    -0.067 NA
HETATM   11  C   UNL     1       3.923   5.807  -1.551  1.00  0.00     0.051 A 
HETATM   12  C   UNL     1       4.350   6.865  -2.522  1.00  0.00     0.071 C 
HETATM   13  C   UNL     1       2.756   5.954  -0.832  1.00  0.00     0.054 A 
HETATM   14  C   UNL     1       2.427   4.922   0.019  1.00  0.00     0.051 A 
HETATM   15  N   UNL     1       3.199   3.823   0.152  1.00  0.00    -0.067 NA
HETATM   16  C   UNL     1       1.187   4.999   0.859  1.00  0.00     0.071 C 
ENDBRANCH   1   9
BRANCH   3  17
HETATM   17  C   UNL     1       6.077   0.043  -1.133  1.00  0.00     0.142 C 
BRANCH  17  18
HETATM   18  C   UNL     1       5.845   0.221  -2.640  1.00  0.00     0.061 C 
BRANCH  18  19
HETATM   19  C   UNL     1       7.111   0.333  -3.436  1.00  0.00    -0.029 A 
HETATM   20  C   UNL     1       7.653   1.519  -4.028  1.00  0.00    -0.002 A 
HETATM   21  C   UNL     1       8.838   1.162  -4.669  1.00  0.00     0.045 A 
HETATM   22  C   UNL     1       7.243   2.868  -4.083  1.00  0.00     0.017 A 
HETATM   23  C   UNL     1       9.642   2.090  -5.343  1.00  0.00     0.067 A 
HETATM   24  N   UNL     1       8.994  -0.195  -4.509  1.00  0.00    -0.365 N 
HETATM   25  C   UNL     1       9.218   3.423  -5.382  1.00  0.00     0.070 A 
HETATM   26  C   UNL     1       8.030   3.809  -4.762  1.00  0.00     0.038 A 
HETATM   27  H   UNL     1       9.750  -0.741  -4.903  1.00  0.00     0.165 HD
HETATM   28  C   UNL     1       7.967  -0.702  -3.760  1.00  0.00     0.096 A 
BRANCH  25  29
HETATM   29  O   UNL     1      10.093   4.282  -5.994  1.00  0.00    -0.356 OA
HETATM   30  C   UNL     1       9.522   5.474  -6.527  1.00  0.00     0.210 C 
ENDBRANCH  25  29
ENDBRANCH  18  19
ENDBRANCH  17  18
ENDBRANCH   3  17
BRANCH   5  31
HETATM   31  C   UNL     1       9.253   4.726  -0.759  1.00  0.00     0.340 C 
BRANCH  31  32
HETATM   32  N   UNL     1      10.746   4.621  -1.093  1.00  0.00    -0.060 N 
HETATM   33  H   UNL     1      11.097   3.810  -0.561  1.00  0.00     0.280 HD
HETATM   34  C   UNL     1      10.963   4.290  -2.568  1.00  0.00     0.255 C 
HETATM   35  C   UNL     1      12.464   4.220  -2.914  1.00  0.00     0.150 C 
HETATM   36  N   UNL     1      13.150   5.459  -2.475  1.00  0.00    -0.378 N 
HETATM   37  C   UNL     1      12.999   5.751  -1.038  1.00  0.00     0.150 C 
HETATM   38  C   UNL     1      11.505   5.867  -0.679  1.00  0.00     0.255 C 
BRANCH  36  39
HETATM   39  C   UNL     1      14.409   5.658  -3.061  1.00  0.00     0.030 A 
HETATM   40  C   UNL     1      14.503   5.809  -4.458  1.00  0.00     0.032 A 
HETATM   41  C   UNL     1      15.728   6.038  -5.090  1.00  0.00     0.044 A 
HETATM   42  C   UNL     1      16.882   6.124  -4.328  1.00  0.00     0.116 A 
HETATM   43  F   UNL     1      18.058   6.347  -4.927  1.00  0.00    -0.206 F 
HETATM   44  C   UNL     1      16.829   5.987  -2.949  1.00  0.00     0.044 A 
HETATM   45  C   UNL     1      15.599   5.759  -2.321  1.00  0.00     0.032 A 
ENDBRANCH  36  39
ENDBRANCH  31  32
ENDBRANCH   5  31
TORSDOF 8
