REMARK  9 active torsions:
REMARK  status: ('A' for Active; 'I' for Inactive)
REMARK    1  A    between atoms: C_3  and  N_4 
REMARK       I    between atoms: N_4  and  C_5 
REMARK    2  A    between atoms: C_5  and  C_6 
REMARK    3  A    between atoms: C_13  and  C_14 
REMARK    4  A    between atoms: C_14  and  O_15 
REMARK    5  A    between atoms: O_15  and  C_16 
REMARK    6  A    between atoms: C_16  and  C_17 
REMARK       I    between atoms: C_17  and  N_18 
REMARK    7  A    between atoms: N_18  and  C_19 
REMARK    8  A    between atoms: C_19  and  C_20 
REMARK    9  A    between atoms: C_22  and  O_23 
ROOT
HETATM    1  C   UNL     1       6.709  -0.332  -0.530  1.00  0.00     0.293 C 
HETATM    2  O   UNL     1       7.484   0.603  -0.393  1.00  0.00    -0.259 OA
ENDROOT
BRANCH   1   3
HETATM    3  C   UNL     1       5.242  -0.211  -0.336  1.00  0.00     0.041 A 
HETATM    4  C   UNL     1       4.705   1.079  -0.216  1.00  0.00     0.047 A 
HETATM    5  C   UNL     1       3.332   1.282  -0.037  1.00  0.00     0.042 A 
HETATM    6  C   UNL     1       2.482   0.159   0.044  1.00  0.00    -0.035 A 
HETATM    7  C   UNL     1       0.995   0.279   0.259  1.00  0.00     0.050 C 
HETATM    8  C   UNL     1       3.031  -1.133  -0.061  1.00  0.00     0.010 A 
HETATM    9  C   UNL     1       4.400  -1.319  -0.259  1.00  0.00     0.018 A 
BRANCH   5  10
HETATM   10  N   UNL     1       2.780   2.577   0.081  1.00  0.00    -0.321 N 
HETATM   11  C   UNL     1       3.382   3.791  -0.211  1.00  0.00     0.279 C 
HETATM   12  O   UNL     1       4.500   3.929  -0.697  1.00  0.00    -0.265 OA
HETATM   13  H   UNL     1       1.809   2.654   0.361  1.00  0.00     0.169 HD
BRANCH  11  14
HETATM   14  C   UNL     1       2.526   4.929   0.072  1.00  0.00     0.142 A 
HETATM   15  O   UNL     1       1.282   4.724   0.615  1.00  0.00    -0.317 OA
HETATM   16  C   UNL     1       0.712   5.946   0.776  1.00  0.00     0.143 A 
HETATM   17  C   UNL     1       1.559   6.937   0.340  1.00  0.00     0.027 A 
HETATM   18  C   UNL     1       2.729   6.283  -0.114  1.00  0.00     0.045 A 
ENDBRANCH  11  14
ENDBRANCH   5  10
ENDBRANCH   1   3
BRANCH   1  19
HETATM   19  O   UNL     1       7.052  -1.578  -0.932  1.00  0.00    -0.308 OA
BRANCH  19  20
HETATM   20  C   UNL     1       8.447  -1.776  -1.183  1.00  0.00     0.281 C 
BRANCH  20  21
HETATM   21  C   UNL     1       8.940  -1.239  -2.532  1.00  0.00     0.242 C 
HETATM   22  N   UNL     1       8.916   0.132  -2.644  1.00  0.00    -0.355 N 
HETATM   23  H   UNL     1       8.508   0.672  -1.882  1.00  0.00     0.162 HD
HETATM   24  O   UNL     1       9.356  -1.983  -3.418  1.00  0.00    -0.271 OA
BRANCH  22  25
HETATM   25  C   UNL     1       9.217   0.818  -3.876  1.00  0.00     0.161 C 
BRANCH  25  26
HETATM   26  C   UNL     1       8.025   0.861  -4.801  1.00  0.00    -0.038 A 
HETATM   27  C   UNL     1       6.863   1.573  -4.451  1.00  0.00     0.045 A 
HETATM   28  C   UNL     1       5.765   1.609  -5.315  1.00  0.00     0.068 A 
HETATM   29  C   UNL     1       5.834   0.939  -6.539  1.00  0.00     0.037 A 
HETATM   30  C   UNL     1       6.976   0.224  -6.894  1.00  0.00     0.003 A 
HETATM   31  C   UNL     1       8.065   0.181  -6.026  1.00  0.00     0.009 A 
BRANCH  28  32
HETATM   32  O   UNL     1       4.583   2.261  -5.090  1.00  0.00    -0.356 OA
HETATM   33  C   UNL     1       4.395   2.809  -3.792  1.00  0.00     0.210 C 
ENDBRANCH  28  32
ENDBRANCH  25  26
ENDBRANCH  22  25
ENDBRANCH  20  21
ENDBRANCH  19  20
ENDBRANCH   1  19
TORSDOF 9
