REMARK  4 active torsions:
REMARK  status: ('A' for Active; 'I' for Inactive)
REMARK    1  A    between atoms: C_4  and  N_5 
REMARK       I    between atoms: N_5  and  C_6 
REMARK       I    between atoms: C_6  and  N_7 
REMARK    2  A    between atoms: N_7  and  C_8 
REMARK    3  A    between atoms: C_8  and  C_9 
REMARK       I    between atoms: C_9  and  N_10 
REMARK    4  A    between atoms: N_10  and  C_11 
ROOT
HETATM    1  N   UNL     1       5.124   3.915  -1.870  1.00  0.00    -0.307 N 
HETATM    2  C   UNL     1       4.161   2.972  -1.626  1.00  0.00     0.321 C 
HETATM    3  N   UNL     1       2.930   3.561  -1.439  1.00  0.00    -0.334 N 
HETATM    4  O   UNL     1       4.317   1.758  -1.590  1.00  0.00    -0.247 OA
HETATM    5  H   UNL     1       4.815   4.765  -2.332  1.00  0.00     0.170 HD
HETATM    6  H   UNL     1       2.958   4.445  -0.948  1.00  0.00     0.164 HD
ENDROOT
BRANCH   3   7
HETATM    7  C   UNL     1       1.782   2.717  -1.179  1.00  0.00     0.227 C 
BRANCH   7   8
HETATM    8  C   UNL     1       1.764   2.244   0.278  1.00  0.00     0.239 C 
HETATM    9  N   UNL     1       2.225   0.954   0.423  1.00  0.00    -0.324 N 
HETATM   10  H   UNL     1       2.697   0.527  -0.379  1.00  0.00     0.169 HD
HETATM   11  O   UNL     1       1.421   3.004   1.181  1.00  0.00    -0.271 OA
BRANCH   9  12
HETATM   12  C   UNL     1       2.265   0.146   1.583  1.00  0.00     0.064 A 
HETATM   13  C   UNL     1       2.829  -1.132   1.425  1.00  0.00     0.093 A 
HETATM   14  C   UNL     1       2.884  -1.987   2.546  1.00  0.00    -0.005 A 
HETATM   15  N   UNL     1       3.295  -1.522   0.214  1.00  0.00    -0.258 NA
HETATM   16  C   UNL     1       3.444  -3.262   2.383  1.00  0.00     0.015 A 
HETATM   17  C   UNL     1       2.381  -1.563   3.786  1.00  0.00     0.014 A 
HETATM   18  C   UNL     1       3.926  -3.654   1.140  1.00  0.00     0.020 A 
HETATM   19  C   UNL     1       3.831  -2.756   0.097  1.00  0.00     0.117 A 
HETATM   20  C   UNL     1       1.821  -0.296   3.920  1.00  0.00     0.003 A 
HETATM   21  C   UNL     1       1.760   0.558   2.820  1.00  0.00     0.032 A 
ENDBRANCH   9  12
ENDBRANCH   7   8
ENDBRANCH   3   7
BRANCH   1  22
HETATM   22  C   UNL     1       6.519   3.693  -1.970  1.00  0.00     0.066 A 
HETATM   23  C   UNL     1       7.147   2.608  -1.346  1.00  0.00     0.038 A 
HETATM   24  C   UNL     1       8.532   2.444  -1.434  1.00  0.00    -0.059 A 
HETATM   25  C   UNL     1       9.204   1.277  -0.773  1.00  0.00     0.048 C 
HETATM   26  C   UNL     1       9.273   3.357  -2.189  1.00  0.00     0.020 A 
HETATM   27  C   UNL     1       8.647   4.447  -2.818  1.00  0.00    -0.005 A 
HETATM   28  C   UNL     1       7.254   4.638  -2.700  1.00  0.00     0.093 A 
HETATM   29  C   UNL     1       9.379   5.368  -3.580  1.00  0.00     0.015 A 
HETATM   30  N   UNL     1       6.624   5.686  -3.288  1.00  0.00    -0.258 NA
HETATM   31  C   UNL     1       7.366   6.549  -4.016  1.00  0.00     0.117 A 
HETATM   32  C   UNL     1       8.731   6.434  -4.192  1.00  0.00     0.020 A 
ENDBRANCH   1  22
TORSDOF 4
