REMARK  5 active torsions:
REMARK  status: ('A' for Active; 'I' for Inactive)
REMARK    1  A    between atoms: C_3  and  N_4 
REMARK       I    between atoms: N_4  and  C_5 
REMARK       I    between atoms: C_5  and  N_6 
REMARK    2  A    between atoms: N_6  and  C_7 
REMARK    3  A    between atoms: C_7  and  C_8 
REMARK    4  A    between atoms: C_10  and  O_11 
REMARK    5  A    between atoms: O_11  and  C_12 
ROOT
HETATM    1  N   UNL     1      -1.072   3.242  -1.589  1.00  0.00    -0.308 N 
HETATM    2  C   UNL     1      -0.798   1.957  -2.009  1.00  0.00     0.321 C 
HETATM    3  N   UNL     1      -0.394   1.174  -0.950  1.00  0.00    -0.339 N 
HETATM    4  O   UNL     1      -0.927   1.521  -3.144  1.00  0.00    -0.247 OA
HETATM    5  H   UNL     1      -1.469   3.256  -0.663  1.00  0.00     0.170 HD
HETATM    6  H   UNL     1      -0.046   1.648  -0.131  1.00  0.00     0.164 HD
ENDROOT
BRANCH   3   7
HETATM    7  C   UNL     1       0.022  -0.198  -1.156  1.00  0.00     0.163 C 
BRANCH   7   8
HETATM    8  C   UNL     1      -1.014  -1.209  -0.738  1.00  0.00    -0.035 A 
HETATM    9  C   UNL     1      -2.385  -0.982  -0.898  1.00  0.00     0.066 A 
HETATM   10  C   UNL     1      -3.275  -1.985  -0.545  1.00  0.00     0.164 A 
HETATM   11  N   UNL     1      -2.905  -3.189  -0.063  1.00  0.00    -0.237 NA
HETATM   12  C   UNL     1      -1.580  -3.400   0.062  1.00  0.00     0.120 A 
HETATM   13  C   UNL     1      -0.611  -2.460  -0.257  1.00  0.00     0.028 A 
BRANCH  10  14
HETATM   14  O   UNL     1      -4.619  -1.702  -0.703  1.00  0.00    -0.329 OA
BRANCH  14  15
HETATM   15  C   UNL     1      -5.534  -2.782  -0.420  1.00  0.00     0.130 C 
HETATM   16  C   UNL     1      -5.798  -3.117   1.072  1.00  0.00     0.032 C 
HETATM   17  C   UNL     1      -7.276  -3.327   0.699  1.00  0.00     0.005 C 
HETATM   18  C   UNL     1      -7.034  -2.394  -0.501  1.00  0.00     0.032 C 
ENDBRANCH  14  15
ENDBRANCH  10  14
ENDBRANCH   7   8
ENDBRANCH   3   7
BRANCH   1  19
HETATM   19  C   UNL     1      -1.411   4.328  -2.437  1.00  0.00     0.048 A 
HETATM   20  C   UNL     1      -2.412   5.226  -1.987  1.00  0.00    -0.033 A 
HETATM   21  C   UNL     1      -3.114   5.060  -0.664  1.00  0.00     0.050 C 
HETATM   22  C   UNL     1      -2.805   6.300  -2.805  1.00  0.00     0.033 A 
HETATM   23  C   UNL     1      -2.211   6.495  -4.045  1.00  0.00     0.035 A 
HETATM   24  C   UNL     1      -1.199   5.647  -4.474  1.00  0.00     0.033 A 
HETATM   25 CL   UNL     1      -2.713   7.806  -5.040  1.00  0.00    -0.084 Cl
HETATM   26  C   UNL     1      -0.761   4.577  -3.669  1.00  0.00    -0.033 A 
HETATM   27  C   UNL     1       0.413   3.790  -4.188  1.00  0.00     0.050 C 
ENDBRANCH   1  19
TORSDOF 5
