REMARK  6 active torsions:
REMARK  status: ('A' for Active; 'I' for Inactive)
REMARK    1  A    between atoms: C_2  and  C_3 
REMARK       I    between atoms: C_3  and  N_4 
REMARK    2  A    between atoms: N_4  and  C_5 
REMARK    3  A    between atoms: C_8  and  N_9 
REMARK       I    between atoms: N_9  and  C_10 
REMARK    4  A    between atoms: C_10  and  C_11 
REMARK    5  A    between atoms: C_16  and  C_17 
REMARK    6  A    between atoms: C_23  and  C_24 
ROOT
HETATM    1  C   UNL     1      -4.311   3.907  -1.177  1.00  0.00     0.148 A 
HETATM    2  N   UNL     1      -3.156   4.267  -0.569  1.00  0.00    -0.165 NA
HETATM    3  N   UNL     1      -3.162   5.610  -0.665  1.00  0.00    -0.240 N 
HETATM    4  C   UNL     1      -4.325   6.126  -1.163  1.00  0.00     0.123 A 
HETATM    5  N   UNL     1      -4.553   7.454  -1.210  1.00  0.00    -0.364 N 
HETATM    6  C   UNL     1      -3.513   8.438  -0.906  1.00  0.00     0.143 C 
HETATM    7  C   UNL     1      -2.484   7.848   0.076  1.00  0.00     0.068 C 
HETATM    8  C   UNL     1      -2.027   6.417  -0.260  1.00  0.00     0.221 C 
HETATM    9  C   UNL     1      -5.077   5.048  -1.545  1.00  0.00     0.089 A 
HETATM   10  H   UNL     1      -5.362   7.825  -1.706  1.00  0.00     0.162 HD
ENDROOT
BRANCH   1  11
HETATM   11  C   UNL     1      -4.685   2.499  -1.398  1.00  0.00     0.276 C 
HETATM   12  N   UNL     1      -3.834   1.623  -0.751  1.00  0.00    -0.322 N 
HETATM   13  H   UNL     1      -3.140   2.083  -0.168  1.00  0.00     0.169 HD
HETATM   14  O   UNL     1      -5.670   2.202  -2.064  1.00  0.00    -0.266 OA
BRANCH  12  15
HETATM   15  C   UNL     1      -3.852   0.219  -0.792  1.00  0.00     0.035 A 
HETATM   16  C   UNL     1      -4.609  -0.516  -1.702  1.00  0.00     0.032 A 
HETATM   17  C   UNL     1      -4.560  -1.917  -1.710  1.00  0.00     0.032 A 
HETATM   18  C   UNL     1      -3.768  -2.606  -0.792  1.00  0.00     0.034 A 
HETATM   19  C   UNL     1      -3.019  -1.868   0.131  1.00  0.00     0.032 A 
HETATM   20  C   UNL     1      -3.046  -0.468   0.120  1.00  0.00     0.032 A 
BRANCH  18  21
HETATM   21  N   UNL     1      -3.681  -4.012  -0.724  1.00  0.00    -0.327 N 
HETATM   22  C   UNL     1      -4.204  -4.929  -1.619  1.00  0.00     0.221 C 
HETATM   23  O   UNL     1      -4.814  -4.672  -2.653  1.00  0.00    -0.273 OA
HETATM   24  H   UNL     1      -3.144  -4.380   0.049  1.00  0.00     0.169 HD
BRANCH  22  25
HETATM   25  C   UNL     1      -4.000  -6.374  -1.195  1.00  0.00     0.098 C 
HETATM   26  C   UNL     1      -2.547  -6.743  -0.956  1.00  0.00     0.014 C 
ENDBRANCH  22  25
ENDBRANCH  18  21
ENDBRANCH  12  15
ENDBRANCH   1  11
BRANCH   8  27
HETATM   27  C   UNL     1      -0.950   6.348  -1.321  1.00  0.00     0.409 C 
HETATM   28  F   UNL     1      -1.389   6.637  -2.561  1.00  0.00    -0.169 F 
HETATM   29  F   UNL     1       0.050   7.220  -1.035  1.00  0.00    -0.169 F 
HETATM   30  F   UNL     1      -0.376   5.123  -1.373  1.00  0.00    -0.169 F 
ENDBRANCH   8  27
BRANCH   6  31
HETATM   31  C   UNL     1      -2.892   9.079  -2.105  1.00  0.00     0.075 A 
HETATM   32  O   UNL     1      -2.068  10.142  -1.867  1.00  0.00    -0.325 OA
HETATM   33  C   UNL     1      -1.646  10.597  -3.075  1.00  0.00     0.142 A 
HETATM   34  C   UNL     1      -2.189   9.846  -4.090  1.00  0.00     0.027 A 
HETATM   35  C   UNL     1      -2.999   8.868  -3.466  1.00  0.00     0.037 A 
ENDBRANCH   6  31
TORSDOF 6
