REMARK  9 active torsions:
REMARK  status: ('A' for Active; 'I' for Inactive)
REMARK    1  A    between atoms: O_2  and  C_3 
REMARK    2  A    between atoms: C_3  and  C_4 
REMARK    3  A    between atoms: C_4  and  O_5 
REMARK    4  A    between atoms: O_5  and  C_6 
REMARK    5  A    between atoms: C_8  and  C_25 
REMARK    6  A    between atoms: C_11  and  C_12 
REMARK       I    between atoms: C_12  and  N_14 
REMARK    7  A    between atoms: N_14  and  C_15 
REMARK    8  A    between atoms: C_15  and  C_17 
REMARK    9  A    between atoms: C_21  and  O_22 
ROOT
HETATM    1  C   UNL     1       5.694  -2.750   1.513  1.00  0.00     0.085 A 
HETATM    2  C   UNL     1       5.926  -1.375   1.643  1.00  0.00     0.050 A 
HETATM    3  C   UNL     1       6.283  -0.601   0.529  1.00  0.00    -0.020 A 
HETATM    4  C   UNL     1       6.407  -1.233  -0.716  1.00  0.00     0.013 A 
HETATM    5  C   UNL     1       6.146  -2.601  -0.852  1.00  0.00     0.021 A 
HETATM    6  C   UNL     1       5.756  -3.364   0.256  1.00  0.00     0.065 A 
ENDROOT
BRANCH   6   7
HETATM    7  C   UNL     1       5.395  -4.786   0.006  1.00  0.00     0.255 C 
HETATM    8  O   UNL     1       5.935  -5.402  -0.906  1.00  0.00    -0.268 OA
HETATM    9  N   UNL     1       4.410  -5.312   0.809  1.00  0.00    -0.349 N 
HETATM   10  H   UNL     1       4.101  -4.769   1.607  1.00  0.00     0.163 HD
BRANCH   9  11
HETATM   11  C   UNL     1       3.975  -6.694   0.713  1.00  0.00     0.114 C 
HETATM   12  C   UNL     1       2.450  -6.758   0.617  1.00  0.00     0.037 C 
BRANCH  11  13
HETATM   13  C   UNL     1       4.545  -7.491   1.873  1.00  0.00    -0.033 A 
HETATM   14  C   UNL     1       5.677  -8.293   1.662  1.00  0.00     0.009 A 
HETATM   15  C   UNL     1       6.235  -9.025   2.709  1.00  0.00     0.003 A 
HETATM   16  C   UNL     1       5.677  -8.950   3.983  1.00  0.00     0.037 A 
HETATM   17  C   UNL     1       4.568  -8.137   4.225  1.00  0.00     0.068 A 
HETATM   18  C   UNL     1       4.006  -7.412   3.171  1.00  0.00     0.046 A 
BRANCH  17  19
HETATM   19  O   UNL     1       4.132  -8.139   5.522  1.00  0.00    -0.356 OA
HETATM   20  C   UNL     1       3.110  -7.208   5.856  1.00  0.00     0.210 C 
ENDBRANCH  17  19
ENDBRANCH  11  13
ENDBRANCH   9  11
ENDBRANCH   6   7
BRANCH   1  21
HETATM   21  O   UNL     1       5.355  -3.424   2.659  1.00  0.00    -0.348 OA
BRANCH  21  22
HETATM   22  C   UNL     1       6.442  -4.245   3.137  1.00  0.00     0.201 C 
BRANCH  22  23
HETATM   23  C   UNL     1       6.995  -3.689   4.448  1.00  0.00     0.193 C 
BRANCH  23  24
HETATM   24  O   UNL     1       6.014  -3.824   5.482  1.00  0.00    -0.394 OA
HETATM   25  C   UNL     1       6.537  -3.448   6.749  1.00  0.00     0.201 C 
ENDBRANCH  23  24
ENDBRANCH  22  23
ENDBRANCH  21  22
ENDBRANCH   1  21
BRANCH   3  26
HETATM   26  C   UNL     1       6.490   0.831   0.668  1.00  0.00     0.010 A 
HETATM   27  C   UNL     1       5.959   1.757   1.598  1.00  0.00     0.152 A 
HETATM   28  N   UNL     1       6.390   3.004   1.393  1.00  0.00    -0.187 NA
HETATM   29  N   UNL     1       7.196   2.886   0.327  1.00  0.00    -0.289 N 
HETATM   30  H   UNL     1       7.648   3.722  -0.029  1.00  0.00     0.188 HD
HETATM   31  C   UNL     1       7.293   1.607  -0.142  1.00  0.00     0.123 A 
ENDBRANCH   3  26
TORSDOF 9
