REMARK  7 active torsions:
REMARK  status: ('A' for Active; 'I' for Inactive)
REMARK    1  A    between atoms: C_4  and  C_5 
REMARK    2  A    between atoms: C_9  and  C_10 
REMARK       I    between atoms: C_10  and  N_11 
REMARK    3  A    between atoms: N_11  and  N_12 
REMARK       I    between atoms: N_12  and  C_13 
REMARK    4  A    between atoms: C_13  and  C_14 
REMARK    5  A    between atoms: C_14  and  C_15 
REMARK    6  A    between atoms: C_15  and  C_16 
REMARK    7  A    between atoms: C_16  and  C_17 
ROOT
HETATM    1  N   UNL     1       5.078  -3.293  -0.136  1.00  0.00    -0.267 N 
HETATM    2  C   UNL     1       4.741  -4.607  -0.382  1.00  0.00     0.236 C 
HETATM    3  O   UNL     1       3.581  -4.976  -0.550  1.00  0.00    -0.272 OA
HETATM    4  H   UNL     1       6.005  -3.003   0.176  1.00  0.00     0.190 HD
ENDROOT
BRANCH   1   5
HETATM    5  N   UNL     1       4.039  -2.373   0.036  1.00  0.00    -0.262 N 
HETATM    6  C   UNL     1       4.292  -1.186   0.690  1.00  0.00     0.288 C 
HETATM    7  O   UNL     1       5.419  -0.891   1.086  1.00  0.00    -0.264 OA
HETATM    8  H   UNL     1       3.106  -2.691  -0.214  1.00  0.00     0.190 HD
BRANCH   6   9
HETATM    9  C   UNL     1       3.157  -0.325   0.869  1.00  0.00     0.121 A 
HETATM   10  N   UNL     1       3.262   0.884   1.497  1.00  0.00    -0.272 N 
HETATM   11  N   UNL     1       2.117   1.577   1.552  1.00  0.00    -0.174 NA
HETATM   12  H   UNL     1       4.102   1.292   1.897  1.00  0.00     0.189 HD
HETATM   13  C   UNL     1       1.210   0.789   0.952  1.00  0.00     0.089 A 
HETATM   14  C   UNL     1       1.826  -0.418   0.512  1.00  0.00     0.071 A 
BRANCH  13  15
HETATM   15  C   UNL     1      -0.189   1.200   0.797  1.00  0.00    -0.006 A 
HETATM   16  C   UNL     1      -0.546   2.553   0.897  1.00  0.00     0.014 A 
HETATM   17  C   UNL     1      -1.873   2.958   0.733  1.00  0.00     0.001 A 
HETATM   18  C   UNL     1      -2.863   2.014   0.472  1.00  0.00     0.000 A 
HETATM   19  C   UNL     1      -2.527   0.665   0.377  1.00  0.00     0.001 A 
HETATM   20  C   UNL     1      -1.198   0.259   0.538  1.00  0.00     0.014 A 
ENDBRANCH  13  15
ENDBRANCH   6   9
ENDBRANCH   1   5
BRANCH   2  21
HETATM   21  C   UNL     1       5.939  -5.525  -0.445  1.00  0.00     0.112 C 
BRANCH  21  22
HETATM   22  C   UNL     1       5.519  -6.974  -0.671  1.00  0.00     0.093 C 
BRANCH  22  23
HETATM   23  C   UNL     1       6.722  -7.886  -0.809  1.00  0.00     0.160 C 
HETATM   24  O   UNL     1       7.871  -7.458  -0.730  1.00  0.00    -0.292 OA
BRANCH  23  25
HETATM   25  C   UNL     1       6.494  -9.344  -1.051  1.00  0.00     0.013 A 
HETATM   26  C   UNL     1       7.611 -10.168  -1.252  1.00  0.00     0.054 A 
HETATM   27  C   UNL     1       7.443 -11.535  -1.469  1.00  0.00     0.103 A 
HETATM   28  C   UNL     1       6.160 -12.086  -1.516  1.00  0.00     0.102 A 
HETATM   29  O   UNL     1       8.584 -12.277  -1.638  1.00  0.00    -0.346 OA
HETATM   30  O   UNL     1       5.919 -13.414  -1.755  1.00  0.00    -0.346 OA
HETATM   31  C   UNL     1       5.046 -11.277  -1.305  1.00  0.00     0.040 A 
HETATM   32  C   UNL     1       7.078 -14.068  -2.287  1.00  0.00     0.202 C 
HETATM   33  C   UNL     1       8.322 -13.678  -1.505  1.00  0.00     0.202 C 
HETATM   34  C   UNL     1       5.210  -9.907  -1.075  1.00  0.00     0.018 A 
ENDBRANCH  23  25
ENDBRANCH  22  23
ENDBRANCH  21  22
ENDBRANCH   2  21
TORSDOF 7
