REMARK  6 active torsions:
REMARK  status: ('A' for Active; 'I' for Inactive)
REMARK    1  A    between atoms: O_2  and  C_3 
REMARK    2  A    between atoms: C_3  and  C_4 
REMARK    3  A    between atoms: C_4  and  N_5 
REMARK       I    between atoms: N_5  and  C_6 
REMARK    4  A    between atoms: C_6  and  C_7 
REMARK    5  A    between atoms: C_12  and  C_13 
REMARK    6  A    between atoms: C_22  and  C_23 
ROOT
HETATM    1  C   UNL     1       7.252  -0.563  -1.979  1.00  0.00     0.148 A 
HETATM    2  N   UNL     1       7.926  -1.421  -1.179  1.00  0.00    -0.165 NA
HETATM    3  N   UNL     1       8.698  -0.611  -0.432  1.00  0.00    -0.240 N 
HETATM    4  C   UNL     1       8.472   0.719  -0.639  1.00  0.00     0.123 A 
HETATM    5  N   UNL     1       9.093   1.668   0.086  1.00  0.00    -0.366 N 
HETATM    6  C   UNL     1       9.950   1.371   1.225  1.00  0.00     0.118 C 
HETATM    7  C   UNL     1       9.855  -0.101   1.669  1.00  0.00     0.066 C 
HETATM    8  C   UNL     1       9.640  -1.126   0.540  1.00  0.00     0.221 C 
HETATM    9  C   UNL     1       7.567   0.788  -1.664  1.00  0.00     0.088 A 
HETATM   10  H   UNL     1       8.916   2.657  -0.085  1.00  0.00     0.161 HD
ENDROOT
BRANCH   1  11
HETATM   11  C   UNL     1       6.309  -1.010  -3.016  1.00  0.00     0.272 C 
HETATM   12  N   UNL     1       6.138  -2.375  -3.067  1.00  0.00    -0.354 N 
HETATM   13  H   UNL     1       6.521  -2.893  -2.280  1.00  0.00     0.162 HD
HETATM   14  O   UNL     1       5.718  -0.227  -3.754  1.00  0.00    -0.266 OA
BRANCH  12  15
HETATM   15  C   UNL     1       5.083  -2.968  -3.861  1.00  0.00     0.149 C 
BRANCH  15  16
HETATM   16  C   UNL     1       5.209  -4.486  -3.944  1.00  0.00     0.186 C 
BRANCH  16  17
HETATM   17  O   UNL     1       4.998  -5.044  -2.643  1.00  0.00    -0.394 OA
HETATM   18  C   UNL     1       5.023  -6.464  -2.674  1.00  0.00     0.201 C 
ENDBRANCH  16  17
ENDBRANCH  15  16
ENDBRANCH  12  15
ENDBRANCH   1  11
BRANCH   8  19
HETATM   19  C   UNL     1      10.915  -1.553  -0.149  1.00  0.00     0.409 C 
HETATM   20  F   UNL     1      11.476  -0.591  -0.905  1.00  0.00    -0.169 F 
HETATM   21  F   UNL     1      11.841  -1.919   0.776  1.00  0.00    -0.169 F 
HETATM   22  F   UNL     1      10.727  -2.633  -0.941  1.00  0.00    -0.169 F 
ENDBRANCH   8  19
BRANCH   6  23
HETATM   23  C   UNL     1      11.362   1.892   1.011  1.00  0.00    -0.034 A 
HETATM   24  C   UNL     1      12.147   2.227   2.130  1.00  0.00     0.034 A 
HETATM   25  C   UNL     1      13.435   2.758   1.980  1.00  0.00     0.056 A 
HETATM   26 CL   UNL     1      14.306   3.165   3.416  1.00  0.00    -0.083 Cl
HETATM   27  C   UNL     1      13.965   2.952   0.702  1.00  0.00     0.055 A 
HETATM   28 CL   UNL     1      15.541   3.606   0.438  1.00  0.00    -0.083 Cl
HETATM   29  C   UNL     1      13.202   2.616  -0.417  1.00  0.00     0.026 A 
HETATM   30  C   UNL     1      11.912   2.099  -0.262  1.00  0.00     0.011 A 
ENDBRANCH   6  23
TORSDOF 6
