REMARK  9 active torsions:
REMARK  status: ('A' for Active; 'I' for Inactive)
REMARK       I    between atoms: C_2  and  N_3 
REMARK    1  A    between atoms: N_3  and  C_4 
REMARK    2  A    between atoms: C_6  and  O_7 
REMARK    3  A    between atoms: O_7  and  C_8 
REMARK    4  A    between atoms: C_8  and  C_9 
REMARK    5  A    between atoms: C_9  and  C_10 
REMARK    6  A    between atoms: C_10  and  C_11 
REMARK    7  A    between atoms: C_11  and  N_12 
REMARK       I    between atoms: N_12  and  C_13 
REMARK    8  A    between atoms: C_13  and  C_14 
REMARK    9  A    between atoms: C_18  and  C_19 
ROOT
HETATM    1  N   UNL     1      -5.878   0.593   4.696  1.00  0.00    -0.345 N 
HETATM    2  C   UNL     1      -7.243   0.635   4.808  1.00  0.00     0.270 C 
HETATM    3  O   UNL     1      -7.832   1.531   5.402  1.00  0.00    -0.266 OA
HETATM    4  H   UNL     1      -5.431  -0.215   4.291  1.00  0.00     0.163 HD
ENDROOT
BRANCH   1   5
HETATM    5  C   UNL     1      -5.037   1.590   5.305  1.00  0.00     0.217 C 
BRANCH   5   6
HETATM    6  C   UNL     1      -3.674   1.531   4.636  1.00  0.00    -0.085 C 
BRANCH   6   7
HETATM    7  C   UNL     1      -2.504   1.481   4.062  1.00  0.00    -0.078 C 
BRANCH   7   8
HETATM    8  C   UNL     1      -1.201   1.379   3.389  1.00  0.00     0.269 C 
BRANCH   8   9
HETATM    9  O   UNL     1      -0.546   2.646   3.440  1.00  0.00    -0.339 OA
BRANCH   9  10
HETATM   10  C   UNL     1       0.669   2.737   2.815  1.00  0.00     0.072 A 
HETATM   11  C   UNL     1       1.336   1.696   2.159  1.00  0.00     0.066 A 
HETATM   12  C   UNL     1       2.577   1.914   1.551  1.00  0.00     0.037 A 
HETATM   13  C   UNL     1       3.150   3.190   1.612  1.00  0.00     0.029 A 
HETATM   14  C   UNL     1       2.492   4.232   2.267  1.00  0.00     0.005 A 
HETATM   15  C   UNL     1       1.255   4.002   2.866  1.00  0.00     0.037 A 
BRANCH  12  16
HETATM   16  N   UNL     1       3.306   0.915   0.869  1.00  0.00    -0.327 N 
HETATM   17  C   UNL     1       2.941  -0.404   0.662  1.00  0.00     0.218 C 
HETATM   18  C   UNL     1       3.977  -1.175  -0.118  1.00  0.00     0.117 C 
HETATM   19  O   UNL     1       1.899  -0.945   1.017  1.00  0.00    -0.274 OA
HETATM   20  H   UNL     1       4.192   1.208   0.478  1.00  0.00     0.169 HD
ENDBRANCH  12  16
ENDBRANCH   9  10
ENDBRANCH   8   9
ENDBRANCH   7   8
ENDBRANCH   6   7
ENDBRANCH   5   6
ENDBRANCH   1   5
BRANCH   2  21
HETATM   21  C   UNL     1      -7.938  -0.455   4.178  1.00  0.00     0.120 A 
HETATM   22  N   UNL     1      -9.301  -0.548   4.201  1.00  0.00    -0.272 N 
HETATM   23  H   UNL     1      -9.947   0.104   4.636  1.00  0.00     0.189 HD
HETATM   24  N   UNL     1      -9.791  -1.628   3.576  1.00  0.00    -0.174 NA
HETATM   25  C   UNL     1      -8.711  -2.271   3.105  1.00  0.00     0.089 A 
HETATM   26  C   UNL     1      -7.528  -1.564   3.463  1.00  0.00     0.071 A 
BRANCH  25  27
HETATM   27  C   UNL     1      -8.827  -3.524   2.348  1.00  0.00    -0.003 A 
HETATM   28  C   UNL     1     -10.047  -4.222   2.322  1.00  0.00     0.053 A 
HETATM   29  C   UNL     1     -10.115  -5.403   1.612  1.00  0.00     0.106 A 
HETATM   30  C   UNL     1      -9.030  -5.906   0.935  1.00  0.00     0.105 A 
HETATM   31  O   UNL     1     -11.213  -6.198   1.493  1.00  0.00    -0.323 OA
HETATM   32  O   UNL     1      -9.307  -7.078   0.305  1.00  0.00    -0.323 OA
HETATM   33  C   UNL     1      -7.818  -5.254   0.927  1.00  0.00     0.040 A 
HETATM   34  C   UNL     1     -10.693  -7.257   0.664  1.00  0.00     0.352 A 
HETATM   35  C   UNL     1      -7.719  -4.052   1.641  1.00  0.00     0.017 A 
ENDBRANCH  25  27
ENDBRANCH   2  21
TORSDOF 9
