REMARK  8 active torsions:
REMARK  status: ('A' for Active; 'I' for Inactive)
REMARK    1  A    between atoms: C_2  and  C_3 
REMARK    2  A    between atoms: C_6  and  C_7 
REMARK       I    between atoms: C_7  and  N_8 
REMARK    3  A    between atoms: C_12  and  O_13 
REMARK    4  A    between atoms: O_13  and  C_14 
REMARK    5  A    between atoms: C_14  and  C_15 
REMARK    6  A    between atoms: C_15  and  O_16 
REMARK    7  A    between atoms: C_18  and  N_19 
REMARK       I    between atoms: N_19  and  C_20 
REMARK    8  A    between atoms: C_20  and  C_21 
ROOT
HETATM    1  C   UNL     1       3.772  -3.552  -3.907  1.00  0.00     0.274 C 
HETATM    2  N   UNL     1       4.048  -3.341  -5.267  1.00  0.00    -0.347 N 
HETATM    3  C   UNL     1       3.074  -3.411  -6.357  1.00  0.00     0.127 C 
HETATM    4  C   UNL     1       3.097  -2.122  -7.174  1.00  0.00     0.037 C 
HETATM    5  C   UNL     1       4.508  -1.772  -7.696  1.00  0.00     0.019 C 
HETATM    6  C   UNL     1       5.020  -2.730  -8.845  1.00  0.00     0.162 C 
HETATM    7  C   UNL     1       5.633  -1.827  -9.967  1.00  0.00     0.148 C 
HETATM    8  C   UNL     1       5.083  -0.468  -9.647  1.00  0.00    -0.026 A 
HETATM    9  C   UNL     1       4.496  -0.419  -8.384  1.00  0.00    -0.038 A 
HETATM   10  C   UNL     1       5.163   0.667 -10.448  1.00  0.00     0.010 A 
HETATM   11  C   UNL     1       4.653   1.871  -9.962  1.00  0.00     0.001 A 
HETATM   12  C   UNL     1       4.080   1.930  -8.687  1.00  0.00     0.001 A 
HETATM   13  C   UNL     1       3.999   0.784  -7.892  1.00  0.00     0.009 A 
HETATM   14  C   UNL     1       5.494  -1.753  -6.505  1.00  0.00     0.037 C 
HETATM   15  C   UNL     1       5.417  -3.035  -5.672  1.00  0.00     0.127 C 
HETATM   16  O   UNL     1       4.595  -3.247  -3.041  1.00  0.00    -0.266 OA
ENDROOT
BRANCH   6  17
HETATM   17  O   UNL     1       3.921  -3.509  -9.364  1.00  0.00    -0.380 OA
BRANCH  17  18
HETATM   18  C   UNL     1       4.350  -4.653 -10.108  1.00  0.00     0.194 C 
BRANCH  18  19
HETATM   19  C   UNL     1       3.137  -5.506 -10.467  1.00  0.00     0.193 C 
BRANCH  19  20
HETATM   20  O   UNL     1       3.558  -6.626 -11.244  1.00  0.00    -0.394 OA
HETATM   21  C   UNL     1       2.464  -7.456 -11.607  1.00  0.00     0.201 C 
ENDBRANCH  19  20
ENDBRANCH  18  19
ENDBRANCH  17  18
ENDBRANCH   6  17
BRANCH   7  22
HETATM   22  N   UNL     1       7.087  -1.770  -9.990  1.00  0.00    -0.350 N 
HETATM   23  C   UNL     1       7.841  -2.848 -10.382  1.00  0.00     0.221 C 
HETATM   24  O   UNL     1       7.375  -3.976 -10.510  1.00  0.00    -0.273 OA
HETATM   25  H   UNL     1       7.505  -0.850 -10.031  1.00  0.00     0.163 HD
BRANCH  23  26
HETATM   26  C   UNL     1       9.298  -2.546 -10.713  1.00  0.00     0.070 C 
HETATM   27  C   UNL     1       9.385  -1.725 -11.998  1.00  0.00     0.019 C 
HETATM   28  C   UNL     1      10.023  -1.858  -9.561  1.00  0.00     0.019 C 
ENDBRANCH  23  26
ENDBRANCH   7  22
BRANCH   1  29
HETATM   29  C   UNL     1       2.476  -4.115  -3.494  1.00  0.00     0.154 A 
HETATM   30  N   UNL     1       1.783  -5.014  -4.213  1.00  0.00    -0.123 NA
HETATM   31  O   UNL     1       0.641  -5.294  -3.489  1.00  0.00    -0.217 OA
HETATM   32  C   UNL     1       0.666  -4.613  -2.313  1.00  0.00     0.084 A 
HETATM   33  C   UNL     1       1.819  -3.870  -2.256  1.00  0.00     0.075 A 
BRANCH  32  34
HETATM   34  C   UNL     1      -0.492  -4.793  -1.392  1.00  0.00     0.037 C 
HETATM   35  C   UNL     1      -0.793  -6.271  -1.145  1.00  0.00     0.016 C 
HETATM   36  C   UNL     1      -1.728  -4.072  -1.931  1.00  0.00     0.016 C 
ENDBRANCH  32  34
ENDBRANCH   1  29
TORSDOF 8
