REMARK  5 active torsions:
REMARK  status: ('A' for Active; 'I' for Inactive)
REMARK    1  A    between atoms: O_2  and  C_3 
REMARK    2  A    between atoms: C_4  and  C_5 
REMARK    3  A    between atoms: C_9  and  N_10 
REMARK       I    between atoms: N_10  and  C_11 
REMARK    4  A    between atoms: C_11  and  C_12 
REMARK    5  A    between atoms: C_12  and  C_13 
ROOT
HETATM    1  C   UNL     1       3.143   2.873  -0.838  1.00  0.00     0.093 A 
HETATM    2  N   UNL     1       2.030   2.556  -0.157  1.00  0.00    -0.172 NA
HETATM    3  N   UNL     1       1.604   3.726   0.349  1.00  0.00    -0.262 N 
HETATM    4  H   UNL     1       0.769   3.750   0.929  1.00  0.00     0.191 HD
HETATM    5  C   UNL     1       2.370   4.798  -0.023  1.00  0.00     0.126 A 
HETATM    6  C   UNL     1       3.384   4.276  -0.788  1.00  0.00     0.084 A 
ENDROOT
BRANCH   5   7
HETATM    7  N   UNL     1       2.109   6.106   0.328  1.00  0.00    -0.311 N 
HETATM    8  C   UNL     1       1.029   6.445   1.120  1.00  0.00     0.236 C 
HETATM    9  O   UNL     1       0.225   5.656   1.609  1.00  0.00    -0.272 OA
HETATM   10  H   UNL     1       2.714   6.836  -0.026  1.00  0.00     0.170 HD
BRANCH   8  11
HETATM   11  C   UNL     1       0.871   7.929   1.343  1.00  0.00     0.068 A 
HETATM   12  C   UNL     1       0.808   8.404   2.794  1.00  0.00     0.026 A 
HETATM   13  C   UNL     1       2.027   8.697   1.981  1.00  0.00     0.026 A 
BRANCH  11  14
HETATM   14  C   UNL     1      -0.036   8.646   0.345  1.00  0.00    -0.039 A 
HETATM   15  C   UNL     1       0.478   9.426  -0.705  1.00  0.00     0.032 A 
HETATM   16  C   UNL     1      -0.372  10.060  -1.615  1.00  0.00     0.034 A 
HETATM   17 CL   UNL     1       0.298  11.011  -2.883  1.00  0.00    -0.084 Cl
HETATM   18  C   UNL     1      -1.752   9.927  -1.505  1.00  0.00     0.024 A 
HETATM   19  C   UNL     1      -2.287   9.154  -0.479  1.00  0.00     0.002 A 
HETATM   20  C   UNL     1      -1.436   8.523   0.432  1.00  0.00     0.008 A 
ENDBRANCH  11  14
ENDBRANCH   8  11
ENDBRANCH   5   7
BRANCH   1  21
HETATM   21  C   UNL     1       3.922   1.874  -1.568  1.00  0.00     0.029 A 
HETATM   22  C   UNL     1       4.332   0.661  -0.990  1.00  0.00     0.081 A 
HETATM   23  C   UNL     1       5.098  -0.257  -1.719  1.00  0.00     0.039 A 
HETATM   24  C   UNL     1       5.437   0.014  -3.044  1.00  0.00     0.026 A 
HETATM   25  C   UNL     1       5.022   1.208  -3.629  1.00  0.00     0.035 A 
HETATM   26  C   UNL     1       4.273   2.135  -2.903  1.00  0.00     0.040 A 
HETATM   27 CL   UNL     1       5.447   1.549  -5.262  1.00  0.00    -0.084 Cl
BRANCH  22  28
HETATM   28  O   UNL     1       4.085   0.390   0.332  1.00  0.00    -0.355 OA
HETATM   29  C   UNL     1       3.045  -0.582   0.455  1.00  0.00     0.210 C 
ENDBRANCH  22  28
ENDBRANCH   1  21
TORSDOF 5
