REMARK  6 active torsions:
REMARK  status: ('A' for Active; 'I' for Inactive)
REMARK    1  A    between atoms: C_2  and  C_3 
REMARK    2  A    between atoms: C_5  and  C_6 
REMARK       I    between atoms: C_6  and  N_7 
REMARK    3  A    between atoms: N_7  and  C_8 
REMARK    4  A    between atoms: C_8  and  C_9 
REMARK    5  A    between atoms: C_9  and  C_10 
REMARK    6  A    between atoms: C_19  and  O_20 
ROOT
HETATM    1  C   UNL     1       4.819  -0.194   4.344  1.00  0.00     0.254 C 
HETATM    2  N   UNL     1       5.420  -0.649   5.495  1.00  0.00    -0.356 N 
HETATM    3  O   UNL     1       4.298  -0.952   3.531  1.00  0.00    -0.268 OA
HETATM    4  H   UNL     1       5.769   0.055   6.140  1.00  0.00     0.162 HD
ENDROOT
BRANCH   1   5
HETATM    5  C   UNL     1       4.815   1.287   4.114  1.00  0.00     0.065 A 
HETATM    6  C   UNL     1       4.191   1.744   2.939  1.00  0.00     0.027 A 
HETATM    7  C   UNL     1       4.130   3.110   2.628  1.00  0.00    -0.057 A 
HETATM    8  C   UNL     1       4.695   4.032   3.514  1.00  0.00     0.010 A 
HETATM    9  C   UNL     1       5.319   3.597   4.685  1.00  0.00     0.038 A 
HETATM   10  C   UNL     1       5.379   2.232   4.984  1.00  0.00     0.081 A 
BRANCH   7  11
HETATM   11  C   UNL     1       3.434   3.575   1.374  1.00  0.00     0.034 C 
HETATM   12  C   UNL     1       1.944   3.787   1.600  1.00  0.00     0.010 C 
ENDBRANCH   7  11
BRANCH  10  13
HETATM   13  O   UNL     1       5.995   1.846   6.149  1.00  0.00    -0.360 OA
HETATM   14  H   UNL     1       6.341   2.640   6.594  1.00  0.00     0.217 HD
ENDBRANCH  10  13
ENDBRANCH   1   5
BRANCH   2  15
HETATM   15  C   UNL     1       5.401  -2.052   5.860  1.00  0.00     0.136 C 
BRANCH  15  16
HETATM   16  C   UNL     1       6.214  -2.411   7.138  1.00  0.00    -0.004 C 
HETATM   17  C   UNL     1       7.690  -1.976   6.980  1.00  0.00     0.021 C 
HETATM   18  C   UNL     1       5.639  -1.627   8.343  1.00  0.00     0.021 C 
BRANCH  16  19
HETATM   19  C   UNL     1       6.148  -3.941   7.338  1.00  0.00    -0.046 A 
HETATM   20  C   UNL     1       6.762  -4.806   6.416  1.00  0.00     0.027 A 
HETATM   21  C   UNL     1       6.684  -6.180   6.603  1.00  0.00     0.116 A 
HETATM   22  N   UNL     1       6.043  -6.761   7.635  1.00  0.00    -0.273 NA
HETATM   23  C   UNL     1       5.448  -5.928   8.511  1.00  0.00     0.116 A 
HETATM   24  C   UNL     1       5.470  -4.542   8.407  1.00  0.00     0.027 A 
ENDBRANCH  16  19
ENDBRANCH  15  16
ENDBRANCH   2  15
TORSDOF 6
