REMARK  5 active torsions:
REMARK  status: ('A' for Active; 'I' for Inactive)
REMARK    1  A    between atoms: C_2  and  N_3 
REMARK       I    between atoms: N_3  and  C_4 
REMARK    2  A    between atoms: C_4  and  C_5 
REMARK    3  A    between atoms: C_13  and  C_14 
REMARK    4  A    between atoms: C_16  and  O_17 
REMARK    5  A    between atoms: C_19  and  O_20 
ROOT
HETATM    1  C   UNL     1       2.026   1.741  -2.407  1.00  0.00     0.046 A 
HETATM    2  C   UNL     1       1.184   2.607  -3.138  1.00  0.00     0.008 A 
HETATM    3  C   UNL     1       0.427   2.009  -4.164  1.00  0.00     0.068 A 
HETATM    4  C   UNL     1      -0.425   2.803  -4.920  1.00  0.00     0.032 A 
HETATM    5  C   UNL     1      -0.559   4.174  -4.693  1.00  0.00     0.002 A 
HETATM    6  C   UNL     1       0.174   4.774  -3.681  1.00  0.00     0.001 A 
HETATM    7  C   UNL     1       1.036   3.999  -2.907  1.00  0.00     0.015 A 
HETATM    8  N   UNL     1       0.481   0.696  -4.446  1.00  0.00    -0.248 NA
HETATM    9  C   UNL     1       1.310  -0.115  -3.747  1.00  0.00     0.069 A 
HETATM   10  C   UNL     1       2.096   0.379  -2.721  1.00  0.00     0.050 A 
ENDROOT
BRANCH   9  11
HETATM   11  C   UNL     1       1.287  -1.545  -4.126  1.00  0.00    -0.004 A 
HETATM   12  C   UNL     1       0.120  -2.126  -4.662  1.00  0.00     0.053 A 
HETATM   13  C   UNL     1       0.057  -3.486  -4.998  1.00  0.00     0.102 A 
HETATM   14  C   UNL     1       1.176  -4.308  -4.781  1.00  0.00     0.101 A 
HETATM   15  C   UNL     1       2.350  -3.744  -4.280  1.00  0.00     0.040 A 
HETATM   16  C   UNL     1       2.404  -2.381  -3.962  1.00  0.00     0.017 A 
BRANCH  13  17
HETATM   17  O   UNL     1      -1.059  -4.103  -5.508  1.00  0.00    -0.353 OA
HETATM   18  C   UNL     1      -2.096  -3.266  -6.002  1.00  0.00     0.210 C 
ENDBRANCH  13  17
BRANCH  14  19
HETATM   19  O   UNL     1       1.036  -5.632  -5.113  1.00  0.00    -0.353 OA
HETATM   20  C   UNL     1       2.030  -6.529  -4.639  1.00  0.00     0.210 C 
ENDBRANCH  14  19
ENDBRANCH   9  11
BRANCH   1  21
HETATM   21  C   UNL     1       2.890   2.228  -1.298  1.00  0.00     0.253 C 
HETATM   22  N   UNL     1       2.876   1.439  -0.164  1.00  0.00    -0.349 N 
HETATM   23  H   UNL     1       2.138   0.749  -0.092  1.00  0.00     0.163 HD
HETATM   24  O   UNL     1       3.553   3.247  -1.430  1.00  0.00    -0.268 OA
BRANCH  22  25
HETATM   25  C   UNL     1       3.622   1.730   1.071  1.00  0.00     0.022 C 
HETATM   26  C   UNL     1       3.067   2.990   1.749  1.00  0.00     0.037 C 
HETATM   27  C   UNL     1       5.126   1.895   0.796  1.00  0.00     0.037 C 
HETATM   28  C   UNL     1       3.442   0.534   2.024  1.00  0.00     0.037 C 
ENDBRANCH  22  25
ENDBRANCH   1  21
TORSDOF 5
