REMARK  4 active torsions:
REMARK  status: ('A' for Active; 'I' for Inactive)
REMARK    1  A    between atoms: N_2  and  C_3 
REMARK    2  A    between atoms: C_9  and  N_10 
REMARK       I    between atoms: N_10  and  C_11 
REMARK    3  A    between atoms: C_11  and  C_12 
REMARK    4  A    between atoms: C_12  and  C_13 
ROOT
HETATM    1  N   UNL     1       5.732  -3.761  -5.081  1.00  0.00    -0.327 N 
HETATM    2  C   UNL     1       6.008  -5.116  -5.157  1.00  0.00     0.227 C 
HETATM    3  O   UNL     1       5.279  -6.028  -4.767  1.00  0.00    -0.273 OA
HETATM    4  H   UNL     1       6.454  -3.113  -5.379  1.00  0.00     0.169 HD
ENDROOT
BRANCH   1   5
HETATM    5  C   UNL     1       4.544  -3.151  -4.615  1.00  0.00     0.037 A 
HETATM    6  C   UNL     1       3.401  -3.872  -4.240  1.00  0.00     0.069 A 
HETATM    7  C   UNL     1       2.302  -3.114  -3.843  1.00  0.00     0.110 A 
HETATM    8  O   UNL     1       1.078  -3.573  -3.459  1.00  0.00    -0.276 OA
HETATM    9  C   UNL     1       2.269  -1.734  -3.785  1.00  0.00     0.095 A 
HETATM   10  C   UNL     1       0.356  -2.433  -3.197  1.00  0.00     0.249 A 
HETATM   11  N   UNL     1       1.035  -1.316  -3.368  1.00  0.00    -0.206 NA
HETATM   12  C   UNL     1       3.413  -1.017  -4.142  1.00  0.00     0.037 A 
HETATM   13  C   UNL     1       4.542  -1.743  -4.561  1.00  0.00     0.032 A 
BRANCH  10  14
HETATM   14  N   UNL     1      -0.938  -2.583  -2.828  1.00  0.00    -0.354 N 
HETATM   15  C   UNL     1      -1.363  -3.857  -2.273  1.00  0.00     0.152 C 
HETATM   16  C   UNL     1      -1.609  -1.396  -2.322  1.00  0.00     0.152 C 
ENDBRANCH  10  14
ENDBRANCH   1   5
BRANCH   2  17
HETATM   17  C   UNL     1       7.352  -5.400  -5.806  1.00  0.00     0.161 C 
BRANCH  17  18
HETATM   18  C   UNL     1       7.836  -6.783  -5.580  1.00  0.00     0.035 A 
HETATM   19  N   UNL     1       7.086  -7.790  -4.981  1.00  0.00    -0.344 N 
HETATM   20  H   UNL     1       6.125  -7.648  -4.650  1.00  0.00     0.167 HD
HETATM   21  C   UNL     1       7.774  -8.921  -4.899  1.00  0.00     0.111 A 
HETATM   22  N   UNL     1       8.980  -8.693  -5.452  1.00  0.00    -0.317 N 
HETATM   23  C   UNL     1       7.418 -10.245  -4.336  1.00  0.00     0.049 A 
HETATM   24  C   UNL     1       9.043  -7.381  -5.886  1.00  0.00     0.123 A 
HETATM   25  C   UNL     1       9.954  -9.669  -5.536  1.00  0.00     0.098 A 
HETATM   26  C   UNL     1       9.657 -10.882  -5.032  1.00  0.00     0.018 A 
HETATM   27  C   UNL     1       8.369 -11.194  -4.415  1.00  0.00     0.005 A 
ENDBRANCH  17  18
ENDBRANCH   2  17
TORSDOF 4
