REMARK  6 active torsions:
REMARK  status: ('A' for Active; 'I' for Inactive)
REMARK    1  A    between atoms: C_2  and  N_3 
REMARK    2  A    between atoms: C_2  and  C_11 
REMARK       I    between atoms: N_3  and  C_4 
REMARK    3  A    between atoms: C_4  and  C_5 
REMARK    4  A    between atoms: C_14  and  O_15 
REMARK    5  A    between atoms: O_15  and  C_16 
REMARK    6  A    between atoms: C_16  and  C_17 
ROOT
HETATM    1  C   UNL     1       5.291  -0.399   0.027  1.00  0.00    -0.036 A 
HETATM    2  C   UNL     1       5.400  -1.152   1.206  1.00  0.00     0.012 A 
HETATM    3  C   UNL     1       6.437  -0.917   2.116  1.00  0.00     0.037 A 
HETATM    4  C   UNL     1       7.392   0.062   1.850  1.00  0.00     0.069 A 
HETATM    5  C   UNL     1       7.274   0.837   0.696  1.00  0.00     0.037 A 
HETATM    6  C   UNL     1       6.237   0.608  -0.211  1.00  0.00     0.012 A 
ENDROOT
BRANCH   1   7
HETATM    7  C   UNL     1       4.199  -0.720  -0.979  1.00  0.00     0.113 C 
HETATM    8  C   UNL     1       3.307   0.490  -1.265  1.00  0.00     0.037 C 
BRANCH   7   9
HETATM    9  N   UNL     1       4.804  -1.231  -2.200  1.00  0.00    -0.352 N 
HETATM   10  C   UNL     1       4.116  -2.025  -3.080  1.00  0.00     0.225 C 
HETATM   11  O   UNL     1       2.937  -2.322  -2.938  1.00  0.00    -0.273 OA
HETATM   12  H   UNL     1       5.809  -1.148  -2.291  1.00  0.00     0.163 HD
BRANCH  10  13
HETATM   13  C   UNL     1       4.836  -2.520  -4.279  1.00  0.00     0.119 A 
HETATM   14  C   UNL     1       6.266  -2.984  -4.293  1.00  0.00     0.126 A 
HETATM   15 CL   UNL     1       7.315  -2.862  -2.890  1.00  0.00    -0.101 Cl
HETATM   16 CL   UNL     1       6.672  -4.355  -5.329  1.00  0.00    -0.101 Cl
HETATM   17  C   UNL     1       5.889  -1.697  -4.981  1.00  0.00     0.060 A 
ENDBRANCH  10  13
ENDBRANCH   7   9
ENDBRANCH   1   7
BRANCH   4  18
HETATM   18  O   UNL     1       8.472   0.360   2.634  1.00  0.00    -0.347 OA
BRANCH  18  19
HETATM   19  C   UNL     1       8.858  -0.628   3.588  1.00  0.00     0.215 C 
BRANCH  19  20
HETATM   20  C   UNL     1      10.258  -0.326   4.043  1.00  0.00    -0.017 A 
HETATM   21  C   UNL     1      11.300  -1.215   3.796  1.00  0.00     0.125 A 
HETATM   22  N   UNL     1      12.580  -1.013   4.180  1.00  0.00    -0.272 NA
HETATM   23  C   UNL     1      12.842   0.138   4.834  1.00  0.00     0.116 A 
HETATM   24  C   UNL     1      11.882   1.093   5.125  1.00  0.00     0.020 A 
HETATM   25  C   UNL     1      10.571   0.854   4.724  1.00  0.00     0.012 A 
ENDBRANCH  19  20
ENDBRANCH  18  19
ENDBRANCH   4  18
TORSDOF 6
