REMARK  8 active torsions:
REMARK  status: ('A' for Active; 'I' for Inactive)
REMARK    1  A    between atoms: C_2  and  C_3 
REMARK    2  A    between atoms: C_3  and  C_4 
REMARK    3  A    between atoms: C_7  and  N_8 
REMARK       I    between atoms: N_8  and  C_9 
REMARK    4  A    between atoms: C_9  and  C_10 
REMARK    5  A    between atoms: C_13  and  N_14 
REMARK       I    between atoms: N_14  and  C_15 
REMARK    6  A    between atoms: C_15  and  C_16 
REMARK    7  A    between atoms: C_16  and  C_17 
REMARK    8  A    between atoms: C_19  and  N_20 
ROOT
HETATM    1  C   UNL     1       1.422   1.595  -2.971  1.00  0.00     0.032 A 
HETATM    2  C   UNL     1       1.307   0.284  -3.448  1.00  0.00     0.019 A 
HETATM    3  C   UNL     1       1.273   0.030  -4.826  1.00  0.00     0.030 A 
HETATM    4  C   UNL     1       1.319   1.079  -5.746  1.00  0.00     0.034 A 
HETATM    5  C   UNL     1       1.391   2.392  -5.270  1.00  0.00     0.030 A 
HETATM    6  C   UNL     1       1.454   2.648  -3.894  1.00  0.00     0.019 A 
ENDROOT
BRANCH   4   7
HETATM    7  N   UNL     1       1.246   0.894  -7.144  1.00  0.00    -0.327 N 
HETATM    8  C   UNL     1       1.487  -0.283  -7.824  1.00  0.00     0.223 C 
HETATM    9  O   UNL     1       1.889  -1.325  -7.305  1.00  0.00    -0.273 OA
HETATM   10  H   UNL     1       1.107   1.747  -7.668  1.00  0.00     0.169 HD
BRANCH   8  11
HETATM   11  C   UNL     1       1.141  -0.296  -9.309  1.00  0.00     0.128 C 
BRANCH  11  12
HETATM   12  C   UNL     1       1.529   0.881 -10.191  1.00  0.00     0.158 A 
HETATM   13  S   UNL     1       3.169   1.590  -9.916  1.00  0.00    -0.077 SA
HETATM   14  C   UNL     1       2.464   3.149  -9.526  1.00  0.00     0.168 A 
HETATM   15  N   UNL     1       1.172   3.198  -9.578  1.00  0.00    -0.189 NA
HETATM   16  C   UNL     1       0.577   2.041 -10.013  1.00  0.00     0.260 A 
HETATM   17  O   UNL     1      -0.631   1.930 -10.181  1.00  0.00    -0.270 OA
BRANCH  14  18
HETATM   18  N   UNL     1       3.263   4.204  -9.138  1.00  0.00    -0.360 N 
HETATM   19  C   UNL     1       4.690   4.312  -9.468  1.00  0.00     0.125 C 
HETATM   20  C   UNL     1       4.845   5.072 -10.786  1.00  0.00     0.020 C 
HETATM   21  C   UNL     1       4.168   6.444 -10.715  1.00  0.00     0.003 C 
HETATM   22  C   UNL     1       2.723   6.331 -10.224  1.00  0.00     0.020 C 
HETATM   23  C   UNL     1       2.647   5.525  -8.926  1.00  0.00     0.125 C 
ENDBRANCH  14  18
ENDBRANCH  11  12
ENDBRANCH   8  11
ENDBRANCH   4   7
BRANCH   1  24
HETATM   24  C   UNL     1       1.464   1.926  -1.510  1.00  0.00     0.256 C 
HETATM   25  N   UNL     1       1.886   0.906  -0.675  1.00  0.00    -0.323 N 
HETATM   26  H   UNL     1       2.220   0.058  -1.108  1.00  0.00     0.169 HD
HETATM   27  O   UNL     1       1.143   3.059  -1.167  1.00  0.00    -0.267 OA
BRANCH  25  28
HETATM   28  C   UNL     1       1.935   0.912   0.736  1.00  0.00     0.035 A 
HETATM   29  C   UNL     1       1.582   2.001   1.530  1.00  0.00     0.030 A 
HETATM   30  C   UNL     1       1.645   1.913   2.927  1.00  0.00     0.010 A 
HETATM   31  C   UNL     1       2.048   0.730   3.559  1.00  0.00    -0.054 A 
HETATM   32  C   UNL     1       2.406  -0.360   2.757  1.00  0.00     0.010 A 
HETATM   33  C   UNL     1       2.355  -0.268   1.362  1.00  0.00     0.030 A 
BRANCH  31  34
HETATM   34  C   UNL     1       2.113   0.609   5.073  1.00  0.00     0.014 C 
HETATM   35  C   UNL     1       0.752   0.920   5.711  1.00  0.00     0.015 C 
BRANCH  34  36
HETATM   36  C   UNL     1       3.210   1.497   5.693  1.00  0.00     0.004 C 
HETATM   37  C   UNL     1       4.617   1.084   5.279  1.00  0.00     0.006 C 
ENDBRANCH  34  36
ENDBRANCH  31  34
ENDBRANCH  25  28
ENDBRANCH   1  24
TORSDOF 8
