REMARK  5 active torsions:
REMARK  status: ('A' for Active; 'I' for Inactive)
REMARK    1  A    between atoms: C_7  and  C_8 
REMARK    2  A    between atoms: C_11  and  N_12 
REMARK       I    between atoms: N_12  and  C_13 
REMARK    3  A    between atoms: C_13  and  C_14 
REMARK    4  A    between atoms: C_16  and  O_17 
REMARK    5  A    between atoms: C_20  and  O_21 
ROOT
HETATM    1  C   UNL     1       8.200  -2.047  -0.123  1.00  0.00     0.017 A 
HETATM    2  C   UNL     1       9.330  -1.402  -0.640  1.00  0.00     0.018 A 
HETATM    3  C   UNL     1      10.523  -2.103  -0.862  1.00  0.00     0.030 A 
HETATM    4  C   UNL     1      10.608  -3.466  -0.577  1.00  0.00     0.035 A 
HETATM    5  C   UNL     1       9.498  -4.105  -0.015  1.00  0.00     0.030 A 
HETATM    6  C   UNL     1       8.308  -3.404   0.210  1.00  0.00     0.018 A 
ENDROOT
BRANCH   4   7
HETATM    7  N   UNL     1      11.734  -4.266  -0.864  1.00  0.00    -0.323 N 
HETATM    8  C   UNL     1      12.888  -3.877  -1.519  1.00  0.00     0.256 C 
HETATM    9  O   UNL     1      13.190  -2.748  -1.884  1.00  0.00    -0.267 OA
HETATM   10  H   UNL     1      11.616  -5.255  -0.688  1.00  0.00     0.169 HD
BRANCH   8  11
HETATM   11  C   UNL     1      13.807  -4.996  -1.858  1.00  0.00     0.037 A 
HETATM   12  C   UNL     1      14.372  -5.013  -3.137  1.00  0.00     0.054 A 
HETATM   13  C   UNL     1      15.190  -6.070  -3.532  1.00  0.00     0.071 A 
HETATM   14  C   UNL     1      15.457  -7.097  -2.626  1.00  0.00     0.073 A 
HETATM   15  C   UNL     1      14.916  -7.075  -1.333  1.00  0.00     0.071 A 
HETATM   16  C   UNL     1      14.089  -6.020  -0.945  1.00  0.00     0.054 A 
BRANCH  13  17
HETATM   17  O   UNL     1      15.655  -5.984  -4.814  1.00  0.00    -0.356 OA
HETATM   18  C   UNL     1      16.405  -7.089  -5.303  1.00  0.00     0.210 C 
ENDBRANCH  13  17
BRANCH  15  19
HETATM   19  O   UNL     1      15.269  -8.144  -0.555  1.00  0.00    -0.356 OA
HETATM   20  C   UNL     1      14.769  -8.177   0.776  1.00  0.00     0.210 C 
ENDBRANCH  15  19
ENDBRANCH   8  11
ENDBRANCH   4   7
BRANCH   1  21
HETATM   21  C   UNL     1       6.916  -1.367   0.029  1.00  0.00     0.180 A 
HETATM   22  O   UNL     1       6.845  -0.074  -0.428  1.00  0.00    -0.289 OA
HETATM   23  C   UNL     1       5.535   0.264  -0.259  1.00  0.00     0.106 A 
HETATM   24  C   UNL     1       4.886  -0.822   0.300  1.00  0.00     0.094 A 
HETATM   25  C   UNL     1       4.926   1.465  -0.594  1.00  0.00     0.040 A 
HETATM   26  C   UNL     1       3.511  -0.733   0.557  1.00  0.00     0.041 A 
HETATM   27  N   UNL     1       5.774  -1.850   0.490  1.00  0.00    -0.221 NA
HETATM   28  C   UNL     1       2.841   0.462   0.229  1.00  0.00    -0.060 A 
HETATM   29  C   UNL     1       1.363   0.591   0.463  1.00  0.00     0.048 C 
HETATM   30  C   UNL     1       3.550   1.539  -0.338  1.00  0.00     0.009 A 
ENDBRANCH   1  21
TORSDOF 5
