REMARK  6 active torsions:
REMARK  status: ('A' for Active; 'I' for Inactive)
REMARK    1  A    between atoms: C_2  and  C_3 
REMARK    2  A    between atoms: C_7  and  N_8 
REMARK       I    between atoms: N_8  and  C_9 
REMARK    3  A    between atoms: C_9  and  C_10 
REMARK    4  A    between atoms: C_11  and  C_12 
REMARK    5  A    between atoms: C_14  and  O_15 
REMARK    6  A    between atoms: C_17  and  O_18 
ROOT
HETATM    1  N   UNL     1       5.652   2.896  -2.402  1.00  0.00    -0.322 N 
HETATM    2  C   UNL     1       6.225   1.661  -2.657  1.00  0.00     0.245 C 
HETATM    3  O   UNL     1       6.054   0.629  -2.023  1.00  0.00    -0.268 OA
HETATM    4  H   UNL     1       6.152   3.681  -2.791  1.00  0.00     0.169 HD
ENDROOT
BRANCH   1   5
HETATM    5  C   UNL     1       4.819   3.165  -1.273  1.00  0.00     0.055 C 
HETATM    6  C   UNL     1       3.761   2.295  -0.879  1.00  0.00     0.020 A 
HETATM    7  C   UNL     1       3.125   2.586   0.340  1.00  0.00     0.069 A 
HETATM    8  C   UNL     1       3.254   1.203  -1.637  1.00  0.00     0.016 A 
HETATM    9  N   UNL     1       3.454   3.636   1.101  1.00  0.00    -0.252 NA
HETATM   10  C   UNL     1       2.094   1.771   0.792  1.00  0.00     0.032 A 
HETATM   11  C   UNL     1       4.410   4.497   0.687  1.00  0.00     0.043 C 
HETATM   12  C   UNL     1       5.079   4.344  -0.535  1.00  0.00    -0.010 C 
HETATM   13  C   UNL     1       6.105   5.350  -0.985  1.00  0.00     0.052 C 
HETATM   14  C   UNL     1       1.637   0.678   0.056  1.00  0.00     0.002 A 
HETATM   15  C   UNL     1       2.213   0.400  -1.172  1.00  0.00     0.001 A 
BRANCH  11  16
HETATM   16  C   UNL     1       4.707   5.651   1.623  1.00  0.00     0.055 C 
HETATM   17  C   UNL     1       4.222   5.451   3.056  1.00  0.00     0.011 C 
ENDBRANCH  11  16
ENDBRANCH   1   5
BRANCH   2  18
HETATM   18  C   UNL     1       7.205   1.717  -3.781  1.00  0.00     0.075 C 
HETATM   19  C   UNL     1       8.008   0.660  -3.987  1.00  0.00     0.017 C 
BRANCH  19  20
HETATM   20  C   UNL     1       9.045   0.552  -5.023  1.00  0.00    -0.033 A 
HETATM   21  C   UNL     1       9.404  -0.731  -5.472  1.00  0.00     0.051 A 
HETATM   22  C   UNL     1      10.438  -0.912  -6.398  1.00  0.00     0.102 A 
HETATM   23  C   UNL     1      11.129   0.213  -6.875  1.00  0.00     0.101 A 
HETATM   24  C   UNL     1      10.768   1.494  -6.450  1.00  0.00     0.040 A 
HETATM   25  C   UNL     1       9.740   1.660  -5.518  1.00  0.00     0.014 A 
BRANCH  22  26
HETATM   26  O   UNL     1      10.855  -2.127  -6.878  1.00  0.00    -0.353 OA
HETATM   27  C   UNL     1      10.284  -3.292  -6.298  1.00  0.00     0.210 C 
ENDBRANCH  22  26
BRANCH  23  28
HETATM   28  O   UNL     1      12.124   0.012  -7.800  1.00  0.00    -0.353 OA
HETATM   29  C   UNL     1      13.331   0.705  -7.495  1.00  0.00     0.210 C 
ENDBRANCH  23  28
ENDBRANCH  19  20
ENDBRANCH   2  18
TORSDOF 6
