REMARK  8 active torsions:
REMARK  status: ('A' for Active; 'I' for Inactive)
REMARK    1  A    between atoms: O_2  and  C_3 
REMARK    2  A    between atoms: C_6  and  N_7 
REMARK    3  A    between atoms: N_7  and  C_8 
REMARK    4  A    between atoms: C_12  and  C_13 
REMARK       I    between atoms: C_13  and  N_14 
REMARK    5  A    between atoms: N_14  and  C_15 
REMARK    6  A    between atoms: C_15  and  C_16 
REMARK    7  A    between atoms: C_16  and  N_17 
REMARK    8  A    between atoms: N_21  and  C_22 
ROOT
HETATM    1  C   UNL     1       4.974  -4.984   3.061  1.00  0.00     0.129 A 
HETATM    2  N   UNL     1       5.907  -5.914   3.330  1.00  0.00    -0.231 NA
HETATM    3  C   UNL     1       5.551  -7.166   3.650  1.00  0.00     0.070 A 
HETATM    4  C   UNL     1       4.212  -7.598   3.673  1.00  0.00     0.009 A 
HETATM    5  C   UNL     1       3.252  -6.629   3.302  1.00  0.00     0.048 A 
HETATM    6  C   UNL     1       3.630  -5.309   3.048  1.00  0.00     0.068 A 
HETATM    7  C   UNL     1       6.556  -8.067   3.972  1.00  0.00     0.032 A 
HETATM    8  C   UNL     1       6.278  -9.384   4.340  1.00  0.00     0.002 A 
HETATM    9  C   UNL     1       4.962  -9.815   4.403  1.00  0.00     0.001 A 
HETATM   10  C   UNL     1       3.934  -8.931   4.078  1.00  0.00     0.015 A 
ENDROOT
BRANCH   5  11
HETATM   11  C   UNL     1       1.816  -6.936   3.088  1.00  0.00     0.252 C 
HETATM   12  N   UNL     1       1.532  -8.032   2.303  1.00  0.00    -0.355 N 
HETATM   13  H   UNL     1       2.325  -8.585   1.984  1.00  0.00     0.162 HD
HETATM   14  O   UNL     1       0.940  -6.160   3.459  1.00  0.00    -0.268 OA
BRANCH  12  15
HETATM   15  C   UNL     1       0.218  -8.656   2.153  1.00  0.00     0.150 C 
BRANCH  15  16
HETATM   16  C   UNL     1      -1.052  -7.785   2.287  1.00  0.00     0.254 C 
BRANCH  16  17
HETATM   17  N   UNL     1      -0.931  -6.435   1.630  1.00  0.00    -0.067 N 
HETATM   18  H   UNL     1      -0.133  -5.993   2.128  1.00  0.00     0.280 HD
HETATM   19  C   UNL     1      -0.617  -6.454   0.144  1.00  0.00     0.254 C 
HETATM   20  C   UNL     1      -0.393  -5.018  -0.374  1.00  0.00     0.150 C 
HETATM   21  N   UNL     1      -1.534  -4.147  -0.046  1.00  0.00    -0.378 N 
HETATM   22  C   UNL     1      -1.885  -4.109   1.390  1.00  0.00     0.150 C 
HETATM   23  C   UNL     1      -2.128  -5.537   1.930  1.00  0.00     0.254 C 
BRANCH  21  24
HETATM   24  C   UNL     1      -2.523  -3.859  -0.982  1.00  0.00     0.031 A 
HETATM   25  C   UNL     1      -3.337  -2.724  -0.826  1.00  0.00     0.053 A 
HETATM   26  C   UNL     1      -4.321  -2.390  -1.762  1.00  0.00     0.036 A 
HETATM   27 CL   UNL     1      -5.283  -0.984  -1.521  1.00  0.00    -0.084 Cl
HETATM   28  C   UNL     1      -4.520  -3.177  -2.887  1.00  0.00     0.024 A 
HETATM   29  C   UNL     1      -3.722  -4.299  -3.077  1.00  0.00     0.004 A 
HETATM   30  C   UNL     1      -2.734  -4.628  -2.138  1.00  0.00     0.029 A 
ENDBRANCH  21  24
ENDBRANCH  16  17
ENDBRANCH  15  16
ENDBRANCH  12  15
ENDBRANCH   5  11
BRANCH   1  31
HETATM   31  N   UNL     1       5.335  -3.653   2.760  1.00  0.00    -0.341 N 
HETATM   32  H   UNL     1       4.909  -3.019   3.428  1.00  0.00     0.167 HD
BRANCH  31  33
HETATM   33  C   UNL     1       6.587  -3.180   2.310  1.00  0.00     0.033 A 
HETATM   34  C   UNL     1       7.452  -3.963   1.540  1.00  0.00     0.032 A 
HETATM   35  C   UNL     1       8.637  -3.431   1.022  1.00  0.00     0.039 A 
HETATM   36  C   UNL     1       8.975  -2.096   1.244  1.00  0.00     0.068 A 
HETATM   37  C   UNL     1       8.117  -1.299   1.998  1.00  0.00     0.039 A 
HETATM   38  C   UNL     1       6.928  -1.834   2.513  1.00  0.00     0.032 A 
BRANCH  36  39
HETATM   39  O   UNL     1      10.150  -1.701   0.670  1.00  0.00    -0.356 OA
HETATM   40  C   UNL     1      10.490  -0.325   0.780  1.00  0.00     0.210 C 
ENDBRANCH  36  39
ENDBRANCH  31  33
ENDBRANCH   1  31
TORSDOF 8
