REMARK  6 active torsions:
REMARK  status: ('A' for Active; 'I' for Inactive)
REMARK    1  A    between atoms: C_2  and  O_3 
REMARK    2  A    between atoms: O_3  and  C_4 
REMARK    3  A    between atoms: C_7  and  C_8 
REMARK       I    between atoms: C_8  and  N_9 
REMARK    4  A    between atoms: N_9  and  C_10 
REMARK    5  A    between atoms: N_11  and  C_12 
REMARK    6  A    between atoms: C_24  and  C_25 
ROOT
HETATM    1  C   UNL     1       2.826  -7.020   2.804  1.00  0.00     0.152 C 
HETATM    2  N   UNL     1       3.954  -6.398   2.269  1.00  0.00    -0.044 N 
HETATM    3  N   UNL     1       4.634  -7.255   1.433  1.00  0.00    -0.148 NA
HETATM    4  C   UNL     1       3.765  -8.251   1.224  1.00  0.00     0.115 C 
HETATM    5  C   UNL     1       2.605  -8.127   2.016  1.00  0.00     0.087 C 
ENDROOT
BRANCH   1   6
HETATM    6  N   UNL     1       2.085  -6.617   3.904  1.00  0.00    -0.307 N 
HETATM    7  C   UNL     1       2.697  -5.982   4.970  1.00  0.00     0.257 C 
HETATM    8  O   UNL     1       3.881  -5.684   5.071  1.00  0.00    -0.267 OA
HETATM    9  H   UNL     1       1.183  -7.050   4.061  1.00  0.00     0.170 HD
BRANCH   7  10
HETATM   10  C   UNL     1       1.815  -5.757   6.129  1.00  0.00     0.032 A 
HETATM   11  C   UNL     1       1.377  -6.845   6.892  1.00  0.00     0.020 A 
HETATM   12  C   UNL     1       0.617  -6.618   8.041  1.00  0.00     0.038 A 
HETATM   13  C   UNL     1       0.315  -5.310   8.425  1.00  0.00     0.069 A 
HETATM   14  C   UNL     1       0.714  -4.232   7.630  1.00  0.00     0.038 A 
HETATM   15  C   UNL     1       1.484  -4.450   6.487  1.00  0.00     0.020 A 
BRANCH  13  16
HETATM   16  O   UNL     1      -0.385  -4.991   9.556  1.00  0.00    -0.347 OA
BRANCH  16  17
HETATM   17  C   UNL     1       0.050  -5.643  10.762  1.00  0.00     0.120 C 
HETATM   18  C   UNL     1      -0.929  -5.224  11.857  1.00  0.00     0.040 C 
HETATM   19  C   UNL     1       1.467  -5.216  11.152  1.00  0.00     0.040 C 
ENDBRANCH  16  17
ENDBRANCH  13  16
ENDBRANCH   7  10
ENDBRANCH   1   6
BRANCH   2  20
HETATM   20  C   UNL     1       4.369  -5.048   2.313  1.00  0.00     0.732 A 
HETATM   21  N   UNL     1       3.619  -4.057   2.678  1.00  0.00    -0.067 NA
HETATM   22  C   UNL     1       4.194  -2.805   2.627  1.00  0.00     0.065 A 
HETATM   23  C   UNL     1       5.458  -2.566   2.229  1.00  0.00     0.036 A 
HETATM   24  C   UNL     1       3.291  -1.674   3.064  1.00  0.00     0.060 C 
HETATM   25  C   UNL     1       6.084  -1.205   2.156  1.00  0.00     0.046 C 
HETATM   26  C   UNL     1       6.283  -3.721   1.805  1.00  0.00     0.268 A 
HETATM   27  C   UNL     1       5.057  -0.075   2.244  1.00  0.00     0.005 C 
HETATM   28  C   UNL     1       4.027  -0.358   3.330  1.00  0.00     0.006 C 
HETATM   29  O   UNL     1       7.442  -3.598   1.427  1.00  0.00    -0.267 OA
HETATM   30  N   UNL     1       5.654  -4.923   1.856  1.00  0.00    -0.152 N 
HETATM   31  H   UNL     1       6.155  -5.752   1.558  1.00  0.00     0.188 HD
ENDBRANCH   2  20
BRANCH   4  32
HETATM   32  C   UNL     1       4.036  -9.373   0.279  1.00  0.00     0.105 A 
HETATM   33  O   UNL     1       3.178 -10.415   0.049  1.00  0.00    -0.320 OA
HETATM   34  C   UNL     1       3.768 -11.228  -0.865  1.00  0.00     0.142 A 
HETATM   35  C   UNL     1       4.996 -10.731  -1.231  1.00  0.00     0.027 A 
HETATM   36  C   UNL     1       5.170  -9.534  -0.494  1.00  0.00     0.041 A 
ENDBRANCH   4  32
TORSDOF 6
