REMARK  3 active torsions:
REMARK  status: ('A' for Active; 'I' for Inactive)
REMARK    1  A    between atoms: C_8  and  C_9 
REMARK    2  A    between atoms: C_10  and  O_11 
REMARK    3  A    between atoms: C_24  and  N_25 
ROOT
HETATM    1  C   UNL     1       0.193   3.608   2.086  1.00  0.00     0.073 C 
HETATM    2  C   UNL     1       1.081   2.432   2.258  1.00  0.00     0.062 A 
HETATM    3  N   UNL     1       0.918   1.618   3.315  1.00  0.00    -0.177 NA
HETATM    4  N   UNL     1       1.888   0.693   3.176  1.00  0.00    -0.256 N 
HETATM    5  H   UNL     1       1.967  -0.042   3.869  1.00  0.00     0.191 HD
HETATM    6  C   UNL     1       2.661   0.904   2.082  1.00  0.00     0.175 A 
HETATM    7  C   UNL     1       2.156   2.007   1.440  1.00  0.00     0.034 A 
HETATM    8  C   UNL     1       2.827   2.514   0.209  1.00  0.00     0.108 A 
HETATM    9  C   UNL     1       3.970   1.584  -0.199  1.00  0.00     0.067 A 
HETATM   10  C   UNL     1       4.695   1.915  -1.493  1.00  0.00     0.020 C 
HETATM   11  N   UNL     1       5.296   2.190  -2.567  1.00  0.00    -0.096 N 
HETATM   12  C   UNL     1       4.357   0.507   0.538  1.00  0.00     0.139 A 
HETATM   13  O   UNL     1       3.702   0.155   1.734  1.00  0.00    -0.279 OA
ENDROOT
BRANCH   8  14
HETATM   14  C   UNL     1       1.751   2.754  -0.856  1.00  0.00     0.000 A 
HETATM   15  C   UNL     1       1.481   4.104  -1.216  1.00  0.00     0.076 A 
HETATM   16  C   UNL     1       0.560   4.397  -2.220  1.00  0.00     0.038 A 
HETATM   17  C   UNL     1      -0.106   3.372  -2.882  1.00  0.00     0.015 A 
HETATM   18  C   UNL     1       0.120   2.034  -2.553  1.00  0.00    -0.025 A 
HETATM   19  C   UNL     1       1.041   1.694  -1.528  1.00  0.00    -0.016 A 
HETATM   20  C   UNL     1      -0.579   1.040  -3.260  1.00  0.00     0.012 A 
HETATM   21  C   UNL     1       1.179   0.307  -1.258  1.00  0.00     0.013 A 
HETATM   22  C   UNL     1       0.479  -0.675  -1.967  1.00  0.00     0.001 A 
HETATM   23  C   UNL     1      -0.398  -0.308  -2.973  1.00  0.00     0.001 A 
BRANCH  15  24
HETATM   24  O   UNL     1       2.174   5.069  -0.527  1.00  0.00    -0.355 OA
HETATM   25  C   UNL     1       1.857   6.433  -0.783  1.00  0.00     0.210 C 
ENDBRANCH  15  24
ENDBRANCH   8  14
BRANCH  12  26
HETATM   26  N   UNL     1       5.384  -0.352   0.222  1.00  0.00    -0.282 NA
HETATM   27  H   UNL     1       6.106   0.027  -0.385  1.00  0.00     0.126 HD
HETATM   28  H   UNL     1       5.758  -0.821   1.043  1.00  0.00     0.126 HD
ENDBRANCH  12  26
TORSDOF 3
