REMARK  2 active torsions:
REMARK  status: ('A' for Active; 'I' for Inactive)
REMARK    1  A    between atoms: C_5  and  C_6 
REMARK    2  A    between atoms: C_9  and  C_10 
ROOT
HETATM    1  C   UNL     1       6.757   0.494  -0.309  1.00  0.00     0.220 C 
HETATM    2  N   UNL     1       7.282   0.281  -1.647  1.00  0.00    -0.126 NA
HETATM    3  N   UNL     1       7.534   1.569  -2.211  1.00  0.00    -0.126 NA
HETATM    4  C   UNL     1       8.638   1.421  -3.146  1.00  0.00     0.220 C 
HETATM    5  N   UNL     1       9.160   0.113  -2.850  1.00  0.00    -0.324 N 
HETATM    6  C   UNL     1       8.395  -0.518  -1.883  1.00  0.00     0.315 C 
HETATM    7  O   UNL     1       8.708  -1.548  -1.312  1.00  0.00    -0.252 OA
HETATM    8  C   UNL     1       7.552   2.499  -1.178  1.00  0.00     0.315 C 
HETATM    9  O   UNL     1       8.038   3.616  -1.192  1.00  0.00    -0.252 OA
HETATM   10  N   UNL     1       6.983   1.895  -0.069  1.00  0.00    -0.324 N 
HETATM   11  H   UNL     1      10.057  -0.241  -3.141  1.00  0.00     0.165 HD
HETATM   12  H   UNL     1       6.961   2.344   0.833  1.00  0.00     0.165 HD
ENDROOT
BRANCH   1  13
HETATM   13  C   UNL     1       5.280   0.176  -0.175  1.00  0.00    -0.020 A 
HETATM   14  C   UNL     1       4.411   0.177  -1.279  1.00  0.00     0.011 A 
HETATM   15  C   UNL     1       3.042  -0.052  -1.119  1.00  0.00     0.007 A 
HETATM   16  C   UNL     1       2.506  -0.276   0.151  1.00  0.00    -0.062 A 
HETATM   17  C   UNL     1       1.035  -0.498   0.337  1.00  0.00     0.048 C 
HETATM   18  C   UNL     1       3.363  -0.287   1.257  1.00  0.00     0.007 A 
HETATM   19  C   UNL     1       4.734  -0.061   1.097  1.00  0.00     0.011 A 
ENDBRANCH   1  13
BRANCH   4  20
HETATM   20  C   UNL     1       8.220   1.490  -4.604  1.00  0.00    -0.020 A 
HETATM   21  C   UNL     1       6.879   1.393  -5.009  1.00  0.00     0.011 A 
HETATM   22  C   UNL     1       6.533   1.378  -6.363  1.00  0.00     0.007 A 
HETATM   23  C   UNL     1       7.522   1.456  -7.347  1.00  0.00    -0.062 A 
HETATM   24  C   UNL     1       7.164   1.402  -8.802  1.00  0.00     0.048 C 
HETATM   25  C   UNL     1       8.860   1.570  -6.955  1.00  0.00     0.007 A 
HETATM   26  C   UNL     1       9.205   1.587  -5.601  1.00  0.00     0.011 A 
ENDBRANCH   4  20
TORSDOF 2
