REMARK  5 active torsions:
REMARK  status: ('A' for Active; 'I' for Inactive)
REMARK    1  A    between atoms: O_2  and  C_3 
REMARK    2  A    between atoms: C_4  and  O_5 
REMARK    3  A    between atoms: C_8  and  C_9 
REMARK    4  A    between atoms: C_13  and  C_14 
REMARK       I    between atoms: C_14  and  N_15 
REMARK    5  A    between atoms: N_15  and  N_16 
ROOT
HETATM    1  C   UNL     1       4.270   4.466  -2.674  1.00  0.00     0.069 A 
HETATM    2  N   UNL     1       3.775   5.644  -2.232  1.00  0.00    -0.248 NA
HETATM    3  C   UNL     1       3.763   6.712  -3.044  1.00  0.00     0.068 A 
HETATM    4  C   UNL     1       4.272   6.693  -4.360  1.00  0.00     0.009 A 
HETATM    5  C   UNL     1       4.897   5.484  -4.760  1.00  0.00     0.048 A 
HETATM    6  C   UNL     1       4.871   4.367  -3.915  1.00  0.00     0.050 A 
HETATM    7  C   UNL     1       3.192   7.876  -2.550  1.00  0.00     0.032 A 
HETATM    8  C   UNL     1       3.067   9.028  -3.327  1.00  0.00     0.002 A 
HETATM    9  C   UNL     1       3.500   9.012  -4.642  1.00  0.00     0.001 A 
HETATM   10  C   UNL     1       4.085   7.856  -5.158  1.00  0.00     0.015 A 
ENDROOT
BRANCH   5  11
HETATM   11  C   UNL     1       5.609   5.269  -6.056  1.00  0.00     0.271 C 
HETATM   12  N   UNL     1       6.244   6.361  -6.612  1.00  0.00    -0.252 N 
HETATM   13  H   UNL     1       6.502   7.150  -6.024  1.00  0.00     0.191 HD
HETATM   14  O   UNL     1       5.677   4.134  -6.521  1.00  0.00    -0.266 OA
BRANCH  12  15
HETATM   15  N   UNL     1       7.101   6.136  -7.684  1.00  0.00    -0.167 N 
HETATM   16  C   UNL     1       8.340   6.713  -7.751  1.00  0.00     0.345 C 
HETATM   17  O   UNL     1       8.888   7.390  -6.896  1.00  0.00    -0.245 OA
HETATM   18  N   UNL     1       8.853   6.466  -9.009  1.00  0.00    -0.323 N 
HETATM   19  C   UNL     1       7.982   5.597  -9.785  1.00  0.00     0.117 C 
HETATM   20  H   UNL     1       9.795   6.746  -9.255  1.00  0.00     0.165 HD
HETATM   21  C   UNL     1       8.512   4.155  -9.764  1.00  0.00     0.041 C 
HETATM   22  C   UNL     1       7.748   6.103 -11.207  1.00  0.00     0.041 C 
HETATM   23  C   UNL     1       6.702   5.688  -8.923  1.00  0.00     0.275 C 
HETATM   24  C   UNL     1       9.748   3.993 -10.649  1.00  0.00     0.003 C 
HETATM   25  C   UNL     1       9.484   4.476 -12.072  1.00  0.00     0.000 C 
HETATM   26  C   UNL     1       8.975   5.914 -12.099  1.00  0.00     0.003 C 
HETATM   27  O   UNL     1       5.574   5.403  -9.301  1.00  0.00    -0.268 OA
ENDBRANCH  12  15
ENDBRANCH   5  11
BRANCH   1  28
HETATM   28  C   UNL     1       4.086   3.313  -1.768  1.00  0.00    -0.004 A 
HETATM   29  C   UNL     1       4.080   3.487  -0.367  1.00  0.00     0.053 A 
HETATM   30  C   UNL     1       3.852   2.418   0.514  1.00  0.00     0.102 A 
HETATM   31  C   UNL     1       3.591   1.149  -0.021  1.00  0.00     0.101 A 
HETATM   32  C   UNL     1       3.630   0.945  -1.400  1.00  0.00     0.040 A 
HETATM   33  C   UNL     1       3.866   2.016  -2.263  1.00  0.00     0.017 A 
BRANCH  30  34
HETATM   34  O   UNL     1       3.867   2.527   1.880  1.00  0.00    -0.353 OA
HETATM   35  C   UNL     1       4.317   3.754   2.436  1.00  0.00     0.210 C 
ENDBRANCH  30  34
BRANCH  31  36
HETATM   36  O   UNL     1       3.338   0.024   0.724  1.00  0.00    -0.353 OA
HETATM   37  C   UNL     1       2.258   0.193   1.641  1.00  0.00     0.210 C 
ENDBRANCH  31  36
ENDBRANCH   1  28
TORSDOF 5
