REMARK  5 active torsions:
REMARK  status: ('A' for Active; 'I' for Inactive)
REMARK    1  A    between atoms: N_3  and  C_4 
REMARK    2  A    between atoms: C_12  and  C_13 
REMARK    3  A    between atoms: C_13  and  N_14 
REMARK       I    between atoms: N_14  and  C_15 
REMARK       I    between atoms: C_15  and  N_16 
REMARK    4  A    between atoms: N_16  and  C_17 
REMARK    5  A    between atoms: C_17  and  C_18 
ROOT
HETATM    1  C   UNL     1       5.820  -1.617   0.084  1.00  0.00     0.165 C 
ENDROOT
BRANCH   1   2
HETATM    2  C   UNL     1       4.599  -0.750   0.126  1.00  0.00    -0.016 A 
HETATM    3  C   UNL     1       4.537   0.633  -0.017  1.00  0.00     0.021 A 
HETATM    4  N   UNL     1       3.208   1.038   0.114  1.00  0.00    -0.319 N 
HETATM    5  C   UNL     1       5.664   1.561  -0.348  1.00  0.00     0.069 C 
HETATM    6  C   UNL     1       2.429  -0.104   0.280  1.00  0.00     0.014 A 
HETATM    7  C   UNL     1       0.956  -0.105   0.514  1.00  0.00     0.068 C 
HETATM    8  C   UNL     1       3.269  -1.200   0.292  1.00  0.00     0.035 A 
BRANCH   4   9
HETATM    9  C   UNL     1       2.737   2.384   0.104  1.00  0.00     0.039 A 
HETATM   10  C   UNL     1       3.409   3.367   0.843  1.00  0.00     0.030 A 
HETATM   11  C   UNL     1       2.944   4.683   0.842  1.00  0.00     0.002 A 
HETATM   12  C   UNL     1       1.813   5.025   0.103  1.00  0.00     0.000 A 
HETATM   13  C   UNL     1       1.143   4.051  -0.636  1.00  0.00     0.002 A 
HETATM   14  C   UNL     1       1.601   2.731  -0.636  1.00  0.00     0.030 A 
ENDBRANCH   4   9
ENDBRANCH   1   2
BRANCH   1  15
HETATM   15  N   UNL     1       6.685  -1.226   1.174  1.00  0.00    -0.339 N 
HETATM   16  C   UNL     1       8.020  -1.015   0.976  1.00  0.00     0.316 C 
HETATM   17  N   UNL     1       8.605  -0.446   2.075  1.00  0.00    -0.339 N 
HETATM   18  O   UNL     1       8.614  -1.268  -0.062  1.00  0.00    -0.247 OA
HETATM   19  H   UNL     1       8.195  -0.674   2.968  1.00  0.00     0.164 HD
HETATM   20  H   UNL     1       6.251  -0.745   1.946  1.00  0.00     0.164 HD
BRANCH  17  21
HETATM   21  C   UNL     1      10.016  -0.134   2.067  1.00  0.00     0.162 C 
BRANCH  21  22
HETATM   22  C   UNL     1      10.363   0.911   3.097  1.00  0.00    -0.040 A 
HETATM   23  C   UNL     1      11.516   0.776   3.883  1.00  0.00     0.009 A 
HETATM   24  C   UNL     1      11.868   1.767   4.802  1.00  0.00     0.001 A 
HETATM   25  C   UNL     1      11.076   2.905   4.943  1.00  0.00     0.000 A 
HETATM   26  C   UNL     1       9.934   3.058   4.160  1.00  0.00     0.001 A 
HETATM   27  C   UNL     1       9.584   2.071   3.236  1.00  0.00     0.009 A 
ENDBRANCH  21  22
ENDBRANCH  17  21
ENDBRANCH   1  15
TORSDOF 5
