REMARK  8 active torsions:
REMARK  status: ('A' for Active; 'I' for Inactive)
REMARK    1  A    between atoms: C_4  and  C_5 
REMARK    2  A    between atoms: C_11  and  C_12 
REMARK    3  A    between atoms: C_12  and  C_13 
REMARK       I    between atoms: C_13  and  N_14 
REMARK    4  A    between atoms: N_14  and  C_15 
REMARK    5  A    between atoms: C_20  and  C_21 
REMARK       I    between atoms: C_21  and  N_22 
REMARK    6  A    between atoms: N_22  and  C_23 
REMARK    7  A    between atoms: C_23  and  C_24 
REMARK    8  A    between atoms: C_24  and  O_25 
ROOT
HETATM    1  C   UNL     1       1.718  -2.755  -0.811  1.00  0.00     0.228 C 
HETATM    2  N   UNL     1       1.128  -1.507  -0.715  1.00  0.00    -0.325 N 
HETATM    3  O   UNL     1       2.898  -2.979  -1.075  1.00  0.00    -0.273 OA
HETATM    4  H   UNL     1       0.132  -1.496  -0.485  1.00  0.00     0.169 HD
ENDROOT
BRANCH   2   5
HETATM    5  C   UNL     1       1.708  -0.237  -0.939  1.00  0.00     0.057 A 
HETATM    6  C   UNL     1       0.922   0.908  -0.709  1.00  0.00     0.060 A 
HETATM    7 CL   UNL     1      -0.718   0.775  -0.169  1.00  0.00    -0.082 Cl
HETATM    8  C   UNL     1       1.446   2.186  -0.904  1.00  0.00     0.027 A 
HETATM    9  C   UNL     1       2.764   2.336  -1.334  1.00  0.00     0.019 A 
HETATM   10  C   UNL     1       3.566   1.211  -1.577  1.00  0.00     0.034 A 
HETATM   11  C   UNL     1       3.025  -0.070  -1.386  1.00  0.00     0.048 A 
BRANCH  10  12
HETATM   12  C   UNL     1       4.964   1.443  -2.058  1.00  0.00     0.251 C 
HETATM   13  N   UNL     1       5.798   0.350  -2.157  1.00  0.00    -0.355 N 
HETATM   14  H   UNL     1       5.558  -0.520  -1.700  1.00  0.00     0.162 HD
HETATM   15  O   UNL     1       5.333   2.581  -2.335  1.00  0.00    -0.268 OA
BRANCH  13  16
HETATM   16  C   UNL     1       7.203   0.494  -2.498  1.00  0.00     0.149 C 
BRANCH  16  17
HETATM   17  C   UNL     1       8.063   0.680  -1.248  1.00  0.00     0.186 C 
BRANCH  17  18
HETATM   18  O   UNL     1       7.987  -0.516  -0.461  1.00  0.00    -0.394 OA
HETATM   19  C   UNL     1       8.761  -0.410   0.726  1.00  0.00     0.201 C 
ENDBRANCH  17  18
ENDBRANCH  16  17
ENDBRANCH  13  16
ENDBRANCH  10  12
ENDBRANCH   2   5
BRANCH   1  20
HETATM   20  C   UNL     1       0.771  -3.896  -0.474  1.00  0.00     0.165 C 
BRANCH  20  21
HETATM   21  C   UNL     1      -0.436  -3.865  -1.335  1.00  0.00     0.075 A 
HETATM   22  C   UNL     1      -0.764  -4.632  -2.430  1.00  0.00     0.077 A 
HETATM   23  C   UNL     1      -0.125  -5.742  -3.157  1.00  0.00     0.079 C 
HETATM   24  O   UNL     1      -1.969  -4.196  -2.898  1.00  0.00    -0.292 OA
HETATM   25  C   UNL     1      -2.325  -3.164  -2.062  1.00  0.00     0.204 A 
HETATM   26  N   UNL     1      -1.434  -2.938  -1.106  1.00  0.00    -0.224 NA
BRANCH  25  27
HETATM   27  C   UNL     1      -3.527  -2.400  -2.226  1.00  0.00     0.128 A 
HETATM   28  O   UNL     1      -4.417  -2.612  -3.251  1.00  0.00    -0.318 OA
HETATM   29  C   UNL     1      -5.425  -1.715  -3.117  1.00  0.00     0.142 A 
HETATM   30  C   UNL     1      -5.217  -0.917  -2.019  1.00  0.00     0.027 A 
HETATM   31  C   UNL     1      -4.000  -1.356  -1.445  1.00  0.00     0.043 A 
ENDBRANCH  25  27
ENDBRANCH  20  21
ENDBRANCH   1  20
TORSDOF 8
