REMARK  4 active torsions:
REMARK  status: ('A' for Active; 'I' for Inactive)
REMARK    1  A    between atoms: C_2  and  N_3 
REMARK    2  A    between atoms: C_2  and  C_13 
REMARK       I    between atoms: N_3  and  C_4 
REMARK    3  A    between atoms: C_4  and  C_5 
REMARK    4  A    between atoms: C_6  and  C_7 
ROOT
HETATM    1  C   UNL     1       3.532  -1.033  -1.055  1.00  0.00     0.040 C 
HETATM    2  C   UNL     1       2.804  -0.186  -0.013  1.00  0.00     0.150 C 
ENDROOT
BRANCH   2   3
HETATM    3  N   UNL     1       3.072   1.225  -0.201  1.00  0.00    -0.346 N 
HETATM    4  C   UNL     1       2.470   1.955  -1.187  1.00  0.00     0.241 C 
HETATM    5  O   UNL     1       1.633   1.503  -1.958  1.00  0.00    -0.269 OA
HETATM    6  H   UNL     1       3.788   1.622   0.399  1.00  0.00     0.163 HD
BRANCH   4   7
HETATM    7  C   UNL     1       2.939   3.360  -1.238  1.00  0.00     0.075 C 
HETATM    8  C   UNL     1       2.524   4.163  -2.231  1.00  0.00     0.017 C 
BRANCH   8   9
HETATM    9  C   UNL     1       2.895   5.535  -2.416  1.00  0.00    -0.029 A 
HETATM   10  C   UNL     1       2.511   6.242  -3.539  1.00  0.00     0.061 A 
HETATM   11  S   UNL     1       3.080   7.856  -3.526  1.00  0.00    -0.113 SA
HETATM   12  C   UNL     1       3.842   7.629  -2.013  1.00  0.00     0.050 A 
HETATM   13  C   UNL     1       3.668   6.349  -1.531  1.00  0.00     0.019 A 
ENDBRANCH   8   9
ENDBRANCH   4   7
ENDBRANCH   2   3
BRANCH   2  14
HETATM   14  C   UNL     1       3.267  -0.539   1.369  1.00  0.00     0.127 A 
HETATM   15  N   UNL     1       4.237   0.046   2.051  1.00  0.00    -0.231 NA
HETATM   16  C   UNL     1       4.302  -0.628   3.247  1.00  0.00     0.085 A 
HETATM   17  C   UNL     1       3.348  -1.637   3.302  1.00  0.00     0.062 A 
HETATM   18  C   UNL     1       5.158  -0.433   4.341  1.00  0.00     0.034 A 
HETATM   19  N   UNL     1       2.696  -1.553   2.099  1.00  0.00    -0.341 N 
HETATM   20  C   UNL     1       3.190  -2.484   4.401  1.00  0.00     0.032 A 
HETATM   21  H   UNL     1       1.932  -2.141   1.799  1.00  0.00     0.167 HD
HETATM   22  C   UNL     1       4.055  -2.277   5.483  1.00  0.00     0.002 A 
HETATM   23  C   UNL     1       5.023  -1.270   5.456  1.00  0.00     0.002 A 
ENDBRANCH   2  14
TORSDOF 4
