REMARK  6 active torsions:
REMARK  status: ('A' for Active; 'I' for Inactive)
REMARK    1  A    between atoms: C_2  and  O_3 
REMARK    2  A    between atoms: C_2  and  C_4 
REMARK    3  A    between atoms: C_6  and  N_7 
REMARK       I    between atoms: N_7  and  C_8 
REMARK    4  A    between atoms: C_8  and  C_9 
REMARK    5  A    between atoms: C_12  and  C_13 
REMARK    6  A    between atoms: C_18  and  C_19 
ROOT
HETATM    1  C   UNL     1       2.113   4.087   1.568  1.00  0.00     0.096 C 
HETATM    2  C   UNL     1       3.222   3.502   2.151  1.00  0.00     0.138 C 
HETATM    3  N   UNL     1       2.731   2.590   3.059  1.00  0.00    -0.240 N 
HETATM    4  C   UNL     1       3.554   1.767   3.928  1.00  0.00     0.221 C 
HETATM    5  C   UNL     1       5.022   1.783   3.464  1.00  0.00     0.067 C 
HETATM    6  C   UNL     1       5.450   3.204   3.072  1.00  0.00     0.125 C 
HETATM    7  N   UNL     1       4.564   3.683   1.996  1.00  0.00    -0.365 N 
HETATM    8  N   UNL     1       1.405   2.675   3.233  1.00  0.00    -0.181 NA
HETATM    9  C   UNL     1       1.026   3.558   2.304  1.00  0.00     0.160 C 
HETATM   10  H   UNL     1       4.879   4.594   1.652  1.00  0.00     0.162 HD
ENDROOT
BRANCH   1  11
HETATM   11  C   UNL     1       2.030   5.057   0.488  1.00  0.00     0.261 C 
HETATM   12  N   UNL     1       3.134   5.050  -0.344  1.00  0.00    -0.323 N 
HETATM   13  H   UNL     1       3.810   4.316  -0.161  1.00  0.00     0.169 HD
HETATM   14  O   UNL     1       1.032   5.755   0.358  1.00  0.00    -0.267 OA
BRANCH  12  15
HETATM   15  C   UNL     1       3.369   5.858  -1.474  1.00  0.00     0.035 A 
HETATM   16  C   UNL     1       2.536   6.908  -1.868  1.00  0.00     0.039 A 
HETATM   17  C   UNL     1       2.820   7.671  -3.016  1.00  0.00    -0.028 A 
HETATM   18  C   UNL     1       3.956   7.356  -3.773  1.00  0.00     0.010 A 
HETATM   19  C   UNL     1       4.801   6.320  -3.380  1.00  0.00     0.003 A 
HETATM   20  C   UNL     1       4.510   5.578  -2.234  1.00  0.00     0.029 A 
BRANCH  17  21
HETATM   21  C   UNL     1       1.880   8.783  -3.431  1.00  0.00     0.147 C 
HETATM   22  C   UNL     1       0.913   8.336  -4.518  1.00  0.00     0.044 C 
BRANCH  21  23
HETATM   23  O   UNL     1       2.617   9.909  -3.904  1.00  0.00    -0.391 OA
HETATM   24  H   UNL     1       3.359  10.034  -3.288  1.00  0.00     0.210 HD
ENDBRANCH  21  23
ENDBRANCH  17  21
ENDBRANCH  12  15
ENDBRANCH   1  11
BRANCH   4  25
HETATM   25  C   UNL     1       3.056   0.339   3.981  1.00  0.00     0.409 C 
HETATM   26  F   UNL     1       1.838   0.209   4.543  1.00  0.00    -0.169 F 
HETATM   27  F   UNL     1       3.025  -0.239   2.759  1.00  0.00    -0.169 F 
HETATM   28  F   UNL     1       3.903  -0.408   4.740  1.00  0.00    -0.169 F 
ENDBRANCH   4  25
BRANCH   6  29
HETATM   29  C   UNL     1       6.905   3.220   2.672  1.00  0.00     0.005 A 
HETATM   30  S   UNL     1       8.071   3.947   3.699  1.00  0.00    -0.104 SA
HETATM   31  C   UNL     1       9.348   3.564   2.630  1.00  0.00     0.050 A 
HETATM   32  C   UNL     1       8.903   2.897   1.511  1.00  0.00     0.008 A 
HETATM   33  C   UNL     1       7.493   2.702   1.532  1.00  0.00     0.017 A 
ENDBRANCH   6  29
TORSDOF 6
