REMARK  8 active torsions:
REMARK  status: ('A' for Active; 'I' for Inactive)
REMARK    1  A    between atoms: C_2  and  O_3 
REMARK    2  A    between atoms: O_3  and  C_4 
REMARK    3  A    between atoms: C_4  and  C_5 
REMARK    4  A    between atoms: C_6  and  N_7 
REMARK       I    between atoms: N_7  and  C_8 
REMARK    5  A    between atoms: C_8  and  C_9 
REMARK    6  A    between atoms: C_9  and  N_10 
REMARK    7  A    between atoms: C_22  and  C_23 
REMARK    8  A    between atoms: C_26  and  N_27 
ROOT
HETATM    1  C   UNL     1       4.933  -0.092  -0.770  1.00  0.00     0.085 A 
HETATM    2  C   UNL     1       5.760   0.916  -0.294  1.00  0.00     0.093 A 
HETATM    3  S   UNL     1       7.260   0.348   0.268  1.00  0.00    -0.082 SA
HETATM    4  C   UNL     1       6.835  -1.266  -0.055  1.00  0.00     0.065 A 
HETATM    5  C   UNL     1       5.567  -1.383  -0.597  1.00  0.00    -0.000 A 
ENDROOT
BRANCH   2   6
HETATM    6  N   UNL     1       5.519   2.287  -0.321  1.00  0.00    -0.319 N 
HETATM    7  C   UNL     1       5.977   3.140   0.657  1.00  0.00     0.248 C 
HETATM    8  O   UNL     1       6.458   2.806   1.738  1.00  0.00    -0.271 OA
HETATM    9  H   UNL     1       4.702   2.556  -0.878  1.00  0.00     0.169 HD
BRANCH   7  10
HETATM   10  C   UNL     1       5.869   4.623   0.321  1.00  0.00     0.337 C 
BRANCH  10  11
HETATM   11  N   UNL     1       6.817   5.556   1.136  1.00  0.00    -0.060 N 
HETATM   12  H   UNL     1       6.663   6.461   0.663  1.00  0.00     0.280 HD
HETATM   13  C   UNL     1       8.306   5.282   0.963  1.00  0.00     0.263 C 
HETATM   14  C   UNL     1       8.923   4.313   2.003  1.00  0.00     0.262 C 
HETATM   15  N   UNL     1       8.525   4.648   3.435  1.00  0.00    -0.072 N 
HETATM   16  H   UNL     1       9.023   5.504   3.720  1.00  0.00     0.279 HD
HETATM   17  C   UNL     1       9.020   3.564   4.379  1.00  0.00     0.269 C 
HETATM   18  C   UNL     1       7.031   4.869   3.636  1.00  0.00     0.262 C 
HETATM   19  C   UNL     1       6.406   5.815   2.580  1.00  0.00     0.263 C 
ENDBRANCH  10  11
ENDBRANCH   7  10
ENDBRANCH   2   6
BRANCH   1  20
HETATM   20  C   UNL     1       3.599   0.219  -1.292  1.00  0.00     0.297 C 
HETATM   21  O   UNL     1       3.268   1.378  -1.534  1.00  0.00    -0.259 OA
BRANCH  20  22
HETATM   22  O   UNL     1       2.794  -0.865  -1.413  1.00  0.00    -0.318 OA
BRANCH  22  23
HETATM   23  C   UNL     1       1.455  -0.645  -1.884  1.00  0.00     0.174 C 
HETATM   24  C   UNL     1       1.374  -1.027  -3.348  1.00  0.00     0.034 C 
ENDBRANCH  22  23
ENDBRANCH  20  22
ENDBRANCH   1  20
BRANCH   5  25
HETATM   25  C   UNL     1       5.067  -2.712  -0.923  1.00  0.00    -0.024 A 
HETATM   26  C   UNL     1       4.876  -3.654   0.100  1.00  0.00     0.015 A 
HETATM   27  C   UNL     1       4.437  -4.945  -0.201  1.00  0.00     0.037 A 
HETATM   28  C   UNL     1       4.182  -5.294  -1.533  1.00  0.00     0.102 A 
HETATM   29  C   UNL     1       4.366  -4.359  -2.562  1.00  0.00     0.037 A 
HETATM   30  C   UNL     1       4.813  -3.070  -2.254  1.00  0.00     0.015 A 
BRANCH  28  31
HETATM   31  N   UNL     1       3.726  -6.652  -1.854  1.00  0.00    -0.116 N 
HETATM   32  O   UNL     1       3.707  -7.481  -0.934  1.00  0.00    -0.532 OA
HETATM   33  O   UNL     1       3.388  -6.880  -3.023  1.00  0.00    -0.532 OA
ENDBRANCH  28  31
ENDBRANCH   5  25
TORSDOF 8
