REMARK  6 active torsions:
REMARK  status: ('A' for Active; 'I' for Inactive)
REMARK    1  A    between atoms: C_2  and  N_3 
REMARK    2  A    between atoms: C_2  and  C_24 
REMARK       I    between atoms: N_3  and  C_4 
REMARK    3  A    between atoms: C_4  and  C_5 
REMARK    4  A    between atoms: C_5  and  N_6 
REMARK    5  A    between atoms: C_10  and  N_11 
REMARK       I    between atoms: N_11  and  C_12 
REMARK       I    between atoms: C_12  and  N_13 
REMARK    6  A    between atoms: N_13  and  C_14 
ROOT
HETATM    1  N   UNL     1       1.566  -1.975   1.363  1.00  0.00    -0.063 N 
HETATM    2  H   UNL     1       1.010  -2.406   2.116  1.00  0.00     0.280 HD
HETATM    3  C   UNL     1       2.972  -1.840   1.900  1.00  0.00     0.237 C 
HETATM    4  C   UNL     1       3.125  -0.641   2.812  1.00  0.00     0.053 C 
HETATM    5  C   UNL     1       2.637   0.660   2.188  1.00  0.00     0.089 C 
HETATM    6  C   UNL     1       1.189   0.515   1.731  1.00  0.00     0.053 C 
HETATM    7  C   UNL     1       0.877  -0.716   0.898  1.00  0.00     0.237 C 
ENDROOT
BRANCH   1   8
HETATM    8  C   UNL     1       1.540  -2.997   0.205  1.00  0.00     0.337 C 
BRANCH   8   9
HETATM    9  C   UNL     1       2.167  -4.339   0.580  1.00  0.00     0.244 C 
HETATM   10  N   UNL     1       3.128  -4.790  -0.289  1.00  0.00    -0.351 N 
HETATM   11  H   UNL     1       3.400  -4.242  -1.099  1.00  0.00     0.163 HD
HETATM   12  O   UNL     1       1.860  -4.898   1.629  1.00  0.00    -0.272 OA
BRANCH  10  13
HETATM   13  C   UNL     1       3.888  -6.012  -0.068  1.00  0.00     0.120 C 
HETATM   14  C   UNL     1       4.929  -5.848   1.039  1.00  0.00     0.038 C 
BRANCH  13  15
HETATM   15  C   UNL     1       4.522  -6.405  -1.381  1.00  0.00     0.005 A 
HETATM   16  S   UNL     1       5.532  -5.314  -2.250  1.00  0.00    -0.104 SA
HETATM   17  C   UNL     1       5.802  -6.448  -3.498  1.00  0.00     0.050 A 
HETATM   18  C   UNL     1       5.139  -7.632  -3.272  1.00  0.00     0.008 A 
HETATM   19  C   UNL     1       4.402  -7.608  -2.052  1.00  0.00     0.017 A 
ENDBRANCH  13  15
ENDBRANCH  10  13
ENDBRANCH   8   9
ENDBRANCH   1   8
BRANCH   5  20
HETATM   20  N   UNL     1       3.579   1.226   1.218  1.00  0.00    -0.338 N 
HETATM   21  C   UNL     1       3.906   0.712  -0.013  1.00  0.00     0.321 C 
HETATM   22  N   UNL     1       5.053   1.271  -0.518  1.00  0.00    -0.309 N 
HETATM   23  O   UNL     1       3.276  -0.208  -0.519  1.00  0.00    -0.247 OA
HETATM   24  H   UNL     1       5.614   1.809   0.127  1.00  0.00     0.170 HD
HETATM   25  H   UNL     1       3.940   2.151   1.419  1.00  0.00     0.164 HD
BRANCH  22  26
HETATM   26  C   UNL     1       5.694   0.893  -1.720  1.00  0.00     0.036 A 
HETATM   27  C   UNL     1       5.054   0.200  -2.751  1.00  0.00     0.029 A 
HETATM   28  C   UNL     1       5.758  -0.179  -3.897  1.00  0.00     0.002 A 
HETATM   29  C   UNL     1       7.109   0.135  -4.023  1.00  0.00     0.000 A 
HETATM   30  C   UNL     1       7.751   0.844  -3.010  1.00  0.00     0.002 A 
HETATM   31  C   UNL     1       7.044   1.231  -1.868  1.00  0.00     0.029 A 
ENDBRANCH  22  26
ENDBRANCH   5  20
TORSDOF 6
