REMARK  5 active torsions:
REMARK  status: ('A' for Active; 'I' for Inactive)
REMARK    1  A    between atoms: C_9  and  C_10 
REMARK    2  A    between atoms: C_13  and  O_14 
REMARK    3  A    between atoms: O_14  and  C_15 
REMARK    4  A    between atoms: C_20  and  C_21 
REMARK       I    between atoms: C_21  and  N_22 
REMARK    5  A    between atoms: N_22  and  C_23 
ROOT
HETATM    1  C   UNL     1       1.109  -0.096   0.688  1.00  0.00     0.070 C 
HETATM    2  C   UNL     1       2.466  -0.144   0.029  1.00  0.00     0.037 A 
HETATM    3  N   UNL     1       3.064   1.088  -0.216  1.00  0.00    -0.192 N 
HETATM    4  C   UNL     1       4.311   1.220  -0.705  1.00  0.00     0.725 A 
HETATM    5  N   UNL     1       5.003   0.102  -1.084  1.00  0.00    -0.084 N 
HETATM    6  N   UNL     1       6.279   0.402  -1.406  1.00  0.00    -0.149 NA
HETATM    7  C   UNL     1       6.250   1.736  -1.301  1.00  0.00     0.275 A 
HETATM    8  N   UNL     1       5.067   2.275  -0.867  1.00  0.00    -0.054 NA
HETATM    9  C   UNL     1       4.474  -1.263  -0.994  1.00  0.00     0.202 A 
HETATM   10  C   UNL     1       3.116  -1.286  -0.305  1.00  0.00     0.062 A 
HETATM   11  H   UNL     1       2.567   1.922   0.084  1.00  0.00     0.184 HD
ENDROOT
BRANCH   9  12
HETATM   12  C   UNL     1       4.471  -1.914  -2.373  1.00  0.00    -0.028 A 
HETATM   13  C   UNL     1       5.458  -2.854  -2.704  1.00  0.00     0.012 A 
HETATM   14  C   UNL     1       5.475  -3.450  -3.967  1.00  0.00     0.037 A 
HETATM   15  C   UNL     1       4.509  -3.128  -4.922  1.00  0.00     0.074 A 
HETATM   16  C   UNL     1       3.536  -2.178  -4.611  1.00  0.00     0.037 A 
HETATM   17  C   UNL     1       3.518  -1.575  -3.348  1.00  0.00     0.012 A 
BRANCH  15  18
HETATM   18  O   UNL     1       4.642  -3.782  -6.114  1.00  0.00    -0.290 OA
BRANCH  18  19
HETATM   19  C   UNL     1       3.509  -3.770  -6.965  1.00  0.00     0.505 C 
HETATM   20  F   UNL     1       3.397  -2.549  -7.544  1.00  0.00    -0.184 F 
HETATM   21  F   UNL     1       3.749  -4.653  -7.968  1.00  0.00    -0.184 F 
ENDBRANCH  18  19
ENDBRANCH  15  18
ENDBRANCH   9  12
BRANCH  10  22
HETATM   22  C   UNL     1       2.478  -2.612  -0.093  1.00  0.00     0.256 C 
HETATM   23  N   UNL     1       3.240  -3.460   0.682  1.00  0.00    -0.323 N 
HETATM   24  H   UNL     1       4.129  -3.123   1.025  1.00  0.00     0.169 HD
HETATM   25  O   UNL     1       1.381  -2.838  -0.589  1.00  0.00    -0.267 OA
BRANCH  23  26
HETATM   26  C   UNL     1       2.908  -4.772   1.087  1.00  0.00     0.035 A 
HETATM   27  C   UNL     1       1.673  -5.376   0.845  1.00  0.00     0.029 A 
HETATM   28  C   UNL     1       1.420  -6.676   1.295  1.00  0.00     0.002 A 
HETATM   29  C   UNL     1       2.402  -7.386   1.981  1.00  0.00     0.000 A 
HETATM   30  C   UNL     1       3.639  -6.795   2.222  1.00  0.00     0.002 A 
HETATM   31  C   UNL     1       3.889  -5.493   1.783  1.00  0.00     0.029 A 
ENDBRANCH  23  26
ENDBRANCH  10  22
TORSDOF 5
