REMARK  7 active torsions:
REMARK  status: ('A' for Active; 'I' for Inactive)
REMARK    1  A    between atoms: O_2  and  C_3 
REMARK    2  A    between atoms: C_7  and  C_8 
REMARK    3  A    between atoms: C_8  and  N_9 
REMARK       I    between atoms: N_9  and  C_10 
REMARK    4  A    between atoms: C_10  and  C_12 
REMARK    5  A    between atoms: C_17  and  C_26 
REMARK    6  A    between atoms: C_21  and  C_22 
REMARK    7  A    between atoms: C_22  and  N_23 
ROOT
HETATM    1  C   UNL     1       7.482  -2.512   3.776  1.00  0.00     0.110 A 
HETATM    2  N   UNL     1       8.560  -3.172   3.229  1.00  0.00    -0.351 N 
HETATM    3  H   UNL     1       9.366  -2.694   2.849  1.00  0.00     0.166 HD
HETATM    4  C   UNL     1       8.380  -4.530   3.254  1.00  0.00     0.044 A 
HETATM    5  C   UNL     1       9.208  -5.559   2.782  1.00  0.00     0.042 A 
HETATM    6  C   UNL     1       8.783  -6.887   2.948  1.00  0.00    -0.021 A 
HETATM    7  C   UNL     1       7.559  -7.145   3.575  1.00  0.00     0.013 A 
HETATM    8  C   UNL     1       6.745  -6.102   4.044  1.00  0.00     0.015 A 
HETATM    9  C   UNL     1       7.158  -4.765   3.877  1.00  0.00     0.001 A 
HETATM   10  C   UNL     1       6.592  -3.489   4.224  1.00  0.00     0.015 A 
ENDROOT
BRANCH   1  11
HETATM   11  C   UNL     1       7.463  -1.065   3.827  1.00  0.00     0.269 C 
HETATM   12  N   UNL     1       6.218  -0.499   3.890  1.00  0.00    -0.351 N 
HETATM   13  H   UNL     1       5.416  -1.113   3.754  1.00  0.00     0.163 HD
HETATM   14  O   UNL     1       8.497  -0.403   3.775  1.00  0.00    -0.266 OA
BRANCH  12  15
HETATM   15  C   UNL     1       6.007   0.924   3.866  1.00  0.00     0.161 C 
BRANCH  15  16
HETATM   16  C   UNL     1       5.960   1.471   2.463  1.00  0.00    -0.038 A 
HETATM   17  C   UNL     1       7.115   1.995   1.869  1.00  0.00     0.009 A 
HETATM   18  C   UNL     1       7.074   2.506   0.573  1.00  0.00     0.003 A 
HETATM   19  C   UNL     1       5.880   2.494  -0.150  1.00  0.00     0.037 A 
HETATM   20  C   UNL     1       4.722   1.962   0.419  1.00  0.00     0.068 A 
HETATM   21  C   UNL     1       4.771   1.448   1.720  1.00  0.00     0.045 A 
BRANCH  20  22
HETATM   22  O   UNL     1       3.495   1.886  -0.182  1.00  0.00    -0.356 OA
HETATM   23  C   UNL     1       3.390   2.426  -1.493  1.00  0.00     0.210 C 
ENDBRANCH  20  22
ENDBRANCH  15  16
ENDBRANCH  12  15
ENDBRANCH   1  11
BRANCH  10  24
HETATM   24  C   UNL     1       5.310  -3.288   4.982  1.00  0.00     0.313 C 
BRANCH  24  25
HETATM   25  N   UNL     1       4.295  -2.629   4.134  1.00  0.00     0.084 N 
HETATM   26  C   UNL     1       3.819  -3.534   3.078  1.00  0.00     0.309 C 
HETATM   27  C   UNL     1       3.157  -2.224   4.970  1.00  0.00     0.309 C 
ENDBRANCH  24  25
ENDBRANCH  10  24
BRANCH   6  28
HETATM   28  C   UNL     1       9.597  -7.993   2.469  1.00  0.00     0.010 A 
HETATM   29  C   UNL     1       9.230  -9.279   2.008  1.00  0.00     0.152 A 
HETATM   30  N   UNL     1      10.282 -10.028   1.666  1.00  0.00    -0.187 NA
HETATM   31  N   UNL     1      11.329  -9.224   1.908  1.00  0.00    -0.289 N 
HETATM   32  H   UNL     1      12.261  -9.580   1.725  1.00  0.00     0.188 HD
HETATM   33  C   UNL     1      10.974  -7.997   2.390  1.00  0.00     0.123 A 
ENDBRANCH   6  28
TORSDOF 7
