REMARK  6 active torsions:
REMARK  status: ('A' for Active; 'I' for Inactive)
REMARK    1  A    between atoms: C_2  and  C_3 
REMARK    2  A    between atoms: C_3  and  C_4 
REMARK    3  A    between atoms: C_7  and  C_8 
REMARK    4  A    between atoms: C_14  and  C_15 
REMARK    5  A    between atoms: C_18  and  N_19 
REMARK       I    between atoms: N_19  and  C_20 
REMARK    6  A    between atoms: C_28  and  N_29 
ROOT
HETATM    1  C   UNL     1       0.856   2.457   5.542  1.00  0.00     0.099 A 
HETATM    2  N   UNL     1       0.972   3.799   5.626  1.00  0.00    -0.172 NA
HETATM    3  N   UNL     1       0.399   4.126   6.796  1.00  0.00    -0.256 N 
HETATM    4  H   UNL     1       0.359   5.102   7.067  1.00  0.00     0.191 HD
HETATM    5  C   UNL     1      -0.077   3.050   7.464  1.00  0.00     0.175 A 
HETATM    6  C   UNL     1       0.217   1.942   6.707  1.00  0.00     0.040 A 
HETATM    7  C   UNL     1      -0.159   0.588   7.215  1.00  0.00     0.105 C 
HETATM    8  C   UNL     1      -1.057   0.723   8.446  1.00  0.00     0.067 C 
HETATM    9  C   UNL     1      -1.856  -0.498   8.871  1.00  0.00     0.020 C 
HETATM   10  N   UNL     1      -2.520  -1.510   9.223  1.00  0.00    -0.096 N 
HETATM   11  C   UNL     1      -1.288   1.907   9.077  1.00  0.00     0.139 C 
HETATM   12  O   UNL     1      -0.711   3.107   8.629  1.00  0.00    -0.279 OA
ENDROOT
BRANCH   7  13
HETATM   13  C   UNL     1       1.160  -0.113   7.513  1.00  0.00    -0.044 A 
HETATM   14  C   UNL     1       2.033   0.334   8.520  1.00  0.00     0.010 A 
HETATM   15  C   UNL     1       3.265  -0.292   8.743  1.00  0.00     0.030 A 
HETATM   16  C   UNL     1       3.655  -1.383   7.970  1.00  0.00     0.034 A 
HETATM   17  C   UNL     1       2.782  -1.851   6.981  1.00  0.00     0.030 A 
HETATM   18  C   UNL     1       1.548  -1.228   6.757  1.00  0.00     0.010 A 
BRANCH  16  19
HETATM   19  N   UNL     1       4.893  -2.043   8.106  1.00  0.00    -0.328 N 
HETATM   20  C   UNL     1       5.905  -1.756   9.005  1.00  0.00     0.218 C 
HETATM   21  C   UNL     1       7.107  -2.648   8.812  1.00  0.00     0.117 C 
HETATM   22  O   UNL     1       5.889  -0.913   9.894  1.00  0.00    -0.274 OA
HETATM   23  H   UNL     1       5.059  -2.807   7.463  1.00  0.00     0.169 HD
ENDBRANCH  16  19
ENDBRANCH   7  13
BRANCH  11  24
HETATM   24  N   UNL     1      -2.101   2.085  10.173  1.00  0.00    -0.282 NA
HETATM   25  H   UNL     1      -2.223   1.268  10.767  1.00  0.00     0.126 HD
HETATM   26  H   UNL     1      -1.855   2.920  10.698  1.00  0.00     0.126 HD
ENDBRANCH  11  24
BRANCH   1  27
HETATM   27  C   UNL     1       1.372   1.753   4.367  1.00  0.00    -0.005 A 
HETATM   28  C   UNL     1       2.563   2.185   3.768  1.00  0.00     0.014 A 
HETATM   29  C   UNL     1       3.064   1.552   2.628  1.00  0.00     0.008 A 
HETATM   30  C   UNL     1       2.383   0.468   2.063  1.00  0.00    -0.058 A 
HETATM   31  C   UNL     1       1.193   0.033   2.658  1.00  0.00     0.008 A 
HETATM   32  C   UNL     1       0.685   0.677   3.793  1.00  0.00     0.014 A 
BRANCH  30  33
HETATM   33  C   UNL     1       2.920  -0.212   0.826  1.00  0.00     0.042 C 
BRANCH  33  34
HETATM   34  C   UNL     1       3.759  -1.470   1.122  1.00  0.00    -0.019 C 
HETATM   35  C   UNL     1       5.090  -1.131   1.799  1.00  0.00     0.010 C 
HETATM   36  C   UNL     1       4.028  -2.229  -0.181  1.00  0.00     0.010 C 
ENDBRANCH  33  34
ENDBRANCH  30  33
ENDBRANCH   1  27
TORSDOF 6
