REMARK  7 active torsions:
REMARK  status: ('A' for Active; 'I' for Inactive)
REMARK    1  A    between atoms: C_6  and  N_7 
REMARK       I    between atoms: N_7  and  C_8 
REMARK    2  A    between atoms: C_8  and  C_9 
REMARK    3  A    between atoms: C_9  and  N_10 
REMARK    4  A    between atoms: N_13  and  C_14 
REMARK    5  A    between atoms: C_14  and  C_15 
REMARK    6  A    between atoms: C_30  and  C_31 
REMARK       I    between atoms: C_31  and  N_32 
REMARK    7  A    between atoms: N_32  and  C_33 
ROOT
HETATM    1  N   UNL     1       5.448  -2.038  -0.888  1.00  0.00    -0.290 N 
HETATM    2  C   UNL     1       5.041  -0.840  -1.461  1.00  0.00     0.332 C 
HETATM    3  O   UNL     1       5.877   0.007  -1.793  1.00  0.00    -0.246 OA
HETATM    4  N   UNL     1       3.684  -0.670  -1.671  1.00  0.00    -0.261 N 
HETATM    5  C   UNL     1       2.733  -1.668  -1.523  1.00  0.00     0.264 C 
HETATM    6  O   UNL     1       1.540  -1.527  -1.779  1.00  0.00    -0.267 OA
HETATM    7  C   UNL     1       3.212  -2.976  -1.047  1.00  0.00     0.059 A 
HETATM    8  C   UNL     1       4.561  -3.136  -0.727  1.00  0.00     0.056 A 
HETATM    9  C   UNL     1       2.303  -4.035  -0.910  1.00  0.00     0.020 A 
HETATM   10  C   UNL     1       2.744  -5.280  -0.471  1.00  0.00     0.018 A 
HETATM   11  C   UNL     1       4.095  -5.471  -0.173  1.00  0.00     0.034 A 
HETATM   12  C   UNL     1       4.993  -4.397  -0.281  1.00  0.00     0.048 A 
ENDROOT
BRANCH   1  13
HETATM   13  C   UNL     1       6.862  -2.163  -0.518  1.00  0.00     0.237 C 
BRANCH  13  14
HETATM   14  C   UNL     1       7.688  -2.856  -1.604  1.00  0.00     0.240 C 
HETATM   15  N   UNL     1       7.569  -2.254  -2.844  1.00  0.00    -0.325 N 
HETATM   16  H   UNL     1       7.209  -1.304  -2.804  1.00  0.00     0.169 HD
HETATM   17  O   UNL     1       8.442  -3.778  -1.303  1.00  0.00    -0.271 OA
BRANCH  15  18
HETATM   18  C   UNL     1       8.189  -2.633  -4.061  1.00  0.00     0.046 A 
HETATM   19  C   UNL     1       8.455  -3.967  -4.437  1.00  0.00    -0.034 A 
HETATM   20  C   UNL     1       9.130  -4.221  -5.649  1.00  0.00     0.015 A 
HETATM   21  C   UNL     1       8.030  -5.183  -3.659  1.00  0.00     0.050 C 
HETATM   22  C   UNL     1       9.495  -3.193  -6.518  1.00  0.00    -0.061 A 
HETATM   23  C   UNL     1      10.169  -3.498  -7.822  1.00  0.00     0.048 C 
HETATM   24  C   UNL     1       9.151  -1.885  -6.184  1.00  0.00     0.015 A 
HETATM   25  C   UNL     1       8.506  -1.590  -4.969  1.00  0.00    -0.034 A 
HETATM   26  C   UNL     1       8.201  -0.141  -4.676  1.00  0.00     0.050 C 
ENDBRANCH  15  18
ENDBRANCH  13  14
ENDBRANCH   1  13
BRANCH   4  27
HETATM   27  C   UNL     1       3.219   0.646  -2.091  1.00  0.00     0.175 C 
BRANCH  27  28
HETATM   28  C   UNL     1       2.962   1.541  -0.894  1.00  0.00    -0.037 A 
HETATM   29  C   UNL     1       1.749   1.451  -0.190  1.00  0.00     0.048 A 
HETATM   30  C   UNL     1       1.582   2.244   0.925  1.00  0.00     0.105 A 
HETATM   31  C   UNL     1       2.561   3.107   1.354  1.00  0.00     0.105 A 
HETATM   32  O   UNL     1       0.481   2.270   1.724  1.00  0.00    -0.323 OA
HETATM   33  O   UNL     1       2.200   3.787   2.475  1.00  0.00    -0.323 OA
HETATM   34  C   UNL     1       3.763   3.227   0.691  1.00  0.00     0.040 A 
HETATM   35  C   UNL     1       0.884   3.243   2.709  1.00  0.00     0.352 A 
HETATM   36  C   UNL     1       3.964   2.432  -0.441  1.00  0.00     0.012 A 
ENDBRANCH  27  28
ENDBRANCH   4  27
BRANCH  11  37
HETATM   37  C   UNL     1       4.539  -6.825   0.259  1.00  0.00     0.252 C 
HETATM   38  N   UNL     1       5.842  -7.166  -0.046  1.00  0.00    -0.352 N 
HETATM   39  H   UNL     1       6.358  -6.583  -0.692  1.00  0.00     0.163 HD
HETATM   40  O   UNL     1       3.746  -7.579   0.810  1.00  0.00    -0.268 OA
BRANCH  38  41
HETATM   41  C   UNL     1       6.341  -8.521   0.165  1.00  0.00     0.084 C 
HETATM   42  C   UNL     1       5.893  -9.454  -0.969  1.00  0.00     0.025 C 
HETATM   43  C   UNL     1       6.600  -9.147  -2.289  1.00  0.00     0.002 C 
HETATM   44  C   UNL     1       8.117  -9.169  -2.130  1.00  0.00     0.000 C 
HETATM   45  C   UNL     1       8.588  -8.242  -1.014  1.00  0.00     0.002 C 
HETATM   46  C   UNL     1       7.868  -8.522   0.306  1.00  0.00     0.025 C 
ENDBRANCH  38  41
ENDBRANCH  11  37
TORSDOF 7
