REMARK  2 active torsions:
REMARK  status: ('A' for Active; 'I' for Inactive)
REMARK    1  A    between atoms: C_12  and  C_13 
REMARK    2  A    between atoms: C_16  and  O_17 
ROOT
HETATM    1  C   UNL     1       3.524   0.261   0.500  1.00  0.00     0.002 A 
HETATM    2  C   UNL     1       2.518   1.180   0.209  1.00  0.00     0.026 A 
HETATM    3  C   UNL     1       1.237   0.755  -0.174  1.00  0.00     0.036 A 
HETATM    4  C   UNL     1       0.959  -0.628  -0.264  1.00  0.00     0.053 A 
HETATM    5  N   UNL     1      -0.308  -1.156  -0.606  1.00  0.00    -0.356 N 
HETATM    6  C   UNL     1      -1.528  -0.578  -0.336  1.00  0.00     0.041 A 
HETATM    7  C   UNL     1      -1.797   0.672   0.073  1.00  0.00     0.056 A 
HETATM    8  C   UNL     1      -3.254   0.772   0.231  1.00  0.00     0.251 A 
HETATM    9  O   UNL     1      -3.881   1.765   0.542  1.00  0.00    -0.268 OA
HETATM   10  N   UNL     1      -3.782  -0.459  -0.058  1.00  0.00    -0.351 N 
HETATM   11  C   UNL     1      -2.786  -1.397  -0.453  1.00  0.00     0.180 A 
HETATM   12  C   UNL     1      -0.921   1.850   0.283  1.00  0.00     0.134 C 
HETATM   13  N   UNL     1       0.310   1.763  -0.531  1.00  0.00    -0.278 NA
HETATM   14  C   UNL     1       1.995  -1.539   0.016  1.00  0.00     0.031 A 
HETATM   15  C   UNL     1       3.265  -1.100   0.397  1.00  0.00     0.002 A 
HETATM   16  H   UNL     1      -0.321  -2.166  -0.709  1.00  0.00     0.166 HD
HETATM   17  H   UNL     1      -4.780  -0.618  -0.037  1.00  0.00     0.163 HD
HETATM   18  H   UNL     1       0.026   1.549  -1.487  1.00  0.00     0.128 HD
ENDROOT
BRANCH  12  19
HETATM   19  C   UNL     1      -0.613   2.211   1.733  1.00  0.00    -0.035 A 
HETATM   20  C   UNL     1      -0.436   1.240   2.735  1.00  0.00     0.012 A 
HETATM   21  C   UNL     1      -0.144   1.611   4.051  1.00  0.00     0.037 A 
HETATM   22  C   UNL     1      -0.018   2.957   4.372  1.00  0.00     0.065 A 
HETATM   23  C   UNL     1      -0.170   3.936   3.400  1.00  0.00     0.037 A 
HETATM   24  C   UNL     1      -0.461   3.565   2.086  1.00  0.00     0.012 A 
BRANCH  22  25
HETATM   25  O   UNL     1       0.264   3.361   5.644  1.00  0.00    -0.361 OA
HETATM   26  H   UNL     1       0.327   2.574   6.208  1.00  0.00     0.217 HD
ENDBRANCH  22  25
ENDBRANCH  12  19
TORSDOF 2
