REMARK  8 active torsions:
REMARK  status: ('A' for Active; 'I' for Inactive)
REMARK    1  A    between atoms: C_4  and  C_5 
REMARK    2  A    between atoms: C_5  and  N_6 
REMARK    3  A    between atoms: C_5  and  C_36 
REMARK    4  A    between atoms: N_10  and  C_11 
REMARK    5  A    between atoms: C_13  and  C_14 
REMARK       I    between atoms: C_14  and  N_15 
REMARK    6  A    between atoms: N_15  and  C_16 
REMARK    7  A    between atoms: C_19  and  O_20 
REMARK    8  A    between atoms: O_20  and  C_21 
ROOT
HETATM    1  C   UNL     1       1.810   3.856   3.528  1.00  0.00     0.181 C 
HETATM    2  N   UNL     1       2.001   5.100   4.024  1.00  0.00    -0.351 N 
HETATM    3  C   UNL     1       0.957   6.090   3.804  1.00  0.00     0.185 C 
HETATM    4  C   UNL     1      -0.387   5.440   4.041  1.00  0.00     0.140 C 
HETATM    5  C   UNL     1      -0.456   4.126   3.303  1.00  0.00     0.248 C 
HETATM    6  O   UNL     1      -1.533   3.738   2.856  1.00  0.00    -0.271 OA
HETATM    7  N   UNL     1       0.673   3.349   3.200  1.00  0.00    -0.185 NA
HETATM    8  H   UNL     1       2.948   5.453   3.922  1.00  0.00     0.163 HD
ENDROOT
BRANCH   1   9
HETATM    9  N   UNL     1       2.998   3.179   3.359  1.00  0.00    -0.250 NA
HETATM   10  C   UNL     1       3.681   3.434   2.065  1.00  0.00     0.126 C 
HETATM   11  C   UNL     1       2.986   2.670   0.916  1.00  0.00     0.251 C 
HETATM   12  N   UNL     1       2.998   1.169   1.222  1.00  0.00    -0.057 N 
HETATM   13  H   UNL     1       3.980   0.904   1.340  1.00  0.00     0.281 HD
HETATM   14  C   UNL     1       2.343   0.878   2.568  1.00  0.00     0.251 C 
HETATM   15  C   UNL     1       2.988   1.730   3.685  1.00  0.00     0.126 C 
BRANCH  12  16
HETATM   16  C   UNL     1       2.519   0.319   0.043  1.00  0.00     0.254 C 
BRANCH  16  17
HETATM   17  C   UNL     1       1.126   0.636  -0.497  1.00  0.00    -0.023 A 
HETATM   18  C   UNL     1       1.002   1.133  -1.811  1.00  0.00     0.009 A 
HETATM   19  C   UNL     1      -0.244   1.478  -2.341  1.00  0.00     0.001 A 
HETATM   20  C   UNL     1      -1.393   1.332  -1.573  1.00  0.00     0.000 A 
HETATM   21  C   UNL     1      -1.299   0.831  -0.280  1.00  0.00     0.001 A 
HETATM   22  C   UNL     1      -0.054   0.481   0.250  1.00  0.00     0.009 A 
ENDBRANCH  16  17
BRANCH  16  23
HETATM   23  C   UNL     1       2.902  -1.151   0.218  1.00  0.00    -0.023 A 
HETATM   24  C   UNL     1       4.252  -1.521   0.034  1.00  0.00     0.009 A 
HETATM   25  C   UNL     1       4.675  -2.838   0.223  1.00  0.00     0.001 A 
HETATM   26  C   UNL     1       3.758  -3.813   0.601  1.00  0.00     0.000 A 
HETATM   27  C   UNL     1       2.422  -3.472   0.785  1.00  0.00     0.001 A 
HETATM   28  C   UNL     1       1.996  -2.153   0.597  1.00  0.00     0.009 A 
ENDBRANCH  16  23
ENDBRANCH  12  16
ENDBRANCH   1   9
BRANCH   3  29
HETATM   29  C   UNL     1       1.078   6.712   2.389  1.00  0.00     0.245 C 
HETATM   30  N   UNL     1       0.329   7.870   2.240  1.00  0.00    -0.325 N 
HETATM   31  H   UNL     1      -0.298   8.130   2.993  1.00  0.00     0.169 HD
HETATM   32  O   UNL     1       1.811   6.209   1.537  1.00  0.00    -0.271 OA
BRANCH  30  33
HETATM   33  C   UNL     1       0.356   8.775   1.155  1.00  0.00     0.035 A 
HETATM   34  C   UNL     1       1.223   8.663   0.065  1.00  0.00     0.032 A 
HETATM   35  C   UNL     1       1.221   9.632  -0.944  1.00  0.00     0.039 A 
HETATM   36  C   UNL     1       0.338  10.707  -0.882  1.00  0.00     0.076 A 
HETATM   37  C   UNL     1      -0.522  10.839   0.205  1.00  0.00     0.039 A 
HETATM   38  C   UNL     1      -0.517   9.872   1.216  1.00  0.00     0.032 A 
BRANCH  36  39
HETATM   39  O   UNL     1       0.431  11.654  -1.874  1.00  0.00    -0.311 OA
BRANCH  39  40
HETATM   40  C   UNL     1      -0.729  12.042  -2.506  1.00  0.00     0.076 A 
HETATM   41  C   UNL     1      -0.814  13.386  -2.876  1.00  0.00     0.037 A 
HETATM   42  C   UNL     1      -1.934  13.851  -3.566  1.00  0.00     0.003 A 
HETATM   43  C   UNL     1      -2.963  12.971  -3.897  1.00  0.00     0.000 A 
HETATM   44  C   UNL     1      -2.870  11.624  -3.546  1.00  0.00     0.003 A 
HETATM   45  C   UNL     1      -1.750  11.155  -2.858  1.00  0.00     0.037 A 
ENDBRANCH  39  40
ENDBRANCH  36  39
ENDBRANCH  30  33
ENDBRANCH   3  29
TORSDOF 8
