REMARK  5 active torsions:
REMARK  status: ('A' for Active; 'I' for Inactive)
REMARK    1  A    between atoms: C_6  and  C_7 
REMARK    2  A    between atoms: C_7  and  C_8 
REMARK    3  A    between atoms: C_8  and  C_9 
REMARK    4  A    between atoms: C_9  and  N_10 
REMARK       I    between atoms: N_10  and  C_11 
REMARK    5  A    between atoms: C_11  and  C_12 
ROOT
HETATM    1  N   UNL     1      -6.490  -2.737   0.197  1.00  0.00    -0.356 N 
HETATM    2  C   UNL     1      -7.860  -2.882   0.126  1.00  0.00     0.272 C 
HETATM    3  O   UNL     1      -8.631  -1.929   0.048  1.00  0.00    -0.266 OA
HETATM    4  H   UNL     1      -5.965  -3.609   0.194  1.00  0.00     0.162 HD
ENDROOT
BRANCH   1   5
HETATM    5  C   UNL     1      -5.824  -1.461   0.143  1.00  0.00     0.123 C 
BRANCH   5   6
HETATM    6  C   UNL     1      -5.645  -0.974  -1.292  1.00  0.00     0.027 C 
BRANCH   6   7
HETATM    7  C   UNL     1      -4.984   0.401  -1.318  1.00  0.00     0.080 C 
BRANCH   7   8
HETATM    8  C   UNL     1      -4.737   0.866  -2.711  1.00  0.00     0.105 A 
HETATM    9  N   UNL     1      -3.618   0.737  -3.393  1.00  0.00    -0.233 NA
HETATM   10  C   UNL     1      -3.854   1.334  -4.607  1.00  0.00     0.085 A 
HETATM   11  C   UNL     1      -5.149   1.836  -4.671  1.00  0.00     0.062 A 
HETATM   12  C   UNL     1      -3.004   1.489  -5.712  1.00  0.00     0.034 A 
HETATM   13  C   UNL     1      -5.660   2.500  -5.788  1.00  0.00     0.032 A 
HETATM   14  N   UNL     1      -5.692   1.518  -3.453  1.00  0.00    -0.343 N 
HETATM   15  C   UNL     1      -4.796   2.649  -6.880  1.00  0.00     0.002 A 
HETATM   16  C   UNL     1      -3.490   2.152  -6.846  1.00  0.00     0.002 A 
HETATM   17  H   UNL     1      -6.632   1.731  -3.150  1.00  0.00     0.167 HD
ENDBRANCH   7   8
ENDBRANCH   6   7
ENDBRANCH   5   6
ENDBRANCH   1   5
BRANCH   2  18
HETATM   18  C   UNL     1      -8.288  -4.296   0.141  1.00  0.00     0.152 A 
HETATM   19  N   UNL     1      -7.369  -5.287   0.194  1.00  0.00    -0.169 NA
HETATM   20  N   UNL     1      -8.092  -6.414   0.181  1.00  0.00    -0.281 N 
HETATM   21  H   UNL     1      -7.599  -7.301   0.207  1.00  0.00     0.189 HD
HETATM   22  C   UNL     1      -9.438  -6.207   0.114  1.00  0.00     0.036 A 
HETATM   23  C   UNL     1      -9.611  -4.835   0.099  1.00  0.00     0.002 A 
HETATM   24  C   UNL     1     -10.404  -7.338   0.037  1.00  0.00     0.059 C 
HETATM   25  C   UNL     1     -10.920  -4.127   0.057  1.00  0.00     0.043 C 
HETATM   26  C   UNL     1     -11.773  -4.485  -1.162  1.00  0.00     0.005 C 
HETATM   27  C   UNL     1     -11.975  -5.979  -1.467  1.00  0.00     0.001 C 
HETATM   28  C   UNL     1     -11.849  -6.921  -0.266  1.00  0.00     0.006 C 
ENDBRANCH   2  18
TORSDOF 5
