REMARK  6 active torsions:
REMARK  status: ('A' for Active; 'I' for Inactive)
REMARK    1  A    between atoms: N_2  and  C_4 
REMARK    2  A    between atoms: C_4  and  C_5 
REMARK    3  A    between atoms: C_5  and  N_6 
REMARK    4  A    between atoms: C_5  and  C_21 
REMARK       I    between atoms: N_6  and  C_7 
REMARK       I    between atoms: C_7  and  N_8 
REMARK    5  A    between atoms: N_8  and  C_9 
REMARK    6  A    between atoms: C_12  and  C_13 
ROOT
HETATM    1  N   UNL     1       1.061  -1.563  -1.381  1.00  0.00    -0.333 N 
HETATM    2  C   UNL     1      -0.125  -0.923  -1.560  1.00  0.00     0.322 C 
HETATM    3  N   UNL     1      -1.255  -1.556  -1.156  1.00  0.00    -0.287 N 
HETATM    4  O   UNL     1      -0.188   0.230  -1.981  1.00  0.00    -0.247 OA
HETATM    5  H   UNL     1       0.975  -2.568  -1.231  1.00  0.00     0.165 HD
HETATM    6  H   UNL     1      -2.124  -1.054  -1.276  1.00  0.00     0.172 HD
ENDROOT
BRANCH   1   7
HETATM    7  C   UNL     1       2.352  -1.080  -1.851  1.00  0.00     0.145 C 
BRANCH   7   8
HETATM    8  C   UNL     1       2.716   0.397  -1.501  1.00  0.00     0.263 C 
BRANCH   8   9
HETATM    9  N   UNL     1       2.818   0.722  -0.008  1.00  0.00    -0.076 N 
HETATM   10  C   UNL     1       3.798  -0.125   0.746  1.00  0.00     0.269 C 
HETATM   11  H   UNL     1       3.197   1.677   0.011  1.00  0.00     0.279 HD
HETATM   12  C   UNL     1       1.497   0.825   0.697  1.00  0.00     0.269 C 
ENDBRANCH   8   9
ENDBRANCH   7   8
BRANCH   7  13
HETATM   13  C   UNL     1       2.561  -1.363  -3.331  1.00  0.00    -0.034 A 
HETATM   14  C   UNL     1       3.461  -2.368  -3.729  1.00  0.00     0.009 A 
HETATM   15  C   UNL     1       3.706  -2.613  -5.082  1.00  0.00     0.001 A 
HETATM   16  C   UNL     1       3.050  -1.866  -6.057  1.00  0.00     0.000 A 
HETATM   17  C   UNL     1       2.144  -0.879  -5.681  1.00  0.00     0.001 A 
HETATM   18  C   UNL     1       1.900  -0.629  -4.328  1.00  0.00     0.009 A 
ENDBRANCH   7  13
ENDBRANCH   1   7
BRANCH   3  19
HETATM   19  C   UNL     1      -1.313  -2.768  -0.530  1.00  0.00     0.175 A 
HETATM   20  S   UNL     1      -2.862  -3.218   0.013  1.00  0.00    -0.061 SA
HETATM   21  C   UNL     1      -2.179  -4.634   0.705  1.00  0.00     0.086 A 
HETATM   22  C   UNL     1      -0.821  -4.667   0.446  1.00  0.00     0.078 A 
HETATM   23  N   UNL     1      -0.325  -3.590  -0.274  1.00  0.00    -0.223 NA
BRANCH  22  24
HETATM   24  C   UNL     1       0.040  -5.749   0.873  1.00  0.00     0.011 A 
HETATM   25  C   UNL     1       0.122  -6.134   2.207  1.00  0.00     0.130 A 
HETATM   26  N   UNL     1       0.909  -7.139   2.659  1.00  0.00    -0.272 NA
HETATM   27  C   UNL     1       1.638  -7.802   1.735  1.00  0.00     0.116 A 
HETATM   28  C   UNL     1       1.629  -7.493   0.384  1.00  0.00     0.020 A 
HETATM   29  C   UNL     1       0.823  -6.443  -0.051  1.00  0.00     0.017 A 
ENDBRANCH  22  24
ENDBRANCH   3  19
TORSDOF 6
