REMARK  9 active torsions:
REMARK  status: ('A' for Active; 'I' for Inactive)
REMARK    1  A    between atoms: C_2  and  O_3 
REMARK    2  A    between atoms: O_3  and  C_4 
REMARK    3  A    between atoms: C_4  and  C_5 
REMARK    4  A    between atoms: C_10  and  N_11 
REMARK       I    between atoms: N_11  and  C_12 
REMARK    5  A    between atoms: C_12  and  C_13 
REMARK    6  A    between atoms: C_13  and  N_14 
REMARK    7  A    between atoms: C_16  and  C_17 
REMARK    8  A    between atoms: C_17  and  C_18 
REMARK    9  A    between atoms: C_18  and  O_19 
ROOT
HETATM    1  C   UNL     1       5.636  -1.130  -1.582  1.00  0.00     0.137 A 
HETATM    2  N   UNL     1       4.789  -1.909  -2.329  1.00  0.00    -0.349 N 
HETATM    3  H   UNL     1       4.213  -1.563  -3.086  1.00  0.00     0.166 HD
HETATM    4  C   UNL     1       4.822  -3.212  -1.900  1.00  0.00     0.045 A 
HETATM    5  C   UNL     1       5.725  -3.281  -0.833  1.00  0.00     0.021 A 
HETATM    6  C   UNL     1       6.255  -1.959  -0.653  1.00  0.00     0.080 A 
HETATM    7  C   UNL     1       4.107  -4.317  -2.381  1.00  0.00     0.032 A 
HETATM    8  C   UNL     1       4.300  -5.545  -1.747  1.00  0.00     0.026 A 
HETATM    9  C   UNL     1       5.169  -5.649  -0.669  1.00  0.00     0.035 A 
HETATM   10 CL   UNL     1       5.376  -7.170   0.112  1.00  0.00    -0.084 Cl
HETATM   11  C   UNL     1       5.877  -4.536  -0.200  1.00  0.00     0.040 A 
ENDROOT
BRANCH   6  12
HETATM   12  N   UNL     1       7.188  -1.423   0.234  1.00  0.00    -0.323 N 
HETATM   13  C   UNL     1       8.073  -2.102   1.031  1.00  0.00     0.248 C 
HETATM   14  O   UNL     1       8.276  -3.313   1.083  1.00  0.00    -0.271 OA
HETATM   15  H   UNL     1       7.274  -0.407   0.162  1.00  0.00     0.169 HD
BRANCH  13  16
HETATM   16  C   UNL     1       8.940  -1.195   1.909  1.00  0.00     0.338 C 
BRANCH  16  17
HETATM   17  N   UNL     1      10.302  -1.851   2.185  1.00  0.00    -0.059 N 
HETATM   18  H   UNL     1      10.024  -2.825   2.404  1.00  0.00     0.280 HD
HETATM   19  C   UNL     1      11.212  -1.992   0.958  1.00  0.00     0.190 C 
HETATM   20  C   UNL     1      12.382  -2.898   1.368  1.00  0.00     0.033 C 
HETATM   21  C   UNL     1      13.124  -2.384   2.599  1.00  0.00     0.004 C 
HETATM   22  C   UNL     1      12.170  -2.177   3.771  1.00  0.00     0.028 C 
HETATM   23  C   UNL     1      10.981  -1.300   3.408  1.00  0.00     0.236 C 
BRANCH  19  24
HETATM   24  C   UNL     1      11.630  -0.621   0.409  1.00  0.00     0.059 C 
BRANCH  24  25
HETATM   25  C   UNL     1      12.470  -0.710  -0.861  1.00  0.00     0.166 C 
BRANCH  25  26
HETATM   26  O   UNL     1      12.652   0.613  -1.342  1.00  0.00    -0.401 OA
HETATM   27  H   UNL     1      13.203   0.568  -2.145  1.00  0.00     0.209 HD
ENDBRANCH  25  26
ENDBRANCH  24  25
ENDBRANCH  19  24
ENDBRANCH  16  17
ENDBRANCH  13  16
ENDBRANCH   6  12
BRANCH   1  28
HETATM   28  C   UNL     1       5.833   0.286  -1.780  1.00  0.00     0.312 C 
HETATM   29  O   UNL     1       6.616   0.959  -1.118  1.00  0.00    -0.258 OA
BRANCH  28  30
HETATM   30  O   UNL     1       5.038   0.735  -2.785  1.00  0.00    -0.317 OA
BRANCH  30  31
HETATM   31  C   UNL     1       5.157   2.132  -3.098  1.00  0.00     0.175 C 
HETATM   32  C   UNL     1       4.293   2.961  -2.167  1.00  0.00     0.034 C 
ENDBRANCH  30  31
ENDBRANCH  28  30
ENDBRANCH   1  28
TORSDOF 9
