REMARK  3 active torsions:
REMARK  status: ('A' for Active; 'I' for Inactive)
REMARK    1  A    between atoms: C_3  and  N_4 
REMARK       I    between atoms: N_4  and  C_5 
REMARK    2  A    between atoms: C_5  and  C_6 
REMARK    3  A    between atoms: C_9  and  N_10 
REMARK       I    between atoms: N_10  and  C_11 
ROOT
HETATM    1  N   UNL     1       2.391   2.252   0.200  1.00  0.00    -0.321 N 
HETATM    2  C   UNL     1       1.062   2.238   0.586  1.00  0.00     0.256 C 
HETATM    3  O   UNL     1       0.352   1.245   0.693  1.00  0.00    -0.267 OA
HETATM    4  H   UNL     1       2.895   3.084   0.460  1.00  0.00     0.169 HD
ENDROOT
BRANCH   2   5
HETATM    5  C   UNL     1       0.485   3.553   1.025  1.00  0.00     0.032 A 
HETATM    6  C   UNL     1       1.094   4.791   0.788  1.00  0.00     0.019 A 
HETATM    7  C   UNL     1       0.542   5.968   1.318  1.00  0.00     0.030 A 
HETATM    8  C   UNL     1      -0.634   5.932   2.069  1.00  0.00     0.034 A 
HETATM    9  C   UNL     1      -1.276   4.704   2.253  1.00  0.00     0.030 A 
HETATM   10  C   UNL     1      -0.721   3.527   1.740  1.00  0.00     0.019 A 
BRANCH   8  11
HETATM   11  N   UNL     1      -1.222   7.059   2.677  1.00  0.00    -0.328 N 
HETATM   12  C   UNL     1      -0.725   8.350   2.715  1.00  0.00     0.218 C 
HETATM   13  C   UNL     1      -1.614   9.270   3.514  1.00  0.00     0.117 C 
HETATM   14  O   UNL     1       0.302   8.762   2.188  1.00  0.00    -0.274 OA
HETATM   15  H   UNL     1      -2.082   6.892   3.185  1.00  0.00     0.169 HD
ENDBRANCH   8  11
ENDBRANCH   2   5
BRANCH   1  16
HETATM   16  C   UNL     1       3.216   1.128  -0.099  1.00  0.00     0.065 C 
HETATM   17  C   UNL     1       2.778  -0.078  -0.672  1.00  0.00    -0.031 C 
HETATM   18  C   UNL     1       1.414  -0.319  -1.258  1.00  0.00     0.050 C 
HETATM   19  C   UNL     1       3.684  -1.152  -0.758  1.00  0.00     0.035 C 
HETATM   20  C   UNL     1       5.003  -0.985  -0.367  1.00  0.00     0.031 C 
HETATM   21  N   UNL     1       5.473   0.196   0.075  1.00  0.00    -0.256 NA
HETATM   22  C   UNL     1       5.964  -2.134  -0.422  1.00  0.00     0.070 C 
HETATM   23  C   UNL     1       4.596   1.228   0.195  1.00  0.00     0.058 C 
HETATM   24  C   UNL     1       5.219   2.500   0.701  1.00  0.00     0.073 C 
ENDBRANCH   1  16
TORSDOF 3
