REMARK  3 active torsions:
REMARK  status: ('A' for Active; 'I' for Inactive)
REMARK    1  A    between atoms: C_11  and  N_12 
REMARK       I    between atoms: N_12  and  C_13 
REMARK    2  A    between atoms: C_13  and  C_14 
REMARK    3  A    between atoms: C_15  and  C_16 
ROOT
HETATM    1  N   UNL     1       0.875   2.079  -1.605  1.00  0.00    -0.352 N 
HETATM    2  C   UNL     1       0.288   2.632  -2.737  1.00  0.00     0.255 C 
HETATM    3  O   UNL     1       0.912   2.808  -3.775  1.00  0.00    -0.268 OA
HETATM    4  H   UNL     1       0.398   2.349  -0.751  1.00  0.00     0.163 HD
ENDROOT
BRANCH   2   5
HETATM    5  C   UNL     1      -1.116   2.973  -2.579  1.00  0.00     0.080 A 
HETATM    6  C   UNL     1      -1.896   3.949  -3.282  1.00  0.00     0.104 A 
HETATM    7  N   UNL     1      -3.180   3.900  -2.888  1.00  0.00    -0.174 NA
HETATM    8  N   UNL     1      -3.227   2.941  -1.963  1.00  0.00    -0.288 N 
HETATM    9  H   UNL     1      -4.127   2.731  -1.541  1.00  0.00     0.188 HD
HETATM   10  C   UNL     1      -2.019   2.360  -1.726  1.00  0.00     0.128 A 
BRANCH   6  11
HETATM   11  C   UNL     1      -1.485   4.935  -4.287  1.00  0.00    -0.004 A 
HETATM   12  C   UNL     1      -2.333   5.221  -5.371  1.00  0.00     0.017 A 
HETATM   13  C   UNL     1      -1.973   6.178  -6.323  1.00  0.00     0.043 A 
HETATM   14  C   UNL     1      -0.768   6.855  -6.190  1.00  0.00     0.116 A 
HETATM   15  F   UNL     1      -0.422   7.775  -7.099  1.00  0.00    -0.206 F 
HETATM   16  C   UNL     1       0.081   6.597  -5.121  1.00  0.00     0.043 A 
HETATM   17  C   UNL     1      -0.279   5.641  -4.167  1.00  0.00     0.017 A 
ENDBRANCH   6  11
ENDBRANCH   2   5
BRANCH   1  18
HETATM   18  C   UNL     1       2.308   1.832  -1.543  1.00  0.00     0.089 C 
HETATM   19  C   UNL     1       2.838   0.828  -2.579  1.00  0.00     0.063 C 
HETATM   20  C   UNL     1       2.454  -0.633  -2.326  1.00  0.00     0.121 C 
HETATM   21  N   UNL     1       2.775  -0.997  -0.890  1.00  0.00    -0.059 N 
HETATM   22  C   UNL     1       0.993  -0.964  -2.645  1.00  0.00     0.046 C 
HETATM   23  C   UNL     1       3.335  -1.547  -3.203  1.00  0.00     0.046 C 
HETATM   24  C   UNL     1       2.420  -0.055   0.240  1.00  0.00     0.121 C 
HETATM   25  H   UNL     1       3.794  -1.150  -0.847  1.00  0.00     0.279 HD
HETATM   26  H   UNL     1       2.377  -1.926  -0.691  1.00  0.00     0.279 HD
HETATM   27  C   UNL     1       0.958  -0.255   0.654  1.00  0.00     0.046 C 
HETATM   28  C   UNL     1       3.298  -0.475   1.437  1.00  0.00     0.046 C 
HETATM   29  C   UNL     1       2.757   1.397  -0.144  1.00  0.00     0.063 C 
ENDBRANCH   1  18
TORSDOF 3
