REMARK  7 active torsions:
REMARK  status: ('A' for Active; 'I' for Inactive)
REMARK    1  A    between atoms: C_10  and  C_11 
REMARK       I    between atoms: C_11  and  N_12 
REMARK    2  A    between atoms: N_12  and  C_13 
REMARK    3  A    between atoms: C_13  and  C_14 
REMARK    4  A    between atoms: C_14  and  O_15 
REMARK    5  A    between atoms: C_14  and  C_16 
REMARK    6  A    between atoms: C_16  and  O_17 
REMARK    7  A    between atoms: O_17  and  C_18 
ROOT
HETATM    1  C   UNL     1       9.889   1.698   0.315  1.00  0.00     0.257 C 
HETATM    2  N   UNL     1       9.197   0.523   0.132  1.00  0.00    -0.354 N 
HETATM    3  O   UNL     1      11.071   1.740   0.638  1.00  0.00    -0.267 OA
HETATM    4  H   UNL     1       8.195   0.637  -0.017  1.00  0.00     0.162 HD
ENDROOT
BRANCH   2   5
HETATM    5  C   UNL     1       9.652  -0.789   0.581  1.00  0.00     0.156 C 
BRANCH   5   6
HETATM    6  C   UNL     1      11.096  -1.176   0.207  1.00  0.00     0.160 C 
BRANCH   6   7
HETATM    7  O   UNL     1      12.006  -0.604   1.160  1.00  0.00    -0.392 OA
HETATM    8  H   UNL     1      11.928   0.370   1.057  1.00  0.00     0.210 HD
ENDBRANCH   6   7
BRANCH   6   9
HETATM    9  C   UNL     1      11.279  -2.702   0.254  1.00  0.00     0.209 C 
BRANCH   9  10
HETATM   10  O   UNL     1      12.555  -3.027  -0.314  1.00  0.00    -0.349 OA
BRANCH  10  11
HETATM   11  C   UNL     1      13.007  -4.306  -0.152  1.00  0.00     0.069 A 
HETATM   12  C   UNL     1      14.336  -4.506  -0.537  1.00  0.00     0.038 A 
HETATM   13  C   UNL     1      14.929  -5.766  -0.428  1.00  0.00     0.026 A 
HETATM   14  C   UNL     1      14.184  -6.833   0.066  1.00  0.00     0.034 A 
HETATM   15 CL   UNL     1      14.904  -8.390   0.204  1.00  0.00    -0.084 Cl
HETATM   16  C   UNL     1      12.857  -6.647   0.448  1.00  0.00     0.026 A 
HETATM   17  C   UNL     1      12.266  -5.383   0.337  1.00  0.00     0.038 A 
ENDBRANCH  10  11
ENDBRANCH   9  10
ENDBRANCH   6   9
ENDBRANCH   5   6
ENDBRANCH   2   5
BRANCH   1  18
HETATM   18  C   UNL     1       9.122   2.909   0.106  1.00  0.00     0.098 A 
HETATM   19  C   UNL     1       7.757   3.054  -0.068  1.00  0.00     0.167 A 
HETATM   20  N   UNL     1       7.521   4.431  -0.164  1.00  0.00    -0.226 N 
HETATM   21  N   UNL     1       6.736   2.137  -0.116  1.00  0.00    -0.240 NA
HETATM   22  C   UNL     1       6.226   4.921  -0.285  1.00  0.00     0.128 A 
HETATM   23  N   UNL     1       8.668   5.146  -0.103  1.00  0.00    -0.178 NA
HETATM   24  C   UNL     1       5.178   4.083  -0.313  1.00  0.00    -0.027 A 
HETATM   25  C   UNL     1       3.745   4.468  -0.411  1.00  0.00     0.051 C 
HETATM   26  C   UNL     1       5.537   2.634  -0.228  1.00  0.00     0.127 A 
HETATM   27  C   UNL     1       9.619   4.228   0.075  1.00  0.00     0.160 A 
ENDBRANCH   1  18
TORSDOF 7
