REMARK  2 active torsions:
REMARK  status: ('A' for Active; 'I' for Inactive)
REMARK    1  A    between atoms: C_5  and  C_6 
REMARK       I    between atoms: C_6  and  N_7 
REMARK    2  A    between atoms: N_7  and  N_8 
ROOT
HETATM    1  N   UNL     1       6.944   2.622  -0.756  1.00  0.00    -0.282 N 
HETATM    2  C   UNL     1       7.562   3.781  -0.956  1.00  0.00     0.127 C 
HETATM    3  C   UNL     1       7.007   5.015  -0.339  1.00  0.00     0.015 A 
HETATM    4  C   UNL     1       7.391   6.268  -0.860  1.00  0.00    -0.042 A 
HETATM    5  C   UNL     1       6.862   7.453  -0.333  1.00  0.00     0.008 A 
HETATM    6  C   UNL     1       5.979   7.405   0.742  1.00  0.00     0.001 A 
HETATM    7  C   UNL     1       5.622   6.178   1.293  1.00  0.00     0.001 A 
HETATM    8  C   UNL     1       6.132   4.992   0.760  1.00  0.00     0.016 A 
HETATM    9  C   UNL     1       8.355   6.315  -2.018  1.00  0.00     0.069 C 
HETATM   10  C   UNL     1       9.372   5.159  -1.949  1.00  0.00     0.028 C 
HETATM   11  C   UNL     1      10.097   5.029  -3.293  1.00  0.00     0.038 C 
HETATM   12  C   UNL     1      10.401   5.348  -0.828  1.00  0.00     0.038 C 
HETATM   13  N   UNL     1       8.662   3.874  -1.702  1.00  0.00    -0.366 N 
HETATM   14  H   UNL     1       9.023   3.040  -2.132  1.00  0.00     0.162 HD
HETATM   15  H   UNL     1       6.051   2.650  -0.247  1.00  0.00     0.188 HD
ENDROOT
BRANCH   1  16
HETATM   16  N   UNL     1       7.317   1.406  -1.151  1.00  0.00    -0.264 N 
HETATM   17  C   UNL     1       6.442   0.384  -0.809  1.00  0.00     0.270 C 
HETATM   18  O   UNL     1       5.389   0.637  -0.227  1.00  0.00    -0.266 OA
HETATM   19  H   UNL     1       8.161   1.240  -1.684  1.00  0.00     0.190 HD
BRANCH  17  20
HETATM   20  C   UNL     1       6.814  -1.000  -1.197  1.00  0.00     0.033 A 
HETATM   21  C   UNL     1       8.145  -1.405  -1.350  1.00  0.00     0.017 A 
HETATM   22  C   UNL     1       8.435  -2.725  -1.710  1.00  0.00     0.007 A 
HETATM   23  C   UNL     1       7.404  -3.649  -1.922  1.00  0.00    -0.062 A 
HETATM   24  C   UNL     1       7.714  -5.078  -2.266  1.00  0.00     0.048 C 
HETATM   25  C   UNL     1       6.077  -3.244  -1.739  1.00  0.00     0.007 A 
HETATM   26  C   UNL     1       5.782  -1.928  -1.379  1.00  0.00     0.017 A 
ENDBRANCH  17  20
ENDBRANCH   1  16
TORSDOF 2
