REMARK  5 active torsions:
REMARK  status: ('A' for Active; 'I' for Inactive)
REMARK    1  A    between atoms: C_4  and  C_5 
REMARK    2  A    between atoms: C_5  and  O_6 
REMARK    3  A    between atoms: O_6  and  C_7 
REMARK    4  A    between atoms: C_8  and  N_9 
REMARK       I    between atoms: N_9  and  C_10 
REMARK       I    between atoms: C_10  and  N_11 
REMARK    5  A    between atoms: N_11  and  C_12 
ROOT
HETATM    1  C   UNL     1       5.990  -6.722  -0.481  1.00  0.00     0.037 A 
HETATM    2  C   UNL     1       7.244  -7.155  -0.925  1.00  0.00     0.052 A 
HETATM    3  C   UNL     1       7.543  -8.522  -0.984  1.00  0.00     0.046 A 
HETATM    4  C   UNL     1       8.805  -8.955  -1.502  1.00  0.00     0.099 C 
HETATM    5  N   UNL     1       9.826  -9.301  -1.934  1.00  0.00    -0.191 NA
HETATM    6  C   UNL     1       6.600  -9.460  -0.556  1.00  0.00     0.023 A 
HETATM    7  C   UNL     1       5.360  -9.031  -0.084  1.00  0.00     0.004 A 
HETATM    8  C   UNL     1       5.053  -7.667  -0.059  1.00  0.00     0.029 A 
ENDROOT
BRANCH   1   9
HETATM    9  N   UNL     1       5.746  -5.341  -0.492  1.00  0.00    -0.309 N 
HETATM   10  C   UNL     1       4.541  -4.699  -0.477  1.00  0.00     0.326 C 
HETATM   11  N   UNL     1       4.575  -3.337  -0.602  1.00  0.00    -0.291 N 
HETATM   12  O   UNL     1       3.438  -5.242  -0.438  1.00  0.00    -0.247 OA
HETATM   13  H   UNL     1       3.654  -2.968  -0.764  1.00  0.00     0.172 HD
HETATM   14  H   UNL     1       6.535  -4.716  -0.636  1.00  0.00     0.170 HD
BRANCH  11  15
HETATM   15  C   UNL     1       5.662  -2.455  -0.509  1.00  0.00     0.165 A 
HETATM   16  C   UNL     1       5.511  -1.081  -0.751  1.00  0.00     0.115 A 
HETATM   17  C   UNL     1       6.650  -0.271  -0.668  1.00  0.00     0.042 A 
HETATM   18  C   UNL     1       7.880  -0.815  -0.329  1.00  0.00     0.022 A 
HETATM   19  C   UNL     1       7.939  -2.174  -0.106  1.00  0.00     0.119 A 
HETATM   20  N   UNL     1       6.870  -2.996  -0.197  1.00  0.00    -0.240 NA
BRANCH  16  21
HETATM   21  O   UNL     1       4.424  -0.419  -1.242  1.00  0.00    -0.343 OA
BRANCH  21  22
HETATM   22  C   UNL     1       3.156  -0.581  -0.611  1.00  0.00     0.214 C 
BRANCH  22  23
HETATM   23  C   UNL     1       2.128  -0.973  -1.653  1.00  0.00    -0.034 A 
HETATM   24  C   UNL     1       2.484  -1.688  -2.811  1.00  0.00     0.009 A 
HETATM   25  C   UNL     1       1.525  -2.049  -3.757  1.00  0.00     0.001 A 
HETATM   26  C   UNL     1       0.193  -1.699  -3.564  1.00  0.00     0.000 A 
HETATM   27  C   UNL     1      -0.180  -0.995  -2.421  1.00  0.00     0.001 A 
HETATM   28  C   UNL     1       0.779  -0.641  -1.466  1.00  0.00     0.009 A 
ENDBRANCH  22  23
ENDBRANCH  21  22
ENDBRANCH  16  21
ENDBRANCH  11  15
ENDBRANCH   1   9
TORSDOF 5
