REMARK  6 active torsions:
REMARK  status: ('A' for Active; 'I' for Inactive)
REMARK    1  A    between atoms: N_2  and  C_4 
REMARK    2  A    between atoms: N_2  and  C_14 
REMARK    3  A    between atoms: C_5  and  O_6 
REMARK    4  A    between atoms: C_14  and  C_15 
REMARK    5  A    between atoms: C_15  and  O_16 
REMARK    6  A    between atoms: C_15  and  C_17 
ROOT
HETATM    1  C   UNL     1       0.742   0.120   0.110  1.00  0.00     0.270 C 
HETATM    2  N   UNL     1       2.220   0.388   0.202  1.00  0.00    -0.065 N 
HETATM    3  H   UNL     1       2.664  -0.517  -0.056  1.00  0.00     0.280 HD
ENDROOT
BRANCH   2   4
HETATM    4  C   UNL     1       2.813   1.378  -0.831  1.00  0.00     0.225 C 
HETATM    5  C   UNL     1       2.677   0.836  -2.289  1.00  0.00     0.183 C 
HETATM    6  C   UNL     1       1.424   1.523  -2.748  1.00  0.00    -0.021 A 
HETATM    7  C   UNL     1       1.116   2.607  -1.909  1.00  0.00    -0.047 A 
HETATM    8  C   UNL     1       0.632   1.234  -3.848  1.00  0.00     0.010 A 
HETATM    9  C   UNL     1       2.119   2.752  -0.804  1.00  0.00     0.075 C 
HETATM   10  C   UNL     1       0.019   3.416  -2.152  1.00  0.00     0.008 A 
HETATM   11  C   UNL     1      -0.790   3.118  -3.248  1.00  0.00     0.001 A 
HETATM   12  C   UNL     1      -0.486   2.036  -4.089  1.00  0.00     0.001 A 
BRANCH   5  13
HETATM   13  O   UNL     1       2.591  -0.583  -2.280  1.00  0.00    -0.389 OA
HETATM   14  H   UNL     1       2.505  -0.867  -3.211  1.00  0.00     0.210 HD
ENDBRANCH   5  13
ENDBRANCH   2   4
BRANCH   2  15
HETATM   15  C   UNL     1       2.684   0.673   1.625  1.00  0.00     0.271 C 
BRANCH  15  16
HETATM   16  C   UNL     1       2.718  -0.628   2.456  1.00  0.00     0.177 C 
BRANCH  16  17
HETATM   17  O   UNL     1       3.379  -1.632   1.677  1.00  0.00    -0.389 OA
HETATM   18  H   UNL     1       3.622  -2.356   2.288  1.00  0.00     0.210 HD
ENDBRANCH  16  17
BRANCH  16  19
HETATM   19  C   UNL     1       3.391  -0.409   3.792  1.00  0.00    -0.028 A 
HETATM   20  C   UNL     1       2.610  -0.086   4.916  1.00  0.00     0.013 A 
HETATM   21  C   UNL     1       3.214   0.168   6.149  1.00  0.00     0.043 A 
HETATM   22  C   UNL     1       4.596   0.100   6.264  1.00  0.00     0.116 A 
HETATM   23  F   UNL     1       5.173   0.348   7.445  1.00  0.00    -0.206 F 
HETATM   24  C   UNL     1       5.387  -0.217   5.167  1.00  0.00     0.043 A 
HETATM   25  C   UNL     1       4.788  -0.467   3.930  1.00  0.00     0.013 A 
ENDBRANCH  16  19
ENDBRANCH  15  16
ENDBRANCH   2  15
TORSDOF 6
