REMARK  4 active torsions:
REMARK  status: ('A' for Active; 'I' for Inactive)
REMARK    1  A    between atoms: C_5  and  C_6 
REMARK    2  A    between atoms: C_6  and  N_7 
REMARK       I    between atoms: N_7  and  C_8 
REMARK       I    between atoms: C_8  and  N_9 
REMARK    3  A    between atoms: N_9  and  C_10 
REMARK    4  A    between atoms: C_11  and  C_12 
ROOT
HETATM    1  N   UNL     1       7.246  -1.226  -0.241  1.00  0.00    -0.339 N 
HETATM    2  C   UNL     1       8.559  -1.323  -0.608  1.00  0.00     0.321 C 
HETATM    3  N   UNL     1       8.981  -0.384  -1.505  1.00  0.00    -0.305 N 
HETATM    4  O   UNL     1       9.230  -2.234  -0.138  1.00  0.00    -0.247 OA
HETATM    5  H   UNL     1       7.013  -1.916   0.463  1.00  0.00     0.164 HD
HETATM    6  H   UNL     1       8.264  -0.035  -2.116  1.00  0.00     0.171 HD
ENDROOT
BRANCH   1   7
HETATM    7  C   UNL     1       6.449  -0.016  -0.230  1.00  0.00     0.162 C 
BRANCH   7   8
HETATM    8  C   UNL     1       4.987  -0.306  -0.024  1.00  0.00    -0.040 A 
HETATM    9  C   UNL     1       4.265   0.352   0.980  1.00  0.00     0.009 A 
HETATM   10  C   UNL     1       2.895   0.123   1.137  1.00  0.00     0.007 A 
HETATM   11  C   UNL     1       2.221  -0.762   0.290  1.00  0.00    -0.062 A 
HETATM   12  C   UNL     1       0.750  -1.010   0.443  1.00  0.00     0.048 C 
HETATM   13  C   UNL     1       2.940  -1.424  -0.712  1.00  0.00     0.007 A 
HETATM   14  C   UNL     1       4.309  -1.195  -0.870  1.00  0.00     0.009 A 
ENDBRANCH   7   8
ENDBRANCH   1   7
BRANCH   3  15
HETATM   15  C   UNL     1      10.291  -0.149  -1.905  1.00  0.00     0.095 A 
HETATM   16  C   UNL     1      10.668   0.549  -3.044  1.00  0.00     0.112 A 
HETATM   17  O   UNL     1      12.030   0.594  -3.098  1.00  0.00    -0.215 OA
HETATM   18  N   UNL     1      12.571  -0.041  -2.010  1.00  0.00    -0.131 NA
HETATM   19  C   UNL     1      11.536  -0.479  -1.283  1.00  0.00     0.087 A 
HETATM   20  C   UNL     1      11.828  -1.153   0.004  1.00  0.00     0.075 C 
BRANCH  16  21
HETATM   21  C   UNL     1       9.857   1.208  -4.156  1.00  0.00     0.048 A 
HETATM   22  C   UNL     1       8.558   0.604  -4.640  1.00  0.00     0.012 A 
HETATM   23  C   UNL     1       8.535   1.886  -3.874  1.00  0.00     0.012 A 
ENDBRANCH  16  21
ENDBRANCH   3  15
TORSDOF 4
