REMARK  5 active torsions:
REMARK  status: ('A' for Active; 'I' for Inactive)
REMARK    1  A    between atoms: C_8  and  C_9 
REMARK    2  A    between atoms: C_9  and  C_10 
REMARK       I    between atoms: C_10  and  N_11 
REMARK    3  A    between atoms: N_11  and  N_12 
REMARK    4  A    between atoms: C_13  and  C_14 
REMARK    5  A    between atoms: C_15  and  O_16 
ROOT
HETATM    1  C   UNL     1      -1.051  -3.891  -0.624  1.00  0.00     0.241 C 
HETATM    2  N   UNL     1       0.004  -3.537  -1.458  1.00  0.00    -0.247 N 
HETATM    3  O   UNL     1      -1.218  -5.014  -0.149  1.00  0.00    -0.271 OA
HETATM    4  H   UNL     1       0.021  -2.612  -1.877  1.00  0.00     0.192 HD
ENDROOT
BRANCH   1   5
HETATM    5  C   UNL     1      -1.971  -2.728  -0.282  1.00  0.00     0.145 C 
BRANCH   5   6
HETATM    6  C   UNL     1      -2.511  -2.063  -1.510  1.00  0.00    -0.021 A 
HETATM    7  C   UNL     1      -2.041  -0.854  -2.119  1.00  0.00    -0.001 A 
HETATM    8  C   UNL     1      -1.032   0.081  -1.801  1.00  0.00     0.014 A 
HETATM    9  C   UNL     1      -2.786  -0.657  -3.282  1.00  0.00     0.042 A 
HETATM   10  C   UNL     1      -0.801   1.163  -2.659  1.00  0.00     0.001 A 
HETATM   11  C   UNL     1      -1.556   1.324  -3.818  1.00  0.00     0.002 A 
HETATM   12  C   UNL     1      -2.566   0.418  -4.151  1.00  0.00     0.030 A 
HETATM   13  N   UNL     1      -3.701  -1.680  -3.358  1.00  0.00    -0.365 N 
HETATM   14  H   UNL     1      -4.380  -1.791  -4.099  1.00  0.00     0.165 HD
HETATM   15  C   UNL     1      -3.543  -2.533  -2.300  1.00  0.00     0.097 A 
ENDBRANCH   5   6
ENDBRANCH   1   5
BRANCH   2  16
HETATM   16  N   UNL     1       0.834  -4.500  -1.944  1.00  0.00    -0.184 NA
HETATM   17  C   UNL     1       1.763  -4.077  -2.741  1.00  0.00     0.153 C 
BRANCH  17  18
HETATM   18  C   UNL     1       2.686  -5.023  -3.396  1.00  0.00     0.017 A 
HETATM   19  C   UNL     1       2.506  -6.409  -3.320  1.00  0.00     0.077 A 
HETATM   20  C   UNL     1       3.377  -7.267  -3.988  1.00  0.00     0.039 A 
HETATM   21  C   UNL     1       4.440  -6.744  -4.726  1.00  0.00     0.022 A 
HETATM   22  C   UNL     1       4.623  -5.363  -4.791  1.00  0.00     0.012 A 
HETATM   23 BR   UNL     1       6.068  -4.656  -5.787  1.00  0.00    -0.051 Br
HETATM   24  C   UNL     1       3.751  -4.495  -4.134  1.00  0.00     0.034 A 
BRANCH  19  25
HETATM   25  O   UNL     1       1.489  -7.000  -2.622  1.00  0.00    -0.360 OA
HETATM   26  H   UNL     1       0.980  -6.298  -2.154  1.00  0.00     0.217 HD
ENDBRANCH  19  25
ENDBRANCH  17  18
ENDBRANCH   2  16
TORSDOF 5
