REMARK  9 active torsions:
REMARK  status: ('A' for Active; 'I' for Inactive)
REMARK    1  A    between atoms: C_3  and  C_4 
REMARK    2  A    between atoms: C_4  and  C_5 
REMARK    3  A    between atoms: C_5  and  N_6 
REMARK       I    between atoms: N_6  and  C_7 
REMARK    4  A    between atoms: C_7  and  C_8 
REMARK    5  A    between atoms: C_8  and  C_9 
REMARK    6  A    between atoms: C_9  and  C_10 
REMARK    7  A    between atoms: C_9  and  C_26 
REMARK    8  A    between atoms: C_14  and  C_15 
REMARK    9  A    between atoms: C_28  and  N_29 
ROOT
HETATM    1  C   UNL     1      -1.913   4.912   0.349  1.00  0.00     0.062 C 
ENDROOT
BRANCH   1   2
HETATM    2  C   UNL     1      -1.269   6.151  -0.294  1.00  0.00     0.116 C 
BRANCH   2   3
HETATM    3  C   UNL     1      -1.439   7.470   0.438  1.00  0.00     0.218 C 
HETATM    4  N   UNL     1      -0.593   7.669   1.505  1.00  0.00    -0.361 N 
HETATM    5  H   UNL     1      -0.060   6.884   1.863  1.00  0.00     0.162 HD
HETATM    6  O   UNL     1      -2.246   8.318   0.065  1.00  0.00    -0.274 OA
BRANCH   4   7
HETATM    7  C   UNL     1      -0.675   8.888   2.289  1.00  0.00     0.128 C 
BRANCH   7   8
HETATM    8  C   UNL     1       0.380   8.954   3.387  1.00  0.00     0.079 C 
BRANCH   8   9
HETATM    9  C   UNL     1       0.304  10.270   4.114  1.00  0.00     0.035 A 
HETATM   10  C   UNL     1      -0.550  10.437   5.202  1.00  0.00     0.027 A 
HETATM   11  C   UNL     1      -0.624  11.686   5.812  1.00  0.00     0.003 A 
HETATM   12  C   UNL     1       0.147  12.732   5.321  1.00  0.00     0.019 A 
HETATM   13  C   UNL     1       0.967  12.483   4.235  1.00  0.00     0.117 A 
HETATM   14  N   UNL     1       1.061  11.281   3.625  1.00  0.00    -0.266 NA
ENDBRANCH   8   9
ENDBRANCH   7   8
ENDBRANCH   4   7
ENDBRANCH   2   3
ENDBRANCH   1   2
BRANCH   1  15
HETATM   15  C   UNL     1      -1.429   4.660   1.764  1.00  0.00    -0.021 A 
HETATM   16  C   UNL     1      -0.166   4.065   2.107  1.00  0.00    -0.001 A 
HETATM   17  C   UNL     1      -0.067   4.041   3.496  1.00  0.00     0.043 A 
HETATM   18  C   UNL     1       0.915   3.568   1.354  1.00  0.00     0.015 A 
HETATM   19  C   UNL     1       1.059   3.542   4.170  1.00  0.00     0.044 A 
HETATM   20  N   UNL     1      -1.230   4.580   3.992  1.00  0.00    -0.365 N 
HETATM   21  C   UNL     1       2.147   3.054   3.417  1.00  0.00    -0.005 A 
HETATM   22  C   UNL     1       2.051   3.081   2.016  1.00  0.00     0.015 A 
HETATM   23  H   UNL     1      -1.445   4.677   4.975  1.00  0.00     0.165 HD
HETATM   24  C   UNL     1      -2.037   4.989   2.965  1.00  0.00     0.097 A 
BRANCH  21  25
HETATM   25  C   UNL     1       3.373   2.542   4.065  1.00  0.00     0.066 A 
HETATM   26  N   UNL     1       4.538   2.833   3.430  1.00  0.00    -0.260 NA
HETATM   27  C   UNL     1       5.689   2.394   3.984  1.00  0.00     0.117 A 
HETATM   28  C   UNL     1       5.749   1.660   5.154  1.00  0.00     0.019 A 
HETATM   29  C   UNL     1       4.555   1.357   5.795  1.00  0.00     0.004 A 
HETATM   30  C   UNL     1       3.353   1.801   5.247  1.00  0.00     0.032 A 
ENDBRANCH  21  25
ENDBRANCH   1  15
BRANCH   1  31
HETATM   31  C   UNL     1      -3.435   4.761   0.332  1.00  0.00    -0.047 A 
HETATM   32  C   UNL     1      -4.015   3.529   0.707  1.00  0.00     0.043 A 
HETATM   33  C   UNL     1      -5.407   3.351   0.684  1.00  0.00     0.103 A 
HETATM   34  C   UNL     1      -6.250   4.385   0.268  1.00  0.00     0.036 A 
HETATM   35  C   UNL     1      -5.690   5.595  -0.130  1.00  0.00     0.003 A 
HETATM   36  C   UNL     1      -4.302   5.777  -0.102  1.00  0.00     0.008 A 
BRANCH  33  37
HETATM   37  N   UNL     1      -5.986   2.069   1.103  1.00  0.00    -0.116 N 
HETATM   38  O   UNL     1      -5.209   1.172   1.462  1.00  0.00    -0.532 OA
HETATM   39  O   UNL     1      -7.221   1.957   1.077  1.00  0.00    -0.532 OA
ENDBRANCH  33  37
ENDBRANCH   1  31
TORSDOF 9
