REMARK  4 active torsions:
REMARK  status: ('A' for Active; 'I' for Inactive)
REMARK    1  A    between atoms: O_2  and  C_3 
REMARK    2  A    between atoms: C_4  and  C_5 
REMARK    3  A    between atoms: C_9  and  N_10 
REMARK    4  A    between atoms: C_13  and  C_14 
ROOT
HETATM    1  C   UNL     1       1.571   2.474   0.931  1.00  0.00     0.167 C 
HETATM    2  N   UNL     1       1.201   3.861   0.656  1.00  0.00    -0.074 N 
HETATM    3  C   UNL     1      -0.087   4.328   0.617  1.00  0.00     0.736 A 
HETATM    4  N   UNL     1      -0.064   5.611   0.365  1.00  0.00     0.131 NA
HETATM    5  C   UNL     1       1.264   5.870   0.199  1.00  0.00     0.753 A 
HETATM    6  N   UNL     1       2.084   4.835   0.371  1.00  0.00     0.037 NA
HETATM    7  N   UNL     1      -1.141   3.514   0.813  1.00  0.00    -0.214 N 
HETATM    8  C   UNL     1      -0.961   2.131   1.235  1.00  0.00     0.135 C 
HETATM    9  C   UNL     1       0.348   1.577   0.629  1.00  0.00     0.063 C 
HETATM   10  H   UNL     1      -2.066   3.920   0.910  1.00  0.00     0.178 HD
ENDROOT
BRANCH   1  11
HETATM   11  C   UNL     1       2.177   2.256   2.322  1.00  0.00     0.001 A 
HETATM   12  C   UNL     1       2.781   1.017   2.635  1.00  0.00     0.076 A 
HETATM   13  C   UNL     1       3.323   0.798   3.909  1.00  0.00     0.037 A 
HETATM   14  C   UNL     1       3.267   1.794   4.883  1.00  0.00     0.003 A 
HETATM   15  C   UNL     1       2.684   3.019   4.588  1.00  0.00     0.001 A 
HETATM   16  C   UNL     1       2.150   3.250   3.320  1.00  0.00     0.012 A 
BRANCH  12  17
HETATM   17  O   UNL     1       2.817   0.090   1.623  1.00  0.00    -0.355 OA
HETATM   18  C   UNL     1       3.114  -1.253   1.987  1.00  0.00     0.210 C 
ENDBRANCH  12  17
ENDBRANCH   1  11
BRANCH   8  19
HETATM   19  C   UNL     1      -1.090   1.941   2.742  1.00  0.00    -0.035 A 
HETATM   20  C   UNL     1      -1.296   3.008   3.633  1.00  0.00     0.010 A 
HETATM   21  C   UNL     1      -1.375   2.792   5.012  1.00  0.00     0.019 A 
HETATM   22  C   UNL     1      -1.259   1.501   5.519  1.00  0.00     0.011 A 
HETATM   23 BR   UNL     1      -1.340   1.212   7.384  1.00  0.00    -0.051 Br
HETATM   24  C   UNL     1      -1.082   0.423   4.658  1.00  0.00     0.019 A 
HETATM   25  C   UNL     1      -1.007   0.642   3.280  1.00  0.00     0.010 A 
ENDBRANCH   8  19
BRANCH   5  26
HETATM   26  N   UNL     1       1.639   7.114  -0.080  1.00  0.00    -0.229 N 
HETATM   27  H   UNL     1       0.968   7.846   0.113  1.00  0.00     0.174 HD
HETATM   28  H   UNL     1       2.603   7.353   0.107  1.00  0.00     0.174 HD
ENDBRANCH   5  26
TORSDOF 4
