REMARK  6 active torsions:
REMARK  status: ('A' for Active; 'I' for Inactive)
REMARK    1  A    between atoms: C_2  and  C_3 
REMARK       I    between atoms: C_2  and  N_9 
REMARK    2  A    between atoms: C_3  and  N_4 
REMARK    3  A    between atoms: N_9  and  C_10 
REMARK    4  A    between atoms: C_15  and  C_16 
REMARK    5  A    between atoms: C_18  and  N_19 
REMARK    6  A    between atoms: N_19  and  C_20 
ROOT
HETATM    1  C   UNL     1       4.702  -0.306  -1.708  1.00  0.00     0.164 A 
HETATM    2  N   UNL     1       5.383  -0.479  -2.848  1.00  0.00    -0.210 NA
HETATM    3  C   UNL     1       4.889  -1.327  -3.764  1.00  0.00     0.143 A 
HETATM    4  C   UNL     1       3.705  -2.047  -3.540  1.00  0.00     0.039 A 
HETATM    5  C   UNL     1       3.121  -2.962  -4.454  1.00  0.00     0.018 A 
HETATM    6  C   UNL     1       1.940  -3.628  -4.139  1.00  0.00     0.001 A 
HETATM    7  C   UNL     1       1.327  -3.385  -2.917  1.00  0.00     0.002 A 
HETATM    8  C   UNL     1       1.896  -2.474  -2.022  1.00  0.00     0.032 A 
HETATM    9  C   UNL     1       3.074  -1.797  -2.313  1.00  0.00     0.073 A 
HETATM   10  N   UNL     1       3.550  -0.931  -1.412  1.00  0.00    -0.228 NA
ENDROOT
BRANCH   1  11
HETATM   11  C   UNL     1       5.263   0.659  -0.742  1.00  0.00     0.039 A 
HETATM   12  C   UNL     1       4.470   1.467   0.113  1.00  0.00     0.049 A 
HETATM   13  C   UNL     1       5.094   2.410   0.946  1.00  0.00     0.030 A 
HETATM   14  C   UNL     1       6.482   2.558   0.961  1.00  0.00     0.002 A 
HETATM   15  C   UNL     1       7.272   1.770   0.138  1.00  0.00     0.001 A 
HETATM   16  C   UNL     1       6.667   0.838  -0.703  1.00  0.00     0.018 A 
BRANCH  12  17
HETATM   17  N   UNL     1       3.065   1.299   0.122  1.00  0.00    -0.325 N 
HETATM   18  C   UNL     1       2.107   2.106   0.706  1.00  0.00     0.250 C 
HETATM   19  O   UNL     1       2.295   3.198   1.237  1.00  0.00    -0.271 OA
HETATM   20  H   UNL     1       2.713   0.456  -0.335  1.00  0.00     0.169 HD
BRANCH  18  21
HETATM   21  C   UNL     1       0.690   1.533   0.582  1.00  0.00     0.375 C 
BRANCH  21  22
HETATM   22  N   UNL     1       0.626   0.136   1.059  1.00  0.00     0.097 N 
HETATM   23  C   UNL     1       0.982   0.020   2.479  1.00  0.00     0.273 C 
HETATM   24  C   UNL     1       0.480  -1.370   2.821  1.00  0.00     0.032 C 
HETATM   25  C   UNL     1      -0.781  -1.531   1.982  1.00  0.00     0.032 C 
HETATM   26  C   UNL     1      -0.740  -0.392   0.969  1.00  0.00     0.273 C 
ENDBRANCH  21  22
ENDBRANCH  18  21
ENDBRANCH  12  17
ENDBRANCH   1  11
BRANCH   3  27
HETATM   27  N   UNL     1       5.601  -1.490  -4.982  1.00  0.00    -0.340 N 
HETATM   28  H   UNL     1       5.856  -2.465  -5.091  1.00  0.00     0.167 HD
BRANCH  27  29
HETATM   29  C   UNL     1       6.592  -0.612  -5.490  1.00  0.00     0.034 A 
HETATM   30  C   UNL     1       6.492   0.779  -5.327  1.00  0.00     0.032 A 
HETATM   31  C   UNL     1       7.444   1.668  -5.842  1.00  0.00     0.034 A 
HETATM   32  C   UNL     1       8.504   1.109  -6.554  1.00  0.00     0.062 A 
HETATM   33  N   UNL     1       9.587   1.677  -7.171  1.00  0.00    -0.278 N 
HETATM   34  C   UNL     1       8.629  -0.257  -6.771  1.00  0.00     0.013 A 
HETATM   35  H   UNL     1       9.826   2.661  -7.215  1.00  0.00     0.189 HD
HETATM   36  N   UNL     1      10.403   0.792  -7.772  1.00  0.00    -0.186 NA
HETATM   37  C   UNL     1       9.816  -0.383  -7.528  1.00  0.00     0.152 A 
HETATM   38  C   UNL     1       7.656  -1.132  -6.250  1.00  0.00     0.044 A 
ENDBRANCH  27  29
ENDBRANCH   3  27
TORSDOF 6
