REMARK  6 active torsions:
REMARK  status: ('A' for Active; 'I' for Inactive)
REMARK    1  A    between atoms: C_2  and  C_3 
REMARK    2  A    between atoms: C_13  and  C_14 
REMARK       I    between atoms: C_14  and  N_15 
REMARK    3  A    between atoms: N_15  and  C_16 
REMARK    4  A    between atoms: C_16  and  C_17 
REMARK    5  A    between atoms: C_17  and  C_18 
REMARK    6  A    between atoms: C_18  and  C_19 
ROOT
HETATM    1  C   UNL     1       1.282  -2.049  -3.621  1.00  0.00     0.251 C 
HETATM    2  N   UNL     1       0.223  -2.434  -4.417  1.00  0.00    -0.357 N 
HETATM    3  O   UNL     1       2.330  -2.678  -3.535  1.00  0.00    -0.268 OA
HETATM    4  H   UNL     1      -0.519  -1.777  -4.609  1.00  0.00     0.162 HD
ENDROOT
BRANCH   1   5
HETATM    5  C   UNL     1       1.125  -0.775  -2.862  1.00  0.00     0.032 A 
HETATM    6  C   UNL     1      -0.123  -0.252  -2.514  1.00  0.00     0.017 A 
HETATM    7  C   UNL     1      -0.207   0.947  -1.794  1.00  0.00     0.008 A 
HETATM    8  C   UNL     1       0.951   1.637  -1.402  1.00  0.00    -0.052 A 
HETATM    9  C   UNL     1       2.199   1.096  -1.743  1.00  0.00     0.008 A 
HETATM   10  C   UNL     1       2.284  -0.101  -2.460  1.00  0.00     0.017 A 
BRANCH   8  11
HETATM   11  C   UNL     1       0.825   2.949  -0.650  1.00  0.00     0.044 C 
HETATM   12  C   UNL     1       1.188   4.128  -1.565  1.00  0.00     0.241 C 
HETATM   13  N   UNL     1       1.049   5.418  -0.813  1.00  0.00    -0.074 N 
HETATM   14  H   UNL     1       0.061   5.572  -0.568  1.00  0.00     0.277 HD
HETATM   15  H   UNL     1       1.301   6.196  -1.438  1.00  0.00     0.277 HD
HETATM   16  C   UNL     1       1.888   5.493   0.420  1.00  0.00     0.232 C 
HETATM   17  C   UNL     1       1.523   4.344   1.347  1.00  0.00     0.028 C 
HETATM   18  C   UNL     1       1.654   2.990   0.648  1.00  0.00     0.013 C 
ENDBRANCH   8  11
ENDBRANCH   1   5
BRANCH   2  19
HETATM   19  C   UNL     1       0.301  -3.607  -5.268  1.00  0.00     0.123 C 
BRANCH  19  20
HETATM   20  C   UNL     1       0.277  -4.927  -4.501  1.00  0.00     0.026 C 
BRANCH  20  21
HETATM   21  C   UNL     1      -0.985  -5.087  -3.654  1.00  0.00     0.061 C 
BRANCH  21  22
HETATM   22  C   UNL     1      -1.056  -6.430  -3.002  1.00  0.00     0.044 A 
HETATM   23  N   UNL     1      -1.891  -7.390  -3.551  1.00  0.00    -0.229 NA
HETATM   24  C   UNL     1      -1.810  -8.506  -2.870  1.00  0.00     0.164 A 
HETATM   25  N   UNL     1      -2.507  -9.608  -3.183  1.00  0.00    -0.378 N 
HETATM   26  S   UNL     1      -0.759  -8.466  -1.514  1.00  0.00    -0.062 SA
HETATM   27  H   UNL     1      -3.287  -9.474  -3.814  1.00  0.00     0.158 HD
HETATM   28  H   UNL     1      -2.660 -10.300  -2.460  1.00  0.00     0.158 HD
HETATM   29  C   UNL     1      -0.363  -6.841  -1.880  1.00  0.00     0.080 A 
ENDBRANCH  21  22
ENDBRANCH  20  21
ENDBRANCH  19  20
ENDBRANCH   2  19
TORSDOF 6
