REMARK  6 active torsions:
REMARK  status: ('A' for Active; 'I' for Inactive)
REMARK    1  A    between atoms: O_2  and  C_3 
REMARK    2  A    between atoms: C_3  and  C_4 
REMARK    3  A    between atoms: C_4  and  N_5 
REMARK       I    between atoms: N_5  and  C_6 
REMARK    4  A    between atoms: C_6  and  C_7 
REMARK    5  A    between atoms: C_12  and  C_13 
REMARK    6  A    between atoms: C_20  and  C_21 
ROOT
HETATM    1  C   UNL     1       7.361  -1.598  -0.490  1.00  0.00     0.165 A 
HETATM    2  N   UNL     1       6.914  -0.332  -0.695  1.00  0.00    -0.163 NA
HETATM    3  N   UNL     1       7.887   0.440  -0.184  1.00  0.00    -0.238 N 
HETATM    4  C   UNL     1       8.965  -0.254   0.292  1.00  0.00     0.141 A 
HETATM    5  N   UNL     1      10.052   0.390   0.783  1.00  0.00    -0.365 N 
HETATM    6  C   UNL     1      10.019   1.829   1.032  1.00  0.00     0.118 C 
HETATM    7  C   UNL     1       9.182   2.518  -0.061  1.00  0.00     0.066 C 
HETATM    8  C   UNL     1       7.781   1.888  -0.172  1.00  0.00     0.221 C 
HETATM    9  C   UNL     1       8.644  -1.576   0.116  1.00  0.00     0.092 A 
HETATM   10 BR   UNL     1       9.707  -3.047   0.583  1.00  0.00    -0.044 Br
HETATM   11  H   UNL     1      10.757  -0.128   1.309  1.00  0.00     0.162 HD
ENDROOT
BRANCH   1  12
HETATM   12  C   UNL     1       6.541  -2.756  -0.887  1.00  0.00     0.273 C 
HETATM   13  N   UNL     1       5.295  -2.400  -1.357  1.00  0.00    -0.353 N 
HETATM   14  H   UNL     1       5.155  -1.405  -1.523  1.00  0.00     0.162 HD
HETATM   15  O   UNL     1       6.917  -3.921  -0.812  1.00  0.00    -0.266 OA
BRANCH  13  16
HETATM   16  C   UNL     1       4.391  -3.343  -1.980  1.00  0.00     0.149 C 
BRANCH  16  17
HETATM   17  C   UNL     1       2.942  -2.870  -1.890  1.00  0.00     0.186 C 
BRANCH  17  18
HETATM   18  O   UNL     1       2.797  -1.656  -2.635  1.00  0.00    -0.394 OA
HETATM   19  C   UNL     1       1.466  -1.159  -2.566  1.00  0.00     0.201 C 
ENDBRANCH  17  18
ENDBRANCH  16  17
ENDBRANCH  13  16
ENDBRANCH   1  12
BRANCH   8  20
HETATM   20  C   UNL     1       6.869   2.326   0.953  1.00  0.00     0.409 C 
HETATM   21  F   UNL     1       7.290   1.913   2.168  1.00  0.00    -0.169 F 
HETATM   22  F   UNL     1       6.816   3.683   1.003  1.00  0.00    -0.169 F 
HETATM   23  F   UNL     1       5.597   1.900   0.793  1.00  0.00    -0.169 F 
ENDBRANCH   8  20
BRANCH   6  24
HETATM   24  C   UNL     1      11.426   2.396   1.072  1.00  0.00    -0.035 A 
HETATM   25  C   UNL     1      12.405   2.008   0.142  1.00  0.00     0.009 A 
HETATM   26  C   UNL     1      13.686   2.561   0.184  1.00  0.00     0.001 A 
HETATM   27  C   UNL     1      14.004   3.514   1.150  1.00  0.00     0.000 A 
HETATM   28  C   UNL     1      13.041   3.916   2.073  1.00  0.00     0.001 A 
HETATM   29  C   UNL     1      11.760   3.362   2.034  1.00  0.00     0.009 A 
ENDBRANCH   6  24
TORSDOF 6
