REMARK  7 active torsions:
REMARK  status: ('A' for Active; 'I' for Inactive)
REMARK    1  A    between atoms: C_2  and  C_3 
REMARK    2  A    between atoms: C_3  and  O_4 
REMARK    3  A    between atoms: O_4  and  C_5 
REMARK    4  A    between atoms: C_9  and  C_10 
REMARK    5  A    between atoms: C_10  and  N_11 
REMARK    6  A    between atoms: N_11  and  C_12 
REMARK    7  A    between atoms: C_19  and  C_20 
REMARK       I    between atoms: C_20  and  N_21 
ROOT
HETATM    1  C   UNL     1       8.385   7.819  -0.296  1.00  0.00     0.009 A 
HETATM    2  C   UNL     1       7.693   9.013  -0.018  1.00  0.00     0.039 A 
HETATM    3  C   UNL     1       8.324  10.264  -0.186  1.00  0.00     0.030 A 
HETATM    4  C   UNL     1       9.649  10.291  -0.595  1.00  0.00     0.063 A 
HETATM    5  N   UNL     1       9.983  11.614  -0.659  1.00  0.00    -0.277 N 
HETATM    6  H   UNL     1      10.880  12.009  -0.919  1.00  0.00     0.189 HD
HETATM    7  N   UNL     1       8.988  12.456  -0.330  1.00  0.00    -0.168 NA
HETATM    8  C   UNL     1       7.956  11.633  -0.033  1.00  0.00     0.156 A 
HETATM    9  C   UNL     1      10.389   9.134  -0.844  1.00  0.00     0.034 A 
HETATM   10  C   UNL     1       9.732   7.906  -0.672  1.00  0.00     0.026 A 
ENDROOT
BRANCH   1  11
HETATM   11  N   UNL     1       7.733   6.604  -0.045  1.00  0.00    -0.289 NA
HETATM   12  H   UNL     1       6.720   6.702  -0.099  1.00  0.00     0.128 HD
BRANCH  11  13
HETATM   13  C   UNL     1       8.204   5.393  -0.699  1.00  0.00     0.131 C 
BRANCH  13  14
HETATM   14  C   UNL     1       7.310   4.233  -0.323  1.00  0.00    -0.043 A 
HETATM   15  C   UNL     1       6.497   3.611  -1.279  1.00  0.00     0.035 A 
HETATM   16  C   UNL     1       5.700   2.517  -0.926  1.00  0.00     0.068 A 
HETATM   17  C   UNL     1       5.707   2.019   0.385  1.00  0.00     0.090 A 
HETATM   18 CL   UNL     1       4.737   1.784  -2.162  1.00  0.00    -0.081 Cl
HETATM   19  C   UNL     1       6.488   2.664   1.349  1.00  0.00     0.039 A 
HETATM   20  C   UNL     1       7.285   3.758   0.995  1.00  0.00     0.011 A 
BRANCH  17  21
HETATM   21  O   UNL     1       4.908   0.939   0.658  1.00  0.00    -0.346 OA
BRANCH  21  22
HETATM   22  C   UNL     1       5.366   0.071   1.694  1.00  0.00     0.202 C 
BRANCH  22  23
HETATM   23  C   UNL     1       4.658  -1.240   1.525  1.00  0.00    -0.011 C 
HETATM   24  C   UNL     1       3.959  -1.863   2.483  1.00  0.00     0.009 C 
ENDBRANCH  22  23
ENDBRANCH  21  22
ENDBRANCH  17  21
ENDBRANCH  13  14
ENDBRANCH  11  13
ENDBRANCH   1  11
BRANCH   8  25
HETATM   25  C   UNL     1       6.651  12.164   0.384  1.00  0.00     0.270 C 
HETATM   26  N   UNL     1       6.599  13.530   0.448  1.00  0.00    -0.365 N 
HETATM   27  H   UNL     1       7.430  14.058   0.211  1.00  0.00     0.159 HD
HETATM   28  H   UNL     1       5.743  13.987   0.720  1.00  0.00     0.159 HD
HETATM   29  O   UNL     1       5.672  11.476   0.654  1.00  0.00    -0.266 OA
ENDBRANCH   8  25
TORSDOF 7
