REMARK  3 active torsions:
REMARK  status: ('A' for Active; 'I' for Inactive)
REMARK    1  A    between atoms: O_2  and  C_3 
REMARK    2  A    between atoms: C_4  and  N_5 
REMARK       I    between atoms: N_5  and  C_6 
REMARK       I    between atoms: C_6  and  N_7 
REMARK    3  A    between atoms: C_10  and  C_11 
ROOT
HETATM    1  N   UNL     1       7.048   1.098  -1.106  1.00  0.00    -0.306 N 
HETATM    2  C   UNL     1       6.410   0.054  -1.729  1.00  0.00     0.323 C 
HETATM    3  N   UNL     1       7.131  -1.144  -1.774  1.00  0.00    -0.330 N 
HETATM    4  C   UNL     1       6.320  -2.325  -2.057  1.00  0.00     0.155 C 
HETATM    5  C   UNL     1       7.085  -3.610  -2.067  1.00  0.00     0.001 C 
HETATM    6  C   UNL     1       8.422  -3.719  -1.992  1.00  0.00    -0.046 C 
HETATM    7  C   UNL     1       9.251  -2.473  -1.882  1.00  0.00     0.059 C 
HETATM    8  C   UNL     1       8.470  -1.342  -1.211  1.00  0.00     0.132 C 
HETATM    9  O   UNL     1       5.275   0.122  -2.198  1.00  0.00    -0.247 OA
HETATM   10  H   UNL     1       7.859   0.892  -0.543  1.00  0.00     0.171 HD
ENDROOT
BRANCH   1  11
HETATM   11  C   UNL     1       6.587   2.424  -0.927  1.00  0.00     0.072 A 
HETATM   12  C   UNL     1       7.338   3.243  -0.050  1.00  0.00     0.095 A 
HETATM   13  C   UNL     1       6.941   4.565   0.182  1.00  0.00     0.042 A 
HETATM   14  C   UNL     1       5.805   5.071  -0.450  1.00  0.00     0.045 A 
HETATM   15  C   UNL     1       5.078   4.259  -1.312  1.00  0.00     0.118 A 
HETATM   16  C   UNL     1       5.458   2.945  -1.560  1.00  0.00     0.074 A 
HETATM   17  F   UNL     1       3.991   4.758  -1.917  1.00  0.00    -0.206 F 
BRANCH  12  18
HETATM   18  O   UNL     1       8.436   2.641   0.522  1.00  0.00    -0.354 OA
HETATM   19  C   UNL     1       9.146   3.390   1.502  1.00  0.00     0.210 C 
ENDBRANCH  12  18
ENDBRANCH   1  11
BRANCH   6  20
HETATM   20  C   UNL     1       9.129  -4.966  -1.936  1.00  0.00    -0.002 A 
HETATM   21  C   UNL     1      10.383  -5.331  -2.527  1.00  0.00     0.003 A 
HETATM   22  C   UNL     1      10.647  -6.650  -2.145  1.00  0.00     0.043 A 
HETATM   23  C   UNL     1      11.327  -4.684  -3.355  1.00  0.00     0.014 A 
HETATM   24  C   UNL     1      11.803  -7.341  -2.531  1.00  0.00     0.030 A 
HETATM   25  N   UNL     1       9.590  -7.071  -1.373  1.00  0.00    -0.364 N 
HETATM   26  C   UNL     1      12.723  -6.668  -3.339  1.00  0.00     0.002 A 
HETATM   27  C   UNL     1      12.490  -5.359  -3.749  1.00  0.00     0.001 A 
HETATM   28  H   UNL     1       9.511  -7.991  -0.964  1.00  0.00     0.165 HD
HETATM   29  C   UNL     1       8.671  -6.067  -1.240  1.00  0.00     0.101 A 
ENDBRANCH   6  20
TORSDOF 3
