REMARK  7 active torsions:
REMARK  status: ('A' for Active; 'I' for Inactive)
REMARK    1  A    between atoms: C_8  and  C_9 
REMARK    2  A    between atoms: C_9  and  C_10 
REMARK       I    between atoms: C_10  and  N_11 
REMARK    3  A    between atoms: N_11  and  C_12 
REMARK    4  A    between atoms: N_11  and  C_27 
REMARK    5  A    between atoms: C_12  and  C_13 
REMARK    6  A    between atoms: C_12  and  C_22 
REMARK       I    between atoms: C_13  and  N_14 
REMARK    7  A    between atoms: N_14  and  C_15 
ROOT
HETATM    1  C   UNL     1      -1.148  -3.390   0.596  1.00  0.00     0.229 C 
HETATM    2  N   UNL     1       0.216  -3.165   0.379  1.00  0.00    -0.299 N 
HETATM    3  O   UNL     1      -1.582  -4.544   0.677  1.00  0.00    -0.273 OA
ENDROOT
BRANCH   2   4
HETATM    4  C   UNL     1       1.123  -4.262  -0.075  1.00  0.00     0.225 C 
BRANCH   4   5
HETATM    5  C   UNL     1       1.348  -5.513   0.827  1.00  0.00     0.246 C 
HETATM    6  N   UNL     1       0.505  -5.676   1.908  1.00  0.00    -0.354 N 
HETATM    7  H   UNL     1      -0.450  -5.355   1.755  1.00  0.00     0.162 HD
HETATM    8  O   UNL     1       2.269  -6.305   0.607  1.00  0.00    -0.271 OA
BRANCH   6   9
HETATM    9  C   UNL     1       0.711  -6.737   2.887  1.00  0.00     0.084 C 
HETATM   10  C   UNL     1       0.083  -6.355   4.234  1.00  0.00     0.025 C 
HETATM   11  C   UNL     1      -1.438  -6.492   4.247  1.00  0.00     0.002 C 
HETATM   12  C   UNL     1      -1.877  -7.881   3.798  1.00  0.00     0.000 C 
HETATM   13  C   UNL     1      -1.314  -8.222   2.422  1.00  0.00     0.002 C 
HETATM   14  C   UNL     1       0.208  -8.100   2.391  1.00  0.00     0.025 C 
ENDBRANCH   6   9
ENDBRANCH   4   5
BRANCH   4  15
HETATM   15  C   UNL     1       0.880  -4.652  -1.519  1.00  0.00     0.015 A 
HETATM   16  S   UNL     1       2.168  -4.471  -2.655  1.00  0.00    -0.104 SA
HETATM   17  C   UNL     1       1.222  -5.066  -3.941  1.00  0.00     0.050 A 
HETATM   18  C   UNL     1      -0.049  -5.398  -3.534  1.00  0.00     0.008 A 
HETATM   19  C   UNL     1      -0.242  -5.171  -2.139  1.00  0.00     0.017 A 
ENDBRANCH   4  15
ENDBRANCH   2   4
BRANCH   2  20
HETATM   20  C   UNL     1       0.871  -1.959   0.773  1.00  0.00     0.041 A 
HETATM   21  C   UNL     1       1.721  -1.298  -0.125  1.00  0.00     0.069 A 
HETATM   22  C   UNL     1       2.346  -0.146   0.302  1.00  0.00     0.107 A 
HETATM   23  C   UNL     1       2.165   0.351   1.571  1.00  0.00     0.105 A 
HETATM   24  O   UNL     1       3.187   0.622  -0.441  1.00  0.00    -0.323 OA
HETATM   25  O   UNL     1       2.870   1.492   1.786  1.00  0.00    -0.323 OA
HETATM   26  C   UNL     1       1.350  -0.279   2.486  1.00  0.00     0.042 A 
HETATM   27  C   UNL     1       3.522   1.655   0.509  1.00  0.00     0.352 A 
HETATM   28  C   UNL     1       0.701  -1.450   2.082  1.00  0.00     0.032 A 
ENDBRANCH   2  20
BRANCH   1  29
HETATM   29  C   UNL     1      -2.054  -2.185   0.849  1.00  0.00     0.144 C 
BRANCH  29  30
HETATM   30  C   UNL     1      -3.318  -1.999   0.048  1.00  0.00    -0.021 A 
HETATM   31  C   UNL     1      -4.190  -2.908  -0.652  1.00  0.00    -0.001 A 
HETATM   32  C   UNL     1      -4.217  -4.296  -0.906  1.00  0.00     0.014 A 
HETATM   33  C   UNL     1      -5.254  -2.154  -1.165  1.00  0.00     0.042 A 
HETATM   34  C   UNL     1      -5.262  -4.865  -1.649  1.00  0.00     0.001 A 
HETATM   35  C   UNL     1      -6.296  -4.077  -2.139  1.00  0.00     0.002 A 
HETATM   36  C   UNL     1      -6.312  -2.705  -1.902  1.00  0.00     0.030 A 
HETATM   37  N   UNL     1      -5.049  -0.848  -0.799  1.00  0.00    -0.365 N 
HETATM   38  H   UNL     1      -5.672  -0.085  -1.025  1.00  0.00     0.165 HD
HETATM   39  C   UNL     1      -3.901  -0.743  -0.074  1.00  0.00     0.097 A 
ENDBRANCH  29  30
ENDBRANCH   1  29
TORSDOF 7
