REMARK  3 active torsions:
REMARK  status: ('A' for Active; 'I' for Inactive)
REMARK    1  A    between atoms: C_4  and  C_5 
REMARK    2  A    between atoms: C_5  and  C_6 
REMARK    3  A    between atoms: C_6  and  N_7 
ROOT
HETATM    1  N   UNL     1       4.776  -1.829  -0.159  1.00  0.00    -0.071 N 
HETATM    2  H   UNL     1       5.022  -1.075  -0.817  1.00  0.00     0.279 HD
HETATM    3  C   UNL     1       4.615  -3.102  -0.962  1.00  0.00     0.237 C 
HETATM    4  C   UNL     1       5.916  -3.452  -1.648  1.00  0.00     0.065 C 
HETATM    5  C   UNL     1       7.071  -3.666  -0.646  1.00  0.00     0.076 C 
HETATM    6  N   UNL     1       8.321  -3.721  -1.426  1.00  0.00    -0.373 N 
HETATM    7  C   UNL     1       8.613  -4.938  -2.066  1.00  0.00     0.056 A 
HETATM    8  C   UNL     1       8.159  -6.168  -1.561  1.00  0.00     0.065 A 
HETATM    9  N   UNL     1       7.357  -6.127  -0.399  1.00  0.00    -0.321 N 
HETATM   10  C   UNL     1       6.859  -4.946   0.136  1.00  0.00     0.045 A 
HETATM   11  C   UNL     1       6.935  -7.176   0.382  1.00  0.00     0.097 A 
HETATM   12  C   UNL     1       6.270  -6.672   1.475  1.00  0.00     0.020 A 
HETATM   13  C   UNL     1       6.239  -5.267   1.333  1.00  0.00     0.029 A 
HETATM   14  C   UNL     1       9.491  -4.954  -3.155  1.00  0.00     0.031 A 
HETATM   15  C   UNL     1       9.843  -6.157  -3.773  1.00  0.00     0.002 A 
HETATM   16  C   UNL     1       9.348  -7.365  -3.287  1.00  0.00     0.002 A 
HETATM   17  C   UNL     1       8.514  -7.378  -2.170  1.00  0.00     0.032 A 
HETATM   18  C   UNL     1       7.184  -2.421   0.259  1.00  0.00     0.065 C 
HETATM   19  C   UNL     1       5.876  -1.937   0.869  1.00  0.00     0.237 C 
HETATM   20  H   UNL     1       8.505  -2.923  -2.029  1.00  0.00     0.161 HD
ENDROOT
BRANCH   1  21
HETATM   21  C   UNL     1       3.427  -1.461   0.455  1.00  0.00     0.239 C 
BRANCH  21  22
HETATM   22  C   UNL     1       3.415  -0.055   1.058  1.00  0.00     0.066 C 
BRANCH  22  23
HETATM   23  C   UNL     1       2.021   0.276   1.525  1.00  0.00    -0.057 A 
HETATM   24  C   UNL     1       1.575  -0.153   2.784  1.00  0.00     0.007 A 
HETATM   25  C   UNL     1       0.261   0.087   3.186  1.00  0.00     0.001 A 
HETATM   26  C   UNL     1      -0.618   0.758   2.338  1.00  0.00     0.000 A 
HETATM   27  C   UNL     1      -0.182   1.195   1.089  1.00  0.00     0.001 A 
HETATM   28  C   UNL     1       1.131   0.956   0.682  1.00  0.00     0.007 A 
ENDBRANCH  22  23
ENDBRANCH  21  22
ENDBRANCH   1  21
TORSDOF 3
