REMARK  4 active torsions:
REMARK  status: ('A' for Active; 'I' for Inactive)
REMARK    1  A    between atoms: C_9  and  C_10 
REMARK    2  A    between atoms: C_10  and  C_11 
REMARK       I    between atoms: C_11  and  N_12 
REMARK    3  A    between atoms: N_12  and  C_13 
REMARK    4  A    between atoms: C_20  and  C_21 
REMARK       I    between atoms: C_21  and  N_22 
ROOT
HETATM    1  C   UNL     1      -5.336   2.004  -0.910  1.00  0.00     0.035 A 
HETATM    2  C   UNL     1      -6.630   2.162  -0.396  1.00  0.00     0.046 A 
HETATM    3  C   UNL     1      -7.315   3.380  -0.598  1.00  0.00     0.030 A 
HETATM    4  C   UNL     1      -6.696   4.385  -1.331  1.00  0.00     0.063 A 
HETATM    5  N   UNL     1      -7.592   5.416  -1.362  1.00  0.00    -0.277 N 
HETATM    6  H   UNL     1      -7.478   6.314  -1.816  1.00  0.00     0.189 HD
HETATM    7  N   UNL     1      -8.731   5.184  -0.690  1.00  0.00    -0.168 NA
HETATM    8  C   UNL     1      -8.574   3.930  -0.207  1.00  0.00     0.156 A 
HETATM    9  C   UNL     1      -5.414   4.256  -1.869  1.00  0.00     0.034 A 
HETATM   10  C   UNL     1      -4.743   3.050  -1.630  1.00  0.00     0.032 A 
ENDROOT
BRANCH   1  11
HETATM   11  N   UNL     1      -4.553   0.851  -0.695  1.00  0.00    -0.327 N 
HETATM   12  C   UNL     1      -4.968  -0.351  -0.148  1.00  0.00     0.226 C 
HETATM   13  O   UNL     1      -6.128  -0.691   0.070  1.00  0.00    -0.273 OA
HETATM   14  H   UNL     1      -3.578   0.920  -0.957  1.00  0.00     0.169 HD
BRANCH  12  15
HETATM   15  C   UNL     1      -3.808  -1.274   0.199  1.00  0.00     0.141 C 
BRANCH  15  16
HETATM   16  C   UNL     1      -3.169  -0.900   1.515  1.00  0.00    -0.049 A 
HETATM   17  C   UNL     1      -3.923  -0.931   2.693  1.00  0.00     0.008 A 
HETATM   18  C   UNL     1      -3.357  -0.550   3.910  1.00  0.00     0.013 A 
HETATM   19  C   UNL     1      -2.020  -0.134   3.978  1.00  0.00    -0.026 A 
HETATM   20  C   UNL     1      -1.441   0.263   5.193  1.00  0.00     0.012 A 
HETATM   21  C   UNL     1      -1.242  -0.112   2.798  1.00  0.00    -0.025 A 
HETATM   22  C   UNL     1      -0.110   0.676   5.247  1.00  0.00     0.001 A 
HETATM   23  C   UNL     1       0.659   0.695   4.088  1.00  0.00     0.001 A 
HETATM   24  C   UNL     1       0.098   0.303   2.871  1.00  0.00     0.012 A 
HETATM   25  C   UNL     1      -1.826  -0.500   1.578  1.00  0.00     0.020 A 
ENDBRANCH  15  16
ENDBRANCH  12  15
ENDBRANCH   1  11
BRANCH   8  26
HETATM   26  C   UNL     1      -9.608   3.299   0.625  1.00  0.00     0.270 C 
HETATM   27  N   UNL     1     -10.703   4.088   0.847  1.00  0.00    -0.365 N 
HETATM   28  H   UNL     1     -10.714   5.023   0.456  1.00  0.00     0.159 HD
HETATM   29  H   UNL     1     -11.448   3.751   1.435  1.00  0.00     0.159 HD
HETATM   30  O   UNL     1      -9.529   2.175   1.108  1.00  0.00    -0.266 OA
ENDBRANCH   8  26
TORSDOF 4
