REMARK  5 active torsions:
REMARK  status: ('A' for Active; 'I' for Inactive)
REMARK    1  A    between atoms: C_3  and  N_4 
REMARK       I    between atoms: N_4  and  C_5 
REMARK       I    between atoms: C_5  and  N_6 
REMARK    2  A    between atoms: N_6  and  C_7 
REMARK    3  A    between atoms: C_7  and  C_8 
REMARK    4  A    between atoms: C_10  and  N_11 
REMARK       I    between atoms: N_11  and  C_12 
REMARK    5  A    between atoms: C_12  and  C_13 
ROOT
HETATM    1  C   UNL     1       7.119   2.506  -0.486  1.00  0.00    -0.038 A 
HETATM    2  C   UNL     1       7.317   3.896  -0.396  1.00  0.00     0.038 A 
HETATM    3  C   UNL     1       8.587   4.455  -0.557  1.00  0.00     0.035 A 
HETATM    4  C   UNL     1       9.673   3.607  -0.801  1.00  0.00     0.029 A 
HETATM    5  C   UNL     1       9.493   2.225  -0.881  1.00  0.00     0.003 A 
HETATM    6  C   UNL     1       8.223   1.676  -0.720  1.00  0.00     0.009 A 
ENDROOT
BRANCH   1   7
HETATM    7  C   UNL     1       5.742   1.924  -0.291  1.00  0.00     0.163 C 
BRANCH   7   8
HETATM    8  N   UNL     1       5.359   1.087  -1.411  1.00  0.00    -0.339 N 
HETATM    9  C   UNL     1       5.114  -0.249  -1.485  1.00  0.00     0.321 C 
HETATM   10  N   UNL     1       4.988  -0.907  -0.296  1.00  0.00    -0.307 N 
HETATM   11  O   UNL     1       5.029  -0.751  -2.601  1.00  0.00    -0.247 OA
HETATM   12  H   UNL     1       4.842  -0.329   0.512  1.00  0.00     0.170 HD
HETATM   13  H   UNL     1       5.448   1.504  -2.330  1.00  0.00     0.164 HD
BRANCH  10  14
HETATM   14  C   UNL     1       4.849  -2.302  -0.097  1.00  0.00     0.059 A 
HETATM   15  C   UNL     1       4.620  -2.791   1.204  1.00  0.00    -0.032 A 
HETATM   16  C   UNL     1       4.509  -1.888   2.402  1.00  0.00     0.050 C 
HETATM   17  C   UNL     1       4.484  -4.174   1.393  1.00  0.00     0.028 A 
HETATM   18  C   UNL     1       4.590  -5.018   0.301  1.00  0.00     0.117 A 
HETATM   19  N   UNL     1       4.822  -4.586  -0.952  1.00  0.00    -0.271 NA
HETATM   20  C   UNL     1       4.944  -3.244  -1.122  1.00  0.00     0.146 A 
ENDBRANCH  10  14
ENDBRANCH   7   8
ENDBRANCH   1   7
BRANCH   3  21
HETATM   21  N   UNL     1       8.855   5.839  -0.477  1.00  0.00    -0.323 N 
HETATM   22  C   UNL     1       7.943   6.861  -0.283  1.00  0.00     0.256 C 
HETATM   23  O   UNL     1       6.724   6.754  -0.211  1.00  0.00    -0.267 OA
HETATM   24  H   UNL     1       9.818   6.102  -0.641  1.00  0.00     0.169 HD
BRANCH  22  25
HETATM   25  C   UNL     1       8.529   8.226  -0.188  1.00  0.00     0.035 A 
HETATM   26  C   UNL     1       9.773   8.458   0.402  1.00  0.00     0.036 A 
HETATM   27  C   UNL     1      10.228   9.764   0.454  1.00  0.00     0.117 A 
HETATM   28  N   UNL     1       9.538  10.819  -0.029  1.00  0.00    -0.273 NA
HETATM   29  C   UNL     1       8.328  10.567  -0.573  1.00  0.00     0.117 A 
HETATM   30  C   UNL     1       7.783   9.301  -0.672  1.00  0.00     0.036 A 
ENDBRANCH  22  25
ENDBRANCH   3  21
TORSDOF 5
