REMARK  7 active torsions:
REMARK  status: ('A' for Active; 'I' for Inactive)
REMARK    1  A    between atoms: C_3  and  N_4 
REMARK       I    between atoms: N_4  and  C_5 
REMARK    2  A    between atoms: C_5  and  C_6 
REMARK    3  A    between atoms: C_6  and  C_14 
REMARK    4  A    between atoms: C_8  and  C_9 
REMARK    5  A    between atoms: C_9  and  O_15 
REMARK    6  A    between atoms: C_10  and  O_17 
REMARK    7  A    between atoms: C_22  and  N_23 
REMARK       I    between atoms: N_23  and  C_24 
REMARK       I    between atoms: C_24  and  N_25 
ROOT
HETATM    1  C           1      -0.370  -2.347  -2.014  0.00  0.00     0.016 C 
HETATM    2  C           1      -1.359  -2.902   0.320  0.00  0.00     0.012 C 
HETATM    3  C           1      -1.283  -1.877  -0.861  0.00  0.00    -0.030 C 
HETATM    4  C           1      -2.267  -4.171   0.167  0.00  0.00     0.008 C 
HETATM    5  C           1      -3.632  -3.730  -0.400  0.00  0.00     0.128 C 
HETATM    6  C           1      -2.711  -1.623  -1.405  0.00  0.00     0.013 C 
HETATM    7  C           1       0.571  -0.793   0.455  0.00  0.00     0.056 A 
HETATM    8  C           1      -0.708  -0.529  -0.298  0.00  0.00     0.056 C 
HETATM    9  C           1      -2.521  -4.770   1.579  0.00  0.00     0.020 C 
HETATM   10  C           1      -3.514  -2.899  -1.670  0.00  0.00     0.033 C 
HETATM   11  C           1       0.037  -3.202   0.907  0.00  0.00     0.055 C 
HETATM   12  C           1       0.889  -1.970   1.003  0.00  0.00     0.012 A 
HETATM   13  N           1       1.489   0.060   0.619  0.00  0.00    -0.227 NA
HETATM   14  C           1       2.425  -0.486   1.273  0.00  0.00     0.175 A 
HETATM   15  S           1       2.205  -1.885   1.640  0.00  0.00    -0.055 SA
ENDROOT
BRANCH  14  16
HETATM   16  N           1       3.608   0.042   1.638  0.00  0.00    -0.287 N 
HETATM   17  C           1       4.218   1.251   1.468  0.00  0.00     0.324 C 
HETATM   18  O           1       5.416   1.250   1.583  0.00  0.00    -0.247 OA
HETATM   19  N           1       3.567   2.412   1.126  0.00  0.00    -0.330 N 
HETATM   20  C           1       2.241   2.773   1.604  0.00  0.00     0.153 C 
HETATM   21  C           1       4.214   3.495   0.393  0.00  0.00     0.153 C 
HETATM   22  C           1       2.314   4.081   2.391  0.00  0.00     0.187 C 
HETATM   23  O           1       2.900   5.096   1.615  0.00  0.00    -0.388 OA
HETATM   24  C           1       4.212   4.764   1.239  0.00  0.00     0.187 C 
HETATM   25  H           1       4.200  -0.656   2.066  0.00  0.00     0.172 HD
ENDBRANCH  14  16
BRANCH   8  26
HETATM   26  C           1      -0.559   0.627  -1.310  0.00  0.00     0.114 C 
BRANCH  26  27
HETATM   27  C           1      -0.614   2.035  -0.723  0.00  0.00     0.218 C 
HETATM   28  N           1      -0.481   3.020  -1.666  0.00  0.00    -0.357 N 
HETATM   29  H           1      -0.298   2.718  -2.624  0.00  0.00     0.162 HD
HETATM   30  O           1      -0.776   2.233   0.455  0.00  0.00    -0.274 OA
BRANCH  28  31
HETATM   31  C           1      -0.516   4.472  -1.424  0.00  0.00     0.076 C 
HETATM   32  C           1       0.884   5.066  -1.643  0.00  0.00     0.032 C 
HETATM   33  C           1      -1.116   4.988  -0.107  0.00  0.00     0.032 C 
ENDBRANCH  28  31
ENDBRANCH  26  27
ENDBRANCH   8  26
BRANCH   4  34
HETATM   34  C           1      -1.645  -5.287  -0.696  0.00  0.00     0.176 C 
BRANCH  34  35
HETATM   35  O           1      -2.392  -6.488  -0.617  0.00  0.00    -0.400 OA
HETATM   36  H           1      -3.317  -6.311  -0.791  0.00  0.00     0.209 HD
ENDBRANCH  34  35
ENDBRANCH   4  34
BRANCH   5  37
HETATM   37  O           1      -4.448  -4.843  -0.680  0.00  0.00    -0.395 OA
HETATM   38  H           1      -5.359  -4.565  -0.789  0.00  0.00     0.210 HD
ENDBRANCH   5  37
TORSDOF 7
