REMARK  4 active torsions:
REMARK  status: ('A' for Active; 'I' for Inactive)
REMARK    1  A    between atoms: O_2  and  C_3 
REMARK    2  A    between atoms: C_4  and  C_5 
REMARK    3  A    between atoms: C_9  and  C_10 
REMARK       I    between atoms: C_10  and  N_11 
REMARK    4  A    between atoms: N_11  and  N_12 
ROOT
HETATM    1  C   UNL     1      -1.886   4.240   1.351  1.00  0.00     0.289 C 
HETATM    2  N   UNL     1      -1.722   5.564   0.966  1.00  0.00    -0.241 N 
HETATM    3  O   UNL     1      -2.925   3.762   1.794  1.00  0.00    -0.264 OA
HETATM    4  H   UNL     1      -0.784   5.905   0.817  1.00  0.00     0.192 HD
ENDROOT
BRANCH   1   5
HETATM    5  C   UNL     1      -0.702   3.434   1.181  1.00  0.00     0.121 A 
HETATM    6  N   UNL     1      -0.642   2.140   1.618  1.00  0.00    -0.272 N 
HETATM    7  N   UNL     1       0.530   1.533   1.376  1.00  0.00    -0.174 NA
HETATM    8  H   UNL     1      -1.378   1.623   2.092  1.00  0.00     0.189 HD
HETATM    9  C   UNL     1       1.262   2.450   0.733  1.00  0.00     0.092 A 
HETATM   10  C   UNL     1       0.530   3.663   0.600  1.00  0.00     0.071 A 
BRANCH   9  11
HETATM   11  C   UNL     1       2.627   2.203   0.267  1.00  0.00     0.028 A 
HETATM   12  C   UNL     1       3.016   1.044  -0.426  1.00  0.00     0.080 A 
HETATM   13  C   UNL     1       4.351   0.864  -0.808  1.00  0.00     0.037 A 
HETATM   14  C   UNL     1       5.303   1.850  -0.549  1.00  0.00     0.003 A 
HETATM   15  C   UNL     1       4.928   3.013   0.114  1.00  0.00     0.001 A 
HETATM   16  C   UNL     1       3.604   3.186   0.524  1.00  0.00     0.017 A 
BRANCH  12  17
HETATM   17  O   UNL     1       2.184   0.002  -0.744  1.00  0.00    -0.355 OA
HETATM   18  C   UNL     1       1.166   0.369  -1.672  1.00  0.00     0.210 C 
ENDBRANCH  12  17
ENDBRANCH   9  11
ENDBRANCH   1   5
BRANCH   2  19
HETATM   19  N   UNL     1      -2.705   6.481   1.179  1.00  0.00    -0.165 NA
HETATM   20  C   UNL     1      -2.579   7.664   0.665  1.00  0.00     0.157 A 
HETATM   21  C   UNL     1      -3.550   8.805   1.037  1.00  0.00     0.277 A 
HETATM   22  C   UNL     1      -1.610   8.260  -0.269  1.00  0.00     0.027 A 
HETATM   23  O   UNL     1      -4.530   8.724   1.741  1.00  0.00    -0.266 OA
HETATM   24  N   UNL     1      -3.047   9.927   0.418  1.00  0.00    -0.321 N 
HETATM   25  C   UNL     1      -1.929   9.618  -0.346  1.00  0.00     0.048 A 
HETATM   26  H   UNL     1      -3.490  10.831   0.491  1.00  0.00     0.169 HD
HETATM   27  C   UNL     1      -1.211  10.496  -1.132  1.00  0.00     0.030 A 
HETATM   28  C   UNL     1      -0.149   9.976  -1.876  1.00  0.00     0.002 A 
HETATM   29  C   UNL     1       0.154   8.604  -1.836  1.00  0.00     0.001 A 
HETATM   30  C   UNL     1      -0.588   7.727  -1.035  1.00  0.00     0.016 A 
ENDBRANCH   2  19
TORSDOF 4
