REMARK  3 active torsions:
REMARK  status: ('A' for Active; 'I' for Inactive)
REMARK    1  A    between atoms: C_2  and  N_3 
REMARK    2  A    between atoms: N_10  and  C_11 
REMARK    3  A    between atoms: C_11  and  C_12 
ROOT
HETATM    1  N   UNL     1       3.200   0.539  -1.384  1.00  0.00    -0.063 N 
HETATM    2  H   UNL     1       2.678   1.254  -1.908  1.00  0.00     0.280 HD
HETATM    3  C   UNL     1       4.540   1.212  -1.056  1.00  0.00     0.277 C 
HETATM    4  C   UNL     1       5.669   0.303  -0.477  1.00  0.00     0.132 C 
HETATM    5  O   UNL     1       5.186  -0.455   0.651  1.00  0.00    -0.373 OA
HETATM    6  C   UNL     1       5.284   0.246   1.897  1.00  0.00     0.199 C 
HETATM    7  C   UNL     1       6.734   0.588   2.274  1.00  0.00     0.299 C 
HETATM    8  N   UNL     1       7.640   0.796   1.128  1.00  0.00     0.097 N 
HETATM    9  C   UNL     1       6.868   1.233  -0.049  1.00  0.00     0.314 C 
HETATM   10  C   UNL     1       6.177  -0.655  -1.589  1.00  0.00     0.209 C 
HETATM   11  O   UNL     1       5.443  -1.834  -1.883  1.00  0.00    -0.386 OA
HETATM   12  C   UNL     1       4.031  -1.825  -1.789  1.00  0.00     0.195 C 
HETATM   13  C   UNL     1       3.364  -0.593  -2.393  1.00  0.00     0.261 C 
ENDROOT
BRANCH   1  14
HETATM   14  C   UNL     1       2.289   0.236  -0.173  1.00  0.00     0.180 C 
HETATM   15  C   UNL     1       1.022  -0.505  -0.612  1.00  0.00     0.039 C 
HETATM   16  C   UNL     1       1.870   1.547   0.499  1.00  0.00     0.039 C 
ENDBRANCH   1  14
BRANCH   8  17
HETATM   17  C   UNL     1       8.465  -0.399   0.869  1.00  0.00     0.311 C 
BRANCH  17  18
HETATM   18  C   UNL     1       9.461  -0.699   1.972  1.00  0.00    -0.030 A 
HETATM   19  C   UNL     1       9.458  -1.957   2.600  1.00  0.00     0.012 A 
HETATM   20  C   UNL     1      10.365  -2.239   3.622  1.00  0.00     0.043 A 
HETATM   21  C   UNL     1      11.280  -1.270   4.012  1.00  0.00     0.116 A 
HETATM   22  F   UNL     1      12.146  -1.540   4.998  1.00  0.00    -0.206 F 
HETATM   23  C   UNL     1      11.307  -0.024   3.399  1.00  0.00     0.043 A 
HETATM   24  C   UNL     1      10.401   0.262   2.377  1.00  0.00     0.012 A 
ENDBRANCH  17  18
ENDBRANCH   8  17
TORSDOF 3
