REMARK  7 active torsions:
REMARK  status: ('A' for Active; 'I' for Inactive)
REMARK    1  A    between atoms: C_10  and  C_11 
REMARK    2  A    between atoms: C_11  and  C_12 
REMARK       I    between atoms: C_12  and  N_13 
REMARK    3  A    between atoms: N_13  and  N_14 
REMARK       I    between atoms: N_14  and  C_15 
REMARK    4  A    between atoms: C_15  and  C_16 
REMARK    5  A    between atoms: C_16  and  C_17 
REMARK    6  A    between atoms: C_17  and  C_18 
REMARK       I    between atoms: C_18  and  N_19 
REMARK    7  A    between atoms: N_19  and  C_20 
ROOT
HETATM    1  C   UNL     1      -0.821   4.205  -5.351  1.00  0.00     0.034 A 
HETATM    2  C   UNL     1      -1.092   4.241  -6.720  1.00  0.00     0.031 A 
HETATM    3  C   UNL     1      -1.965   5.201  -7.248  1.00  0.00     0.025 A 
HETATM    4  C   UNL     1      -2.573   6.138  -6.409  1.00  0.00     0.044 A 
HETATM    5  C   UNL     1      -3.463   7.122  -6.950  1.00  0.00     0.099 C 
HETATM    6  N   UNL     1      -4.185   7.921  -7.383  1.00  0.00    -0.191 NA
HETATM    7  C   UNL     1      -2.306   6.107  -5.038  1.00  0.00     0.025 A 
HETATM    8  C   UNL     1      -1.438   5.143  -4.513  1.00  0.00     0.031 A 
ENDROOT
BRANCH   1   9
HETATM    9  N   UNL     1       0.038   3.269  -4.742  1.00  0.00    -0.327 N 
HETATM   10  C   UNL     1       0.823   2.318  -5.364  1.00  0.00     0.222 C 
HETATM   11  O   UNL     1       0.936   2.137  -6.572  1.00  0.00    -0.273 OA
HETATM   12  H   UNL     1       0.110   3.323  -3.724  1.00  0.00     0.169 HD
BRANCH  10  13
HETATM   13  C   UNL     1       1.613   1.467  -4.387  1.00  0.00     0.112 C 
BRANCH  13  14
HETATM   14  C   UNL     1       2.766   2.245  -3.764  1.00  0.00     0.114 C 
BRANCH  14  15
HETATM   15  C   UNL     1       2.343   2.964  -2.500  1.00  0.00     0.236 C 
HETATM   16  N   UNL     1       3.403   3.392  -1.735  1.00  0.00    -0.268 N 
HETATM   17  H   UNL     1       4.378   3.177  -1.948  1.00  0.00     0.190 HD
HETATM   18  O   UNL     1       1.167   3.179  -2.208  1.00  0.00    -0.272 OA
BRANCH  16  19
HETATM   19  N   UNL     1       3.154   3.898  -0.455  1.00  0.00    -0.267 N 
HETATM   20  C   UNL     1       4.241   4.314   0.291  1.00  0.00     0.240 C 
HETATM   21  O   UNL     1       5.397   4.192  -0.116  1.00  0.00    -0.272 OA
HETATM   22  H   UNL     1       2.199   4.185  -0.241  1.00  0.00     0.190 HD
BRANCH  20  23
HETATM   23  C   UNL     1       3.890   4.858   1.654  1.00  0.00     0.146 C 
BRANCH  23  24
HETATM   24  C   UNL     1       3.578   6.324   1.740  1.00  0.00    -0.015 A 
HETATM   25  C   UNL     1       3.406   7.308   0.702  1.00  0.00    -0.000 A 
HETATM   26  C   UNL     1       3.481   7.308  -0.711  1.00  0.00     0.021 A 
HETATM   27  C   UNL     1       3.088   8.516   1.325  1.00  0.00     0.043 A 
HETATM   28  C   UNL     1       3.233   8.484  -1.444  1.00  0.00    -0.061 A 
HETATM   29  C   UNL     1       3.273   8.457  -2.944  1.00  0.00     0.048 C 
HETATM   30  C   UNL     1       2.896   9.659  -0.772  1.00  0.00     0.009 A 
HETATM   31  C   UNL     1       2.829   9.699   0.622  1.00  0.00     0.031 A 
HETATM   32  N   UNL     1       3.092   8.294   2.678  1.00  0.00    -0.359 N 
HETATM   33  H   UNL     1       2.905   9.007   3.370  1.00  0.00     0.166 HD
HETATM   34  C   UNL     1       3.378   6.984   2.949  1.00  0.00     0.013 A 
HETATM   35  C   UNL     1       3.437   6.481   4.348  1.00  0.00     0.068 C 
ENDBRANCH  23  24
ENDBRANCH  20  23
ENDBRANCH  16  19
ENDBRANCH  14  15
ENDBRANCH  13  14
ENDBRANCH  10  13
ENDBRANCH   1   9
TORSDOF 7
