MODEL 1
REMARK VINA RESULT:      -8.0      0.000      0.000
REMARK  5 active torsions:
REMARK  status: ('A' for Active; 'I' for Inactive)
REMARK    1  A    between atoms: C_3  and  N_4 
REMARK       I    between atoms: N_4  and  C_5 
REMARK       I    between atoms: C_5  and  N_6 
REMARK    2  A    between atoms: N_6  and  C_7 
REMARK    3  A    between atoms: C_7  and  C_8 
REMARK    4  A    between atoms: C_8  and  O_9 
REMARK    5  A    between atoms: O_9  and  C_10 
ROOT
HETATM    1  N   UNL     1      44.352 -17.092   4.924  1.00  0.00    -0.307 N 
HETATM    2  C   UNL     1      43.385 -16.377   5.599  1.00  0.00     0.320 C 
HETATM    3  N   UNL     1      43.955 -15.361   6.330  1.00  0.00    -0.340 N 
HETATM    4  O   UNL     1      42.179 -16.568   5.544  1.00  0.00    -0.247 OA
HETATM    5  H   UNL     1      45.054 -16.483   4.524  1.00  0.00     0.170 HD
HETATM    6  H   UNL     1      44.925 -15.479   6.583  1.00  0.00     0.164 HD
ENDROOT
BRANCH   3   7
HETATM    7  C   UNL     1      43.156 -14.424   7.102  1.00  0.00     0.156 C 
BRANCH   7   8
HETATM    8  C   UNL     1      43.302 -12.951   6.669  1.00  0.00     0.142 C 
HETATM    9  C   UNL     1      43.077 -12.757   5.170  1.00  0.00     0.042 C 
BRANCH   8  10
HETATM   10  O   UNL     1      44.654 -12.528   6.918  1.00  0.00    -0.345 OA
BRANCH  10  11
HETATM   11  C   UNL     1      44.875 -11.368   7.603  1.00  0.00     0.070 A 
HETATM   12  C   UNL     1      44.053 -10.819   8.586  1.00  0.00     0.060 A 
HETATM   13  C   UNL     1      44.413  -9.613   9.196  1.00  0.00     0.036 A 
HETATM   14 CL   UNL     1      43.388  -8.933  10.400  1.00  0.00    -0.084 Cl
HETATM   15  C   UNL     1      45.591  -8.957   8.844  1.00  0.00     0.024 A 
HETATM   16  C   UNL     1      46.424  -9.514   7.876  1.00  0.00     0.004 A 
HETATM   17  C   UNL     1      46.065 -10.714   7.262  1.00  0.00     0.037 A 
ENDBRANCH  10  11
ENDBRANCH   8  10
ENDBRANCH   7   8
ENDBRANCH   3   7
BRANCH   1  18
HETATM   18  C   UNL     1      44.087 -18.284   4.210  1.00  0.00     0.059 A 
HETATM   19  C   UNL     1      43.602 -18.331   2.894  1.00  0.00    -0.032 A 
HETATM   20  C   UNL     1      43.244 -17.115   2.087  1.00  0.00     0.050 C 
HETATM   21  C   UNL     1      43.415 -19.589   2.301  1.00  0.00     0.028 A 
HETATM   22  C   UNL     1      43.655 -20.735   3.043  1.00  0.00     0.117 A 
HETATM   23  N   UNL     1      44.059 -20.722   4.327  1.00  0.00    -0.271 NA
HETATM   24  C   UNL     1      44.261 -19.501   4.875  1.00  0.00     0.146 A 
ENDBRANCH   1  18
TORSDOF 5
ENDMDL
MODEL 2
REMARK VINA RESULT:      -7.8      5.778      8.495
REMARK  5 active torsions:
REMARK  status: ('A' for Active; 'I' for Inactive)
REMARK    1  A    between atoms: C_3  and  N_4 
REMARK       I    between atoms: N_4  and  C_5 
REMARK       I    between atoms: C_5  and  N_6 
REMARK    2  A    between atoms: N_6  and  C_7 
REMARK    3  A    between atoms: C_7  and  C_8 
REMARK    4  A    between atoms: C_8  and  O_9 
REMARK    5  A    between atoms: O_9  and  C_10 
ROOT
HETATM    1  N   UNL     1      39.505 -13.631   0.456  1.00  0.00    -0.307 N 
HETATM    2  C   UNL     1      40.142 -14.643   1.143  1.00  0.00     0.320 C 
HETATM    3  N   UNL     1      39.550 -14.844   2.368  1.00  0.00    -0.340 N 
HETATM    4  O   UNL     1      41.076 -15.315   0.732  1.00  0.00    -0.247 OA
HETATM    5  H   UNL     1      38.500 -13.688   0.554  1.00  0.00     0.170 HD
HETATM    6  H   UNL     1      39.037 -14.064   2.753  1.00  0.00     0.164 HD
ENDROOT
BRANCH   3   7
HETATM    7  C   UNL     1      39.997 -15.885   3.279  1.00  0.00     0.156 C 
BRANCH   7   8
HETATM    8  C   UNL     1      41.128 -15.456   4.235  1.00  0.00     0.142 C 
HETATM    9  C   UNL     1      41.101 -13.959   4.539  1.00  0.00     0.042 C 
BRANCH   8  10
HETATM   10  O   UNL     1      42.392 -15.700   3.593  1.00  0.00    -0.345 OA
BRANCH  10  11
HETATM   11  C   UNL     1      42.959 -16.939   3.685  1.00  0.00     0.070 A 
HETATM   12  C   UNL     1      43.025 -17.895   2.674  1.00  0.00     0.060 A 
HETATM   13  C   UNL     1      43.636 -19.127   2.924  1.00  0.00     0.036 A 
HETATM   14 CL   UNL     1      43.702 -20.311   1.675  1.00  0.00    -0.084 Cl
HETATM   15  C   UNL     1      44.194 -19.410   4.170  1.00  0.00     0.024 A 
HETATM   16  C   UNL     1      44.148 -18.448   5.176  1.00  0.00     0.004 A 
HETATM   17  C   UNL     1      43.534 -17.219   4.930  1.00  0.00     0.037 A 
ENDBRANCH  10  11
ENDBRANCH   8  10
ENDBRANCH   7   8
ENDBRANCH   3   7
BRANCH   1  18
HETATM   18  C   UNL     1      39.978 -13.098  -0.766  1.00  0.00     0.059 A 
HETATM   19  C   UNL     1      39.703 -13.642  -2.029  1.00  0.00    -0.032 A 
HETATM   20  C   UNL     1      38.915 -14.902  -2.248  1.00  0.00     0.050 C 
HETATM   21  C   UNL     1      40.216 -12.986  -3.159  1.00  0.00     0.028 A 
HETATM   22  C   UNL     1      41.018 -11.868  -2.994  1.00  0.00     0.117 A 
HETATM   23  N   UNL     1      41.351 -11.360  -1.792  1.00  0.00    -0.271 NA
HETATM   24  C   UNL     1      40.826 -11.987  -0.715  1.00  0.00     0.146 A 
ENDBRANCH   1  18
TORSDOF 5
ENDMDL
MODEL 3
REMARK VINA RESULT:      -7.7      5.321      8.218
REMARK  5 active torsions:
REMARK  status: ('A' for Active; 'I' for Inactive)
REMARK    1  A    between atoms: C_3  and  N_4 
REMARK       I    between atoms: N_4  and  C_5 
REMARK       I    between atoms: C_5  and  N_6 
REMARK    2  A    between atoms: N_6  and  C_7 
REMARK    3  A    between atoms: C_7  and  C_8 
REMARK    4  A    between atoms: C_8  and  O_9 
REMARK    5  A    between atoms: O_9  and  C_10 
ROOT
HETATM    1  N   UNL     1      39.714 -14.144   1.319  1.00  0.00    -0.307 N 
HETATM    2  C   UNL     1      40.449 -15.112   1.970  1.00  0.00     0.320 C 
HETATM    3  N   UNL     1      40.079 -15.191   3.293  1.00  0.00    -0.340 N 
HETATM    4  O   UNL     1      41.286 -15.843   1.464  1.00  0.00    -0.247 OA
HETATM    5  H   UNL     1      38.741 -14.163   1.595  1.00  0.00     0.170 HD
HETATM    6  H   UNL     1      39.653 -14.366   3.691  1.00  0.00     0.164 HD
ENDROOT
BRANCH   3   7
HETATM    7  C   UNL     1      40.666 -16.163   4.201  1.00  0.00     0.156 C 
BRANCH   7   8
HETATM    8  C   UNL     1      41.937 -15.676   4.926  1.00  0.00     0.142 C 
HETATM    9  C   UNL     1      42.021 -14.152   4.997  1.00  0.00     0.042 C 
BRANCH   8  10
HETATM   10  O   UNL     1      43.088 -16.095   4.172  1.00  0.00    -0.345 OA
BRANCH  10  11
HETATM   11  C   UNL     1      43.382 -17.426   4.090  1.00  0.00     0.070 A 
HETATM   12  C   UNL     1      43.424 -18.193   2.927  1.00  0.00     0.060 A 
HETATM   13  C   UNL     1      43.737 -19.553   3.005  1.00  0.00     0.036 A 
HETATM   14 CL   UNL     1      43.773 -20.500   1.567  1.00  0.00    -0.084 Cl
HETATM   15  C   UNL     1      44.023 -20.153   4.231  1.00  0.00     0.024 A 
HETATM   16  C   UNL     1      44.003 -19.384   5.392  1.00  0.00     0.004 A 
HETATM   17  C   UNL     1      43.685 -18.027   5.317  1.00  0.00     0.037 A 
ENDBRANCH  10  11
ENDBRANCH   8  10
ENDBRANCH   7   8
ENDBRANCH   3   7
BRANCH   1  18
HETATM   18  C   UNL     1      39.971 -13.730  -0.010  1.00  0.00     0.059 A 
HETATM   19  C   UNL     1      40.636 -12.546  -0.359  1.00  0.00    -0.032 A 
HETATM   20  C   UNL     1      41.116 -11.527   0.635  1.00  0.00     0.050 C 
HETATM   21  C   UNL     1      40.848 -12.281  -1.721  1.00  0.00     0.028 A 
HETATM   22  C   UNL     1      40.346 -13.156  -2.673  1.00  0.00     0.117 A 
HETATM   23  N   UNL     1      39.648 -14.267  -2.369  1.00  0.00    -0.271 NA
HETATM   24  C   UNL     1      39.478 -14.523  -1.051  1.00  0.00     0.146 A 
ENDBRANCH   1  18
TORSDOF 5
ENDMDL
MODEL 4
REMARK VINA RESULT:      -7.7      6.040      9.157
REMARK  5 active torsions:
REMARK  status: ('A' for Active; 'I' for Inactive)
REMARK    1  A    between atoms: C_3  and  N_4 
REMARK       I    between atoms: N_4  and  C_5 
REMARK       I    between atoms: C_5  and  N_6 
REMARK    2  A    between atoms: N_6  and  C_7 
REMARK    3  A    between atoms: C_7  and  C_8 
REMARK    4  A    between atoms: C_8  and  O_9 
REMARK    5  A    between atoms: O_9  and  C_10 
ROOT
HETATM    1  N   UNL     1      40.622 -13.732  -0.804  1.00  0.00    -0.307 N 
HETATM    2  C   UNL     1      40.891 -13.712   0.548  1.00  0.00     0.320 C 
HETATM    3  N   UNL     1      42.005 -14.467   0.832  1.00  0.00    -0.340 N 
HETATM    4  O   UNL     1      40.272 -13.086   1.396  1.00  0.00    -0.247 OA
HETATM    5  H   UNL     1      41.467 -13.654  -1.355  1.00  0.00     0.170 HD
HETATM    6  H   UNL     1      42.240 -15.189   0.166  1.00  0.00     0.164 HD
ENDROOT
BRANCH   3   7
HETATM    7  C   UNL     1      42.538 -14.580   2.180  1.00  0.00     0.156 C 
BRANCH   7   8
HETATM    8  C   UNL     1      42.096 -15.848   2.937  1.00  0.00     0.142 C 
HETATM    9  C   UNL     1      41.139 -15.539   4.087  1.00  0.00     0.042 C 
BRANCH   8  10
HETATM   10  O   UNL     1      43.252 -16.451   3.543  1.00  0.00    -0.345 OA
BRANCH  10  11
HETATM   11  C   UNL     1      43.424 -17.803   3.454  1.00  0.00     0.070 A 
HETATM   12  C   UNL     1      43.904 -18.643   4.457  1.00  0.00     0.060 A 
HETATM   13  C   UNL     1      44.030 -20.014   4.211  1.00  0.00     0.036 A 
HETATM   14 CL   UNL     1      44.636 -21.045   5.449  1.00  0.00    -0.084 Cl
HETATM   15  C   UNL     1      43.669 -20.556   2.979  1.00  0.00     0.024 A 
HETATM   16  C   UNL     1      43.170 -19.721   1.982  1.00  0.00     0.004 A 
HETATM   17  C   UNL     1      43.048 -18.352   2.223  1.00  0.00     0.037 A 
ENDBRANCH  10  11
ENDBRANCH   8  10
ENDBRANCH   7   8
ENDBRANCH   3   7
BRANCH   1  18
HETATM   18  C   UNL     1      39.457 -13.171  -1.378  1.00  0.00     0.059 A 
HETATM   19  C   UNL     1      38.555 -13.872  -2.192  1.00  0.00    -0.032 A 
HETATM   20  C   UNL     1      38.739 -15.303  -2.612  1.00  0.00     0.050 C 
HETATM   21  C   UNL     1      37.423 -13.191  -2.666  1.00  0.00     0.028 A 
HETATM   22  C   UNL     1      37.261 -11.847  -2.370  1.00  0.00     0.117 A 
HETATM   23  N   UNL     1      38.142 -11.132  -1.644  1.00  0.00    -0.271 NA
HETATM   24  C   UNL     1      39.213 -11.810  -1.171  1.00  0.00     0.146 A 
ENDBRANCH   1  18
TORSDOF 5
ENDMDL
MODEL 5
REMARK VINA RESULT:      -7.6      2.809      3.931
REMARK  5 active torsions:
REMARK  status: ('A' for Active; 'I' for Inactive)
REMARK    1  A    between atoms: C_3  and  N_4 
REMARK       I    between atoms: N_4  and  C_5 
REMARK       I    between atoms: C_5  and  N_6 
REMARK    2  A    between atoms: N_6  and  C_7 
REMARK    3  A    between atoms: C_7  and  C_8 
REMARK    4  A    between atoms: C_8  and  O_9 
REMARK    5  A    between atoms: O_9  and  C_10 
ROOT
HETATM    1  N   UNL     1      43.586 -17.278   2.205  1.00  0.00    -0.307 N 
HETATM    2  C   UNL     1      42.441 -16.509   2.191  1.00  0.00     0.320 C 
HETATM    3  N   UNL     1      42.645 -15.350   1.478  1.00  0.00    -0.340 N 
HETATM    4  O   UNL     1      41.367 -16.806   2.693  1.00  0.00    -0.247 OA
HETATM    5  H   UNL     1      44.041 -17.287   1.302  1.00  0.00     0.170 HD
HETATM    6  H   UNL     1      43.602 -15.036   1.395  1.00  0.00     0.164 HD
ENDROOT
BRANCH   3   7
HETATM    7  C   UNL     1      41.586 -14.378   1.266  1.00  0.00     0.156 C 
BRANCH   7   8
HETATM    8  C   UNL     1      41.429 -13.347   2.402  1.00  0.00     0.142 C 
HETATM    9  C   UNL     1      40.550 -12.163   2.001  1.00  0.00     0.042 C 
BRANCH   8  10
HETATM   10  O   UNL     1      42.720 -12.790   2.703  1.00  0.00    -0.345 OA
BRANCH  10  11
HETATM   11  C   UNL     1      43.155 -12.772   3.997  1.00  0.00     0.070 A 
HETATM   12  C   UNL     1      42.903 -13.741   4.967  1.00  0.00     0.060 A 
HETATM   13  C   UNL     1      43.415 -13.579   6.257  1.00  0.00     0.036 A 
HETATM   14 CL   UNL     1      43.090 -14.772   7.455  1.00  0.00    -0.084 Cl
HETATM   15  C   UNL     1      44.186 -12.466   6.587  1.00  0.00     0.024 A 
HETATM   16  C   UNL     1      44.456 -11.506   5.614  1.00  0.00     0.004 A 
HETATM   17  C   UNL     1      43.942 -11.663   4.326  1.00  0.00     0.037 A 
ENDBRANCH  10  11
ENDBRANCH   8  10
ENDBRANCH   7   8
ENDBRANCH   3   7
BRANCH   1  18
HETATM   18  C   UNL     1      43.728 -18.453   2.980  1.00  0.00     0.059 A 
HETATM   19  C   UNL     1      44.069 -18.471   4.341  1.00  0.00    -0.032 A 
HETATM   20  C   UNL     1      44.386 -17.241   5.144  1.00  0.00     0.050 C 
HETATM   21  C   UNL     1      44.143 -19.713   4.990  1.00  0.00     0.028 A 
HETATM   22  C   UNL     1      43.939 -20.876   4.263  1.00  0.00     0.117 A 
HETATM   23  N   UNL     1      43.673 -20.893   2.943  1.00  0.00    -0.271 NA
HETATM   24  C   UNL     1      43.577 -19.686   2.339  1.00  0.00     0.146 A 
ENDBRANCH   1  18
TORSDOF 5
ENDMDL
MODEL 6
REMARK VINA RESULT:      -7.5      4.846      7.533
REMARK  5 active torsions:
REMARK  status: ('A' for Active; 'I' for Inactive)
REMARK    1  A    between atoms: C_3  and  N_4 
REMARK       I    between atoms: N_4  and  C_5 
REMARK       I    between atoms: C_5  and  N_6 
REMARK    2  A    between atoms: N_6  and  C_7 
REMARK    3  A    between atoms: C_7  and  C_8 
REMARK    4  A    between atoms: C_8  and  O_9 
REMARK    5  A    between atoms: O_9  and  C_10 
ROOT
HETATM    1  N   UNL     1      39.823 -14.659   3.012  1.00  0.00    -0.307 N 
HETATM    2  C   UNL     1      40.682 -14.282   4.023  1.00  0.00     0.320 C 
HETATM    3  N   UNL     1      40.372 -14.939   5.192  1.00  0.00    -0.340 N 
HETATM    4  O   UNL     1      41.623 -13.509   3.918  1.00  0.00    -0.247 OA
HETATM    5  H   UNL     1      39.643 -15.654   3.027  1.00  0.00     0.170 HD
HETATM    6  H   UNL     1      39.424 -15.277   5.280  1.00  0.00     0.164 HD
ENDROOT
BRANCH   3   7
HETATM    7  C   UNL     1      41.150 -14.760   6.407  1.00  0.00     0.156 C 
BRANCH   7   8
HETATM    8  C   UNL     1      42.204 -15.857   6.657  1.00  0.00     0.142 C 
HETATM    9  C   UNL     1      42.986 -15.633   7.951  1.00  0.00     0.042 C 
BRANCH   8  10
HETATM   10  O   UNL     1      43.178 -15.812   5.600  1.00  0.00    -0.345 OA
BRANCH  10  11
HETATM   11  C   UNL     1      43.436 -16.944   4.881  1.00  0.00     0.070 A 
HETATM   12  C   UNL     1      43.809 -18.184   5.397  1.00  0.00     0.060 A 
HETATM   13  C   UNL     1      44.045 -19.253   4.528  1.00  0.00     0.036 A 
HETATM   14 CL   UNL     1      44.519 -20.779   5.170  1.00  0.00    -0.084 Cl
HETATM   15  C   UNL     1      43.900 -19.102   3.150  1.00  0.00     0.024 A 
HETATM   16  C   UNL     1      43.507 -17.869   2.633  1.00  0.00     0.004 A 
HETATM   17  C   UNL     1      43.276 -16.799   3.498  1.00  0.00     0.037 A 
ENDBRANCH  10  11
ENDBRANCH   8  10
ENDBRANCH   7   8
ENDBRANCH   3   7
BRANCH   1  18
HETATM   18  C   UNL     1      39.799 -14.045   1.738  1.00  0.00     0.059 A 
HETATM   19  C   UNL     1      39.336 -12.744   1.491  1.00  0.00    -0.032 A 
HETATM   20  C   UNL     1      38.748 -11.848   2.543  1.00  0.00     0.050 C 
HETATM   21  C   UNL     1      39.402 -12.255   0.177  1.00  0.00     0.028 A 
HETATM   22  C   UNL     1      39.861 -13.082  -0.837  1.00  0.00     0.117 A 
HETATM   23  N   UNL     1      40.252 -14.356  -0.641  1.00  0.00    -0.271 NA
HETATM   24  C   UNL     1      40.209 -14.802   0.636  1.00  0.00     0.146 A 
ENDBRANCH   1  18
TORSDOF 5
ENDMDL
MODEL 7
REMARK VINA RESULT:      -7.5      3.938      8.960
REMARK  5 active torsions:
REMARK  status: ('A' for Active; 'I' for Inactive)
REMARK    1  A    between atoms: C_3  and  N_4 
REMARK       I    between atoms: N_4  and  C_5 
REMARK       I    between atoms: C_5  and  N_6 
REMARK    2  A    between atoms: N_6  and  C_7 
REMARK    3  A    between atoms: C_7  and  C_8 
REMARK    4  A    between atoms: C_8  and  O_9 
REMARK    5  A    between atoms: O_9  and  C_10 
ROOT
HETATM    1  N   UNL     1      43.000 -11.610   7.334  1.00  0.00    -0.307 N 
HETATM    2  C   UNL     1      42.683 -11.788   6.004  1.00  0.00     0.320 C 
HETATM    3  N   UNL     1      42.217 -13.063   5.783  1.00  0.00    -0.340 N 
HETATM    4  O   UNL     1      42.754 -10.940   5.127  1.00  0.00    -0.247 OA
HETATM    5  H   UNL     1      42.311 -12.033   7.942  1.00  0.00     0.170 HD
HETATM    6  H   UNL     1      42.499 -13.767   6.451  1.00  0.00     0.164 HD
ENDROOT
BRANCH   3   7
HETATM    7  C   UNL     1      41.767 -13.505   4.473  1.00  0.00     0.156 C 
BRANCH   7   8
HETATM    8  C   UNL     1      42.788 -14.368   3.705  1.00  0.00     0.142 C 
HETATM    9  C   UNL     1      43.266 -13.700   2.416  1.00  0.00     0.042 C 
BRANCH   8  10
HETATM   10  O   UNL     1      42.147 -15.589   3.297  1.00  0.00    -0.345 OA
BRANCH  10  11
HETATM   11  C   UNL     1      42.814 -16.772   3.437  1.00  0.00     0.070 A 
HETATM   12  C   UNL     1      42.819 -17.830   2.530  1.00  0.00     0.060 A 
HETATM   13  C   UNL     1      43.551 -18.986   2.818  1.00  0.00     0.036 A 
HETATM   14 CL   UNL     1      43.543 -20.296   1.700  1.00  0.00    -0.084 Cl
HETATM   15  C   UNL     1      44.289 -19.091   3.996  1.00  0.00     0.024 A 
HETATM   16  C   UNL     1      44.301 -18.027   4.895  1.00  0.00     0.004 A 
HETATM   17  C   UNL     1      43.568 -16.874   4.612  1.00  0.00     0.037 A 
ENDBRANCH  10  11
ENDBRANCH   8  10
ENDBRANCH   7   8
ENDBRANCH   3   7
BRANCH   1  18
HETATM   18  C   UNL     1      43.641 -10.453   7.836  1.00  0.00     0.059 A 
HETATM   19  C   UNL     1      45.011 -10.183   7.703  1.00  0.00    -0.032 A 
HETATM   20  C   UNL     1      45.993 -11.117   7.055  1.00  0.00     0.050 C 
HETATM   21  C   UNL     1      45.503  -8.977   8.226  1.00  0.00     0.028 A 
HETATM   22  C   UNL     1      44.644  -8.126   8.904  1.00  0.00     0.117 A 
HETATM   23  N   UNL     1      43.338  -8.389   9.104  1.00  0.00    -0.271 NA
HETATM   24  C   UNL     1      42.874  -9.542   8.569  1.00  0.00     0.146 A 
ENDBRANCH   1  18
TORSDOF 5
ENDMDL
MODEL 8
REMARK VINA RESULT:      -7.4      2.862      4.025
REMARK  5 active torsions:
REMARK  status: ('A' for Active; 'I' for Inactive)
REMARK    1  A    between atoms: C_3  and  N_4 
REMARK       I    between atoms: N_4  and  C_5 
REMARK       I    between atoms: C_5  and  N_6 
REMARK    2  A    between atoms: N_6  and  C_7 
REMARK    3  A    between atoms: C_7  and  C_8 
REMARK    4  A    between atoms: C_8  and  O_9 
REMARK    5  A    between atoms: O_9  and  C_10 
ROOT
HETATM    1  N   UNL     1      43.611 -17.495   2.379  1.00  0.00    -0.307 N 
HETATM    2  C   UNL     1      42.497 -16.689   2.281  1.00  0.00     0.320 C 
HETATM    3  N   UNL     1      42.719 -15.661   1.394  1.00  0.00    -0.340 N 
HETATM    4  O   UNL     1      41.431 -16.860   2.855  1.00  0.00    -0.247 OA
HETATM    5  H   UNL     1      44.033 -17.660   1.475  1.00  0.00     0.170 HD
HETATM    6  H   UNL     1      43.683 -15.405   1.236  1.00  0.00     0.164 HD
ENDROOT
BRANCH   3   7
HETATM    7  C   UNL     1      41.690 -14.687   1.068  1.00  0.00     0.156 C 
BRANCH   7   8
HETATM    8  C   UNL     1      41.426 -13.643   2.172  1.00  0.00     0.142 C 
HETATM    9  C   UNL     1      40.426 -12.573   1.738  1.00  0.00     0.042 C 
BRANCH   8  10
HETATM   10  O   UNL     1      42.652 -12.943   2.449  1.00  0.00    -0.345 OA
BRANCH  10  11
HETATM   11  C   UNL     1      43.090 -12.850   3.739  1.00  0.00     0.070 A 
HETATM   12  C   UNL     1      42.869 -13.776   4.756  1.00  0.00     0.060 A 
HETATM   13  C   UNL     1      43.380 -13.536   6.035  1.00  0.00     0.036 A 
HETATM   14 CL   UNL     1      43.093 -14.677   7.291  1.00  0.00    -0.084 Cl
HETATM   15  C   UNL     1      44.121 -12.386   6.305  1.00  0.00     0.024 A 
HETATM   16  C   UNL     1      44.360 -11.469   5.285  1.00  0.00     0.004 A 
HETATM   17  C   UNL     1      43.847 -11.704   4.009  1.00  0.00     0.037 A 
ENDBRANCH  10  11
ENDBRANCH   8  10
ENDBRANCH   7   8
ENDBRANCH   3   7
BRANCH   1  18
HETATM   18  C   UNL     1      43.736 -18.544   3.320  1.00  0.00     0.059 A 
HETATM   19  C   UNL     1      43.727 -19.909   2.995  1.00  0.00    -0.032 A 
HETATM   20  C   UNL     1      43.525 -20.440   1.604  1.00  0.00     0.050 C 
HETATM   21  C   UNL     1      43.893 -20.839   4.033  1.00  0.00     0.028 A 
HETATM   22  C   UNL     1      43.999 -20.391   5.340  1.00  0.00     0.117 A 
HETATM   23  N   UNL     1      43.946 -19.091   5.690  1.00  0.00    -0.271 NA
HETATM   24  C   UNL     1      43.815 -18.207   4.675  1.00  0.00     0.146 A 
ENDBRANCH   1  18
TORSDOF 5
ENDMDL
MODEL 9
REMARK VINA RESULT:      -7.4      4.097      5.757
REMARK  5 active torsions:
REMARK  status: ('A' for Active; 'I' for Inactive)
REMARK    1  A    between atoms: C_3  and  N_4 
REMARK       I    between atoms: N_4  and  C_5 
REMARK       I    between atoms: C_5  and  N_6 
REMARK    2  A    between atoms: N_6  and  C_7 
REMARK    3  A    between atoms: C_7  and  C_8 
REMARK    4  A    between atoms: C_8  and  O_9 
REMARK    5  A    between atoms: O_9  and  C_10 
ROOT
HETATM    1  N   UNL     1      43.697 -16.740   4.720  1.00  0.00    -0.307 N 
HETATM    2  C   UNL     1      42.543 -16.129   5.161  1.00  0.00     0.320 C 
HETATM    3  N   UNL     1      42.811 -14.860   5.620  1.00  0.00    -0.340 N 
HETATM    4  O   UNL     1      41.417 -16.604   5.123  1.00  0.00    -0.247 OA
HETATM    5  H   UNL     1      44.281 -16.102   4.196  1.00  0.00     0.170 HD
HETATM    6  H   UNL     1      43.758 -14.682   5.922  1.00  0.00     0.164 HD
ENDROOT
BRANCH   3   7
HETATM    7  C   UNL     1      41.762 -13.977   6.101  1.00  0.00     0.156 C 
BRANCH   7   8
HETATM    8  C   UNL     1      41.207 -13.006   5.039  1.00  0.00     0.142 C 
HETATM    9  C   UNL     1      40.614 -11.740   5.655  1.00  0.00     0.042 C 
BRANCH   8  10
HETATM   10  O   UNL     1      40.121 -13.649   4.348  1.00  0.00    -0.345 OA
BRANCH  10  11
HETATM   11  C   UNL     1      40.221 -13.869   3.004  1.00  0.00     0.070 A 
HETATM   12  C   UNL     1      40.552 -12.925   2.035  1.00  0.00     0.060 A 
HETATM   13  C   UNL     1      40.609 -13.303   0.690  1.00  0.00     0.036 A 
HETATM   14 CL   UNL     1      41.005 -12.129  -0.505  1.00  0.00    -0.084 Cl
HETATM   15  C   UNL     1      40.354 -14.618   0.305  1.00  0.00     0.024 A 
HETATM   16  C   UNL     1      40.043 -15.568   1.274  1.00  0.00     0.004 A 
HETATM   17  C   UNL     1      39.980 -15.192   2.617  1.00  0.00     0.037 A 
ENDBRANCH  10  11
ENDBRANCH   8  10
ENDBRANCH   7   8
ENDBRANCH   3   7
BRANCH   1  18
HETATM   18  C   UNL     1      43.763 -18.099   4.331  1.00  0.00     0.059 A 
HETATM   19  C   UNL     1      43.516 -18.566   3.031  1.00  0.00    -0.032 A 
HETATM   20  C   UNL     1      43.092 -17.687   1.889  1.00  0.00     0.050 C 
HETATM   21  C   UNL     1      43.649 -19.941   2.784  1.00  0.00     0.028 A 
HETATM   22  C   UNL     1      43.958 -20.796   3.831  1.00  0.00     0.117 A 
HETATM   23  N   UNL     1      44.137 -20.385   5.101  1.00  0.00    -0.271 NA
HETATM   24  C   UNL     1      44.033 -19.053   5.316  1.00  0.00     0.146 A 
ENDBRANCH   1  18
TORSDOF 5
ENDMDL
MODEL 10
REMARK VINA RESULT:      -7.3      5.385      8.374
REMARK  5 active torsions:
REMARK  status: ('A' for Active; 'I' for Inactive)
REMARK    1  A    between atoms: C_3  and  N_4 
REMARK       I    between atoms: N_4  and  C_5 
REMARK       I    between atoms: C_5  and  N_6 
REMARK    2  A    between atoms: N_6  and  C_7 
REMARK    3  A    between atoms: C_7  and  C_8 
REMARK    4  A    between atoms: C_8  and  O_9 
REMARK    5  A    between atoms: O_9  and  C_10 
ROOT
HETATM    1  N   UNL     1      41.274 -13.897   0.412  1.00  0.00    -0.307 N 
HETATM    2  C   UNL     1      40.824 -13.936   1.715  1.00  0.00     0.320 C 
HETATM    3  N   UNL     1      41.823 -14.360   2.560  1.00  0.00    -0.340 N 
HETATM    4  O   UNL     1      39.714 -13.605   2.103  1.00  0.00    -0.247 OA
HETATM    5  H   UNL     1      42.212 -13.522   0.352  1.00  0.00     0.170 HD
HETATM    6  H   UNL     1      42.560 -14.912   2.145  1.00  0.00     0.164 HD
ENDROOT
BRANCH   3   7
HETATM    7  C   UNL     1      41.631 -14.448   3.998  1.00  0.00     0.156 C 
BRANCH   7   8
HETATM    8  C   UNL     1      42.474 -15.539   4.690  1.00  0.00     0.142 C 
HETATM    9  C   UNL     1      43.309 -14.988   5.845  1.00  0.00     0.042 C 
BRANCH   8  10
HETATM   10  O   UNL     1      43.419 -16.063   3.741  1.00  0.00    -0.345 OA
BRANCH  10  11
HETATM   11  C   UNL     1      43.517 -17.415   3.574  1.00  0.00     0.070 A 
HETATM   12  C   UNL     1      43.973 -18.333   4.518  1.00  0.00     0.060 A 
HETATM   13  C   UNL     1      44.021 -19.693   4.196  1.00  0.00     0.036 A 
HETATM   14 CL   UNL     1      44.597 -20.821   5.361  1.00  0.00    -0.084 Cl
HETATM   15  C   UNL     1      43.606 -20.147   2.945  1.00  0.00     0.024 A 
HETATM   16  C   UNL     1      43.131 -19.233   2.007  1.00  0.00     0.004 A 
HETATM   17  C   UNL     1      43.087 -17.875   2.325  1.00  0.00     0.037 A 
ENDBRANCH  10  11
ENDBRANCH   8  10
ENDBRANCH   7   8
ENDBRANCH   3   7
BRANCH   1  18
HETATM   18  C   UNL     1      40.434 -13.643  -0.698  1.00  0.00     0.059 A 
HETATM   19  C   UNL     1      40.382 -12.426  -1.393  1.00  0.00    -0.032 A 
HETATM   20  C   UNL     1      41.174 -11.207  -1.012  1.00  0.00     0.050 C 
HETATM   21  C   UNL     1      39.521 -12.329  -2.497  1.00  0.00     0.028 A 
HETATM   22  C   UNL     1      38.713 -13.405  -2.828  1.00  0.00     0.117 A 
HETATM   23  N   UNL     1      38.694 -14.564  -2.141  1.00  0.00    -0.271 NA
HETATM   24  C   UNL     1      39.551 -14.650  -1.097  1.00  0.00     0.146 A 
ENDBRANCH   1  18
TORSDOF 5
ENDMDL
