MODEL 1
REMARK VINA RESULT:      -7.2      0.000      0.000
REMARK  8 active torsions:
REMARK  status: ('A' for Active; 'I' for Inactive)
REMARK    1  A    between atoms: C_2  and  N_3 
REMARK    2  A    between atoms: C_2  and  C_17 
REMARK    3  A    between atoms: N_3  and  C_6 
REMARK    4  A    between atoms: C_6  and  C_7 
REMARK    5  A    between atoms: C_7  and  O_8 
REMARK    6  A    between atoms: C_7  and  C_9 
REMARK    7  A    between atoms: C_11  and  O_12 
REMARK    8  A    between atoms: C_17  and  C_18 
ROOT
HETATM    1  N   UNL     1      41.806 -12.493   5.799  1.00  0.00    -0.068 N 
HETATM    2  H   UNL     1      41.188 -13.223   6.213  1.00  0.00     0.277 HD
HETATM    3  H   UNL     1      41.546 -11.620   6.290  1.00  0.00     0.277 HD
ENDROOT
BRANCH   1   4
HETATM    4  C   UNL     1      43.227 -12.909   6.063  1.00  0.00     0.188 C 
HETATM    5  C   UNL     1      43.936 -11.823   6.865  1.00  0.00     0.040 C 
BRANCH   4   6
HETATM    6  C   UNL     1      43.251 -14.246   6.837  1.00  0.00     0.099 C 
BRANCH   6   7
HETATM    7  C   UNL     1      43.421 -15.416   5.915  1.00  0.00     0.078 A 
HETATM    8  S   UNL     1      44.248 -16.821   6.431  1.00  0.00    -0.073 SA
HETATM    9  C   UNL     1      43.960 -17.553   4.900  1.00  0.00     0.035 A 
HETATM   10  C   UNL     1      43.242 -16.662   4.098  1.00  0.00     0.074 A 
HETATM   11  C   UNL     1      44.343 -18.823   4.442  1.00  0.00     0.021 A 
HETATM   12  N   UNL     1      42.922 -15.447   4.696  1.00  0.00    -0.245 NA
HETATM   13  C   UNL     1      42.907 -17.053   2.785  1.00  0.00     0.033 A 
HETATM   14  C   UNL     1      43.283 -18.316   2.319  1.00  0.00     0.002 A 
HETATM   15  C   UNL     1      43.990 -19.190   3.139  1.00  0.00     0.002 A 
ENDBRANCH   6   7
ENDBRANCH   4   6
ENDBRANCH   1   4
BRANCH   1  16
HETATM   16  C   UNL     1      41.375 -12.321   4.368  1.00  0.00     0.269 C 
BRANCH  16  17
HETATM   17  C   UNL     1      40.106 -13.170   4.132  1.00  0.00     0.177 C 
BRANCH  17  18
HETATM   18  O   UNL     1      40.062 -14.157   5.176  1.00  0.00    -0.389 OA
HETATM   19  H   UNL     1      40.605 -13.803   5.910  1.00  0.00     0.210 HD
ENDBRANCH  17  18
BRANCH  17  20
HETATM   20  C   UNL     1      40.090 -13.824   2.768  1.00  0.00    -0.025 A 
HETATM   21  C   UNL     1      40.306 -13.029   1.625  1.00  0.00     0.046 A 
HETATM   22  C   UNL     1      40.308 -13.595   0.347  1.00  0.00     0.068 A 
HETATM   23  C   UNL     1      40.091 -14.965   0.208  1.00  0.00     0.037 A 
HETATM   24  C   UNL     1      39.875 -15.768   1.327  1.00  0.00     0.003 A 
HETATM   25  C   UNL     1      39.880 -15.202   2.602  1.00  0.00     0.010 A 
BRANCH  22  26
HETATM   26  O   UNL     1      40.515 -12.931  -0.827  1.00  0.00    -0.356 OA
HETATM   27  C   UNL     1      40.129 -13.584  -2.030  1.00  0.00     0.210 C 
ENDBRANCH  22  26
ENDBRANCH  17  20
ENDBRANCH  16  17
ENDBRANCH   1  16
TORSDOF 8
ENDMDL
MODEL 2
REMARK VINA RESULT:      -7.1      2.057      3.041
REMARK  8 active torsions:
REMARK  status: ('A' for Active; 'I' for Inactive)
REMARK    1  A    between atoms: C_2  and  N_3 
REMARK    2  A    between atoms: C_2  and  C_17 
REMARK    3  A    between atoms: N_3  and  C_6 
REMARK    4  A    between atoms: C_6  and  C_7 
REMARK    5  A    between atoms: C_7  and  O_8 
REMARK    6  A    between atoms: C_7  and  C_9 
REMARK    7  A    between atoms: C_11  and  O_12 
REMARK    8  A    between atoms: C_17  and  C_18 
ROOT
HETATM    1  N   UNL     1      40.765 -14.883   3.369  1.00  0.00    -0.068 N 
HETATM    2  H   UNL     1      41.358 -15.632   2.952  1.00  0.00     0.277 HD
HETATM    3  H   UNL     1      39.890 -15.365   3.642  1.00  0.00     0.277 HD
ENDROOT
BRANCH   1   4
HETATM    4  C   UNL     1      41.514 -14.323   4.547  1.00  0.00     0.188 C 
HETATM    5  C   UNL     1      40.952 -14.912   5.836  1.00  0.00     0.040 C 
BRANCH   4   6
HETATM    6  C   UNL     1      43.018 -14.649   4.420  1.00  0.00     0.099 C 
BRANCH   6   7
HETATM    7  C   UNL     1      43.250 -16.115   4.206  1.00  0.00     0.078 A 
HETATM    8  S   UNL     1      43.836 -17.100   5.475  1.00  0.00    -0.073 SA
HETATM    9  C   UNL     1      43.773 -18.473   4.439  1.00  0.00     0.035 A 
HETATM   10  C   UNL     1      43.301 -18.076   3.186  1.00  0.00     0.074 A 
HETATM   11  C   UNL     1      44.118 -19.805   4.715  1.00  0.00     0.021 A 
HETATM   12  N   UNL     1      42.986 -16.725   3.068  1.00  0.00    -0.245 NA
HETATM   13  C   UNL     1      43.182 -19.045   2.169  1.00  0.00     0.033 A 
HETATM   14  C   UNL     1      43.523 -20.375   2.433  1.00  0.00     0.002 A 
HETATM   15  C   UNL     1      43.983 -20.749   3.692  1.00  0.00     0.002 A 
ENDBRANCH   6   7
ENDBRANCH   4   6
ENDBRANCH   1   4
BRANCH   1  16
HETATM   16  C   UNL     1      40.403 -13.946   2.251  1.00  0.00     0.269 C 
BRANCH  16  17
HETATM   17  C   UNL     1      40.814 -14.596   0.911  1.00  0.00     0.177 C 
BRANCH  17  18
HETATM   18  O   UNL     1      42.209 -14.924   1.015  1.00  0.00    -0.389 OA
HETATM   19  H   UNL     1      42.690 -14.070   1.033  1.00  0.00     0.210 HD
ENDBRANCH  17  18
BRANCH  17  20
HETATM   20  C   UNL     1      40.557 -13.694  -0.276  1.00  0.00    -0.025 A 
HETATM   21  C   UNL     1      39.983 -14.243  -1.441  1.00  0.00     0.046 A 
HETATM   22  C   UNL     1      39.721 -13.443  -2.556  1.00  0.00     0.068 A 
HETATM   23  C   UNL     1      40.037 -12.085  -2.511  1.00  0.00     0.037 A 
HETATM   24  C   UNL     1      40.607 -11.526  -1.369  1.00  0.00     0.003 A 
HETATM   25  C   UNL     1      40.860 -12.324  -0.254  1.00  0.00     0.010 A 
BRANCH  22  26
HETATM   26  O   UNL     1      39.162 -13.857  -3.730  1.00  0.00    -0.356 OA
HETATM   27  C   UNL     1      38.094 -14.794  -3.656  1.00  0.00     0.210 C 
ENDBRANCH  22  26
ENDBRANCH  17  20
ENDBRANCH  16  17
ENDBRANCH   1  16
TORSDOF 8
ENDMDL
MODEL 3
REMARK VINA RESULT:      -7.1      2.135      3.045
REMARK  8 active torsions:
REMARK  status: ('A' for Active; 'I' for Inactive)
REMARK    1  A    between atoms: C_2  and  N_3 
REMARK    2  A    between atoms: C_2  and  C_17 
REMARK    3  A    between atoms: N_3  and  C_6 
REMARK    4  A    between atoms: C_6  and  C_7 
REMARK    5  A    between atoms: C_7  and  O_8 
REMARK    6  A    between atoms: C_7  and  C_9 
REMARK    7  A    between atoms: C_11  and  O_12 
REMARK    8  A    between atoms: C_17  and  C_18 
ROOT
HETATM    1  N   UNL     1      40.583 -15.036   3.195  1.00  0.00    -0.068 N 
HETATM    2  H   UNL     1      41.188 -15.789   2.803  1.00  0.00     0.277 HD
HETATM    3  H   UNL     1      39.780 -15.537   3.613  1.00  0.00     0.277 HD
ENDROOT
BRANCH   1   4
HETATM    4  C   UNL     1      41.401 -14.291   4.214  1.00  0.00     0.188 C 
HETATM    5  C   UNL     1      40.979 -14.717   5.616  1.00  0.00     0.040 C 
BRANCH   4   6
HETATM    6  C   UNL     1      42.903 -14.576   3.997  1.00  0.00     0.099 C 
BRANCH   6   7
HETATM    7  C   UNL     1      43.179 -16.046   3.905  1.00  0.00     0.078 A 
HETATM    8  S   UNL     1      43.853 -16.892   5.230  1.00  0.00    -0.073 SA
HETATM    9  C   UNL     1      43.798 -18.355   4.324  1.00  0.00     0.035 A 
HETATM   10  C   UNL     1      43.259 -18.089   3.063  1.00  0.00     0.074 A 
HETATM   11  C   UNL     1      44.202 -19.645   4.703  1.00  0.00     0.021 A 
HETATM   12  N   UNL     1      42.891 -16.765   2.839  1.00  0.00    -0.245 NA
HETATM   13  C   UNL     1      43.134 -19.150   2.143  1.00  0.00     0.033 A 
HETATM   14  C   UNL     1      43.534 -20.438   2.510  1.00  0.00     0.002 A 
HETATM   15  C   UNL     1      44.059 -20.681   3.775  1.00  0.00     0.002 A 
ENDBRANCH   6   7
ENDBRANCH   4   6
ENDBRANCH   1   4
BRANCH   1  16
HETATM   16  C   UNL     1      40.039 -14.264   2.024  1.00  0.00     0.269 C 
BRANCH  16  17
HETATM   17  C   UNL     1      40.419 -15.010   0.725  1.00  0.00     0.177 C 
BRANCH  17  18
HETATM   18  O   UNL     1      41.854 -15.039   0.663  1.00  0.00    -0.389 OA
HETATM   19  H   UNL     1      42.143 -15.713   1.313  1.00  0.00     0.210 HD
ENDBRANCH  17  18
BRANCH  17  20
HETATM   20  C   UNL     1      39.837 -14.358  -0.511  1.00  0.00    -0.025 A 
HETATM   21  C   UNL     1      39.874 -12.954  -0.625  1.00  0.00     0.046 A 
HETATM   22  C   UNL     1      39.357 -12.312  -1.753  1.00  0.00     0.068 A 
HETATM   23  C   UNL     1      38.795 -13.077  -2.774  1.00  0.00     0.037 A 
HETATM   24  C   UNL     1      38.747 -14.467  -2.678  1.00  0.00     0.003 A 
HETATM   25  C   UNL     1      39.271 -15.106  -1.555  1.00  0.00     0.010 A 
BRANCH  22  26
HETATM   26  O   UNL     1      39.346 -10.966  -1.979  1.00  0.00    -0.356 OA
HETATM   27  C   UNL     1      38.757 -10.507  -3.190  1.00  0.00     0.210 C 
ENDBRANCH  22  26
ENDBRANCH  17  20
ENDBRANCH  16  17
ENDBRANCH   1  16
TORSDOF 8
ENDMDL
MODEL 4
REMARK VINA RESULT:      -7.0      2.540      4.708
REMARK  8 active torsions:
REMARK  status: ('A' for Active; 'I' for Inactive)
REMARK    1  A    between atoms: C_2  and  N_3 
REMARK    2  A    between atoms: C_2  and  C_17 
REMARK    3  A    between atoms: N_3  and  C_6 
REMARK    4  A    between atoms: C_6  and  C_7 
REMARK    5  A    between atoms: C_7  and  O_8 
REMARK    6  A    between atoms: C_7  and  C_9 
REMARK    7  A    between atoms: C_11  and  O_12 
REMARK    8  A    between atoms: C_17  and  C_18 
ROOT
HETATM    1  N   UNL     1      38.937 -12.905   2.273  1.00  0.00    -0.068 N 
HETATM    2  H   UNL     1      39.085 -13.489   3.124  1.00  0.00     0.277 HD
HETATM    3  H   UNL     1      37.928 -13.000   2.064  1.00  0.00     0.277 HD
ENDROOT
BRANCH   1   4
HETATM    4  C   UNL     1      39.329 -11.496   2.625  1.00  0.00     0.188 C 
HETATM    5  C   UNL     1      38.183 -10.549   2.288  1.00  0.00     0.040 C 
BRANCH   4   6
HETATM    6  C   UNL     1      39.677 -11.403   4.127  1.00  0.00     0.099 C 
BRANCH   6   7
HETATM    7  C   UNL     1      40.526 -12.555   4.571  1.00  0.00     0.078 A 
HETATM    8  S   UNL     1      42.218 -12.376   4.748  1.00  0.00    -0.073 SA
HETATM    9  C   UNL     1      42.338 -14.015   5.258  1.00  0.00     0.035 A 
HETATM   10  C   UNL     1      41.064 -14.587   5.260  1.00  0.00     0.074 A 
HETATM   11  C   UNL     1      43.480 -14.743   5.629  1.00  0.00     0.021 A 
HETATM   12  N   UNL     1      40.029 -13.736   4.882  1.00  0.00    -0.245 NA
HETATM   13  C   UNL     1      40.929 -15.939   5.633  1.00  0.00     0.033 A 
HETATM   14  C   UNL     1      42.059 -16.674   6.005  1.00  0.00     0.002 A 
HETATM   15  C   UNL     1      43.318 -16.081   6.005  1.00  0.00     0.002 A 
ENDBRANCH   6   7
ENDBRANCH   4   6
ENDBRANCH   1   4
BRANCH   1  16
HETATM   16  C   UNL     1      39.670 -13.583   1.150  1.00  0.00     0.269 C 
BRANCH  16  17
HETATM   17  C   UNL     1      39.774 -15.091   1.469  1.00  0.00     0.177 C 
BRANCH  17  18
HETATM   18  O   UNL     1      38.945 -15.334   2.618  1.00  0.00    -0.389 OA
HETATM   19  H   UNL     1      39.156 -14.627   3.262  1.00  0.00     0.210 HD
ENDBRANCH  17  18
BRANCH  17  20
HETATM   20  C   UNL     1      41.198 -15.534   1.728  1.00  0.00    -0.025 A 
HETATM   21  C   UNL     1      41.442 -16.873   2.095  1.00  0.00     0.046 A 
HETATM   22  C   UNL     1      42.742 -17.325   2.333  1.00  0.00     0.068 A 
HETATM   23  C   UNL     1      43.808 -16.434   2.207  1.00  0.00     0.037 A 
HETATM   24  C   UNL     1      43.585 -15.106   1.847  1.00  0.00     0.003 A 
HETATM   25  C   UNL     1      42.288 -14.659   1.602  1.00  0.00     0.010 A 
BRANCH  22  26
HETATM   26  O   UNL     1      43.102 -18.594   2.683  1.00  0.00    -0.356 OA
HETATM   27  C   UNL     1      44.071 -18.745   3.712  1.00  0.00     0.210 C 
ENDBRANCH  22  26
ENDBRANCH  17  20
ENDBRANCH  16  17
ENDBRANCH   1  16
TORSDOF 8
ENDMDL
MODEL 5
REMARK VINA RESULT:      -7.0      3.181      6.628
REMARK  8 active torsions:
REMARK  status: ('A' for Active; 'I' for Inactive)
REMARK    1  A    between atoms: C_2  and  N_3 
REMARK    2  A    between atoms: C_2  and  C_17 
REMARK    3  A    between atoms: N_3  and  C_6 
REMARK    4  A    between atoms: C_6  and  C_7 
REMARK    5  A    between atoms: C_7  and  O_8 
REMARK    6  A    between atoms: C_7  and  C_9 
REMARK    7  A    between atoms: C_11  and  O_12 
REMARK    8  A    between atoms: C_17  and  C_18 
ROOT
HETATM    1  N   UNL     1      41.633 -13.022   6.335  1.00  0.00    -0.068 N 
HETATM    2  H   UNL     1      40.808 -12.493   6.690  1.00  0.00     0.277 HD
HETATM    3  H   UNL     1      41.925 -13.616   7.130  1.00  0.00     0.277 HD
ENDROOT
BRANCH   1   4
HETATM    4  C   UNL     1      41.174 -13.821   5.147  1.00  0.00     0.188 C 
HETATM    5  C   UNL     1      40.003 -13.111   4.477  1.00  0.00     0.040 C 
BRANCH   4   6
HETATM    6  C   UNL     1      42.337 -13.997   4.146  1.00  0.00     0.099 C 
BRANCH   6   7
HETATM    7  C   UNL     1      42.758 -15.430   4.033  1.00  0.00     0.078 A 
HETATM    8  S   UNL     1      43.507 -16.227   5.348  1.00  0.00    -0.073 SA
HETATM    9  C   UNL     1      43.601 -17.673   4.419  1.00  0.00     0.035 A 
HETATM   10  C   UNL     1      43.044 -17.442   3.159  1.00  0.00     0.074 A 
HETATM   11  C   UNL     1      44.130 -18.923   4.780  1.00  0.00     0.021 A 
HETATM   12  N   UNL     1      42.547 -16.158   2.954  1.00  0.00    -0.245 NA
HETATM   13  C   UNL     1      43.028 -18.495   2.222  1.00  0.00     0.033 A 
HETATM   14  C   UNL     1      43.553 -19.744   2.571  1.00  0.00     0.002 A 
HETATM   15  C   UNL     1      44.094 -19.953   3.836  1.00  0.00     0.002 A 
ENDBRANCH   6   7
ENDBRANCH   4   6
ENDBRANCH   1   4
BRANCH   1  16
HETATM   16  C   UNL     1      42.734 -12.018   6.128  1.00  0.00     0.269 C 
BRANCH  16  17
HETATM   17  C   UNL     1      43.958 -12.451   6.967  1.00  0.00     0.177 C 
BRANCH  17  18
HETATM   18  O   UNL     1      43.499 -13.450   7.893  1.00  0.00    -0.389 OA
HETATM   19  H   UNL     1      44.270 -13.680   8.452  1.00  0.00     0.210 HD
ENDBRANCH  17  18
BRANCH  17  20
HETATM   20  C   UNL     1      44.602 -11.292   7.696  1.00  0.00    -0.025 A 
HETATM   21  C   UNL     1      44.031 -10.841   8.903  1.00  0.00     0.046 A 
HETATM   22  C   UNL     1      44.600  -9.780   9.612  1.00  0.00     0.068 A 
HETATM   23  C   UNL     1      45.746  -9.163   9.112  1.00  0.00     0.037 A 
HETATM   24  C   UNL     1      46.323  -9.594   7.920  1.00  0.00     0.003 A 
HETATM   25  C   UNL     1      45.759 -10.658   7.217  1.00  0.00     0.010 A 
BRANCH  22  26
HETATM   26  O   UNL     1      44.145  -9.265  10.791  1.00  0.00    -0.356 OA
HETATM   27  C   UNL     1      43.083  -9.950  11.443  1.00  0.00     0.210 C 
ENDBRANCH  22  26
ENDBRANCH  17  20
ENDBRANCH  16  17
ENDBRANCH   1  16
TORSDOF 8
ENDMDL
MODEL 6
REMARK VINA RESULT:      -6.9      2.404      5.007
REMARK  8 active torsions:
REMARK  status: ('A' for Active; 'I' for Inactive)
REMARK    1  A    between atoms: C_2  and  N_3 
REMARK    2  A    between atoms: C_2  and  C_17 
REMARK    3  A    between atoms: N_3  and  C_6 
REMARK    4  A    between atoms: C_6  and  C_7 
REMARK    5  A    between atoms: C_7  and  O_8 
REMARK    6  A    between atoms: C_7  and  C_9 
REMARK    7  A    between atoms: C_11  and  O_12 
REMARK    8  A    between atoms: C_17  and  C_18 
ROOT
HETATM    1  N   UNL     1      42.193 -13.394   6.782  1.00  0.00    -0.068 N 
HETATM    2  H   UNL     1      42.058 -13.216   7.801  1.00  0.00     0.277 HD
HETATM    3  H   UNL     1      41.327 -13.875   6.484  1.00  0.00     0.277 HD
ENDROOT
BRANCH   1   4
HETATM    4  C   UNL     1      42.377 -12.058   6.116  1.00  0.00     0.188 C 
HETATM    5  C   UNL     1      43.518 -12.144   5.108  1.00  0.00     0.040 C 
BRANCH   4   6
HETATM    6  C   UNL     1      41.071 -11.634   5.411  1.00  0.00     0.099 C 
BRANCH   6   7
HETATM    7  C   UNL     1      40.808 -12.462   4.190  1.00  0.00     0.078 A 
HETATM    8  S   UNL     1      40.928 -11.778   2.627  1.00  0.00    -0.073 SA
HETATM    9  C   UNL     1      40.528 -13.300   1.929  1.00  0.00     0.035 A 
HETATM   10  C   UNL     1      40.333 -14.232   2.951  1.00  0.00     0.074 A 
HETATM   11  C   UNL     1      40.396 -13.643   0.574  1.00  0.00     0.021 A 
HETATM   12  N   UNL     1      40.514 -13.746   4.243  1.00  0.00    -0.245 NA
HETATM   13  C   UNL     1      39.979 -15.552   2.604  1.00  0.00     0.033 A 
HETATM   14  C   UNL     1      39.845 -15.904   1.258  1.00  0.00     0.002 A 
HETATM   15  C   UNL     1      40.054 -14.961   0.257  1.00  0.00     0.002 A 
ENDBRANCH   6   7
ENDBRANCH   4   6
ENDBRANCH   1   4
BRANCH   1  16
HETATM   16  C   UNL     1      43.303 -14.402   6.662  1.00  0.00     0.269 C 
BRANCH  16  17
HETATM   17  C   UNL     1      42.708 -15.814   6.862  1.00  0.00     0.177 C 
BRANCH  17  18
HETATM   18  O   UNL     1      43.139 -16.271   8.155  1.00  0.00    -0.389 OA
HETATM   19  H   UNL     1      43.524 -15.491   8.607  1.00  0.00     0.210 HD
ENDBRANCH  17  18
BRANCH  17  20
HETATM   20  C   UNL     1      43.130 -16.781   5.778  1.00  0.00    -0.025 A 
HETATM   21  C   UNL     1      43.035 -16.382   4.430  1.00  0.00     0.046 A 
HETATM   22  C   UNL     1      43.422 -17.241   3.399  1.00  0.00     0.068 A 
HETATM   23  C   UNL     1      43.907 -18.510   3.714  1.00  0.00     0.037 A 
HETATM   24  C   UNL     1      44.006 -18.923   5.042  1.00  0.00     0.003 A 
HETATM   25  C   UNL     1      43.626 -18.062   6.070  1.00  0.00     0.010 A 
BRANCH  22  26
HETATM   26  O   UNL     1      43.385 -16.963   2.063  1.00  0.00    -0.356 OA
HETATM   27  C   UNL     1      43.533 -15.605   1.669  1.00  0.00     0.210 C 
ENDBRANCH  22  26
ENDBRANCH  17  20
ENDBRANCH  16  17
ENDBRANCH   1  16
TORSDOF 8
ENDMDL
MODEL 7
REMARK VINA RESULT:      -6.8      2.547      4.769
REMARK  8 active torsions:
REMARK  status: ('A' for Active; 'I' for Inactive)
REMARK    1  A    between atoms: C_2  and  N_3 
REMARK    2  A    between atoms: C_2  and  C_17 
REMARK    3  A    between atoms: N_3  and  C_6 
REMARK    4  A    between atoms: C_6  and  C_7 
REMARK    5  A    between atoms: C_7  and  O_8 
REMARK    6  A    between atoms: C_7  and  C_9 
REMARK    7  A    between atoms: C_11  and  O_12 
REMARK    8  A    between atoms: C_17  and  C_18 
ROOT
HETATM    1  N   UNL     1      40.500 -14.197   3.240  1.00  0.00    -0.068 N 
HETATM    2  H   UNL     1      39.702 -14.525   2.656  1.00  0.00     0.277 HD
HETATM    3  H   UNL     1      40.669 -14.969   3.909  1.00  0.00     0.277 HD
ENDROOT
BRANCH   1   4
HETATM    4  C   UNL     1      41.663 -13.962   2.315  1.00  0.00     0.188 C 
HETATM    5  C   UNL     1      41.692 -12.497   1.895  1.00  0.00     0.040 C 
BRANCH   4   6
HETATM    6  C   UNL     1      42.984 -14.343   3.019  1.00  0.00     0.099 C 
BRANCH   6   7
HETATM    7  C   UNL     1      43.166 -15.829   3.089  1.00  0.00     0.078 A 
HETATM    8  S   UNL     1      42.828 -16.815   1.733  1.00  0.00    -0.073 SA
HETATM    9  C   UNL     1      43.295 -18.208   2.629  1.00  0.00     0.035 A 
HETATM   10  C   UNL     1      43.683 -17.815   3.912  1.00  0.00     0.074 A 
HETATM   11  C   UNL     1      43.316 -19.552   2.225  1.00  0.00     0.021 A 
HETATM   12  N   UNL     1      43.623 -16.447   4.160  1.00  0.00    -0.245 NA
HETATM   13  C   UNL     1      44.094 -18.805   4.828  1.00  0.00     0.033 A 
HETATM   14  C   UNL     1      44.119 -20.147   4.436  1.00  0.00     0.002 A 
HETATM   15  C   UNL     1      43.736 -20.514   3.149  1.00  0.00     0.002 A 
ENDBRANCH   6   7
ENDBRANCH   4   6
ENDBRANCH   1   4
BRANCH   1  16
HETATM   16  C   UNL     1      39.995 -13.035   4.050  1.00  0.00     0.269 C 
BRANCH  16  17
HETATM   17  C   UNL     1      39.776 -13.508   5.504  1.00  0.00     0.177 C 
BRANCH  17  18
HETATM   18  O   UNL     1      39.264 -12.382   6.238  1.00  0.00    -0.389 OA
HETATM   19  H   UNL     1      38.893 -12.744   7.069  1.00  0.00     0.210 HD
ENDBRANCH  17  18
BRANCH  17  20
HETATM   20  C   UNL     1      41.043 -14.037   6.141  1.00  0.00    -0.025 A 
HETATM   21  C   UNL     1      42.182 -13.209   6.187  1.00  0.00     0.046 A 
HETATM   22  C   UNL     1      43.370 -13.655   6.774  1.00  0.00     0.068 A 
HETATM   23  C   UNL     1      43.421 -14.939   7.316  1.00  0.00     0.037 A 
HETATM   24  C   UNL     1      42.305 -15.773   7.277  1.00  0.00     0.003 A 
HETATM   25  C   UNL     1      41.119 -15.323   6.698  1.00  0.00     0.010 A 
BRANCH  22  26
HETATM   26  O   UNL     1      44.529 -12.943   6.887  1.00  0.00    -0.356 OA
HETATM   27  C   UNL     1      44.440 -11.616   7.390  1.00  0.00     0.210 C 
ENDBRANCH  22  26
ENDBRANCH  17  20
ENDBRANCH  16  17
ENDBRANCH   1  16
TORSDOF 8
ENDMDL
MODEL 8
REMARK VINA RESULT:      -6.7      1.791      2.312
REMARK  8 active torsions:
REMARK  status: ('A' for Active; 'I' for Inactive)
REMARK    1  A    between atoms: C_2  and  N_3 
REMARK    2  A    between atoms: C_2  and  C_17 
REMARK    3  A    between atoms: N_3  and  C_6 
REMARK    4  A    between atoms: C_6  and  C_7 
REMARK    5  A    between atoms: C_7  and  O_8 
REMARK    6  A    between atoms: C_7  and  C_9 
REMARK    7  A    between atoms: C_11  and  O_12 
REMARK    8  A    between atoms: C_17  and  C_18 
ROOT
HETATM    1  N   UNL     1      40.537 -11.255   5.273  1.00  0.00    -0.068 N 
HETATM    2  H   UNL     1      40.502 -12.176   5.759  1.00  0.00     0.277 HD
HETATM    3  H   UNL     1      39.869 -10.659   5.792  1.00  0.00     0.277 HD
ENDROOT
BRANCH   1   4
HETATM    4  C   UNL     1      41.954 -10.756   5.362  1.00  0.00     0.188 C 
HETATM    5  C   UNL     1      42.017  -9.571   6.320  1.00  0.00     0.040 C 
BRANCH   4   6
HETATM    6  C   UNL     1      42.883 -11.888   5.851  1.00  0.00     0.099 C 
BRANCH   6   7
HETATM    7  C   UNL     1      42.977 -12.999   4.848  1.00  0.00     0.078 A 
HETATM    8  S   UNL     1      43.328 -12.667   3.208  1.00  0.00    -0.073 SA
HETATM    9  C   UNL     1      43.266 -14.350   2.854  1.00  0.00     0.035 A 
HETATM   10  C   UNL     1      42.982 -15.052   4.028  1.00  0.00     0.074 A 
HETATM   11  C   UNL     1      43.455 -15.002   1.625  1.00  0.00     0.021 A 
HETATM   12  N   UNL     1      42.836 -14.269   5.169  1.00  0.00    -0.245 NA
HETATM   13  C   UNL     1      42.870 -16.456   3.966  1.00  0.00     0.033 A 
HETATM   14  C   UNL     1      43.056 -17.116   2.747  1.00  0.00     0.002 A 
HETATM   15  C   UNL     1      43.347 -16.396   1.593  1.00  0.00     0.002 A 
ENDBRANCH   6   7
ENDBRANCH   4   6
ENDBRANCH   1   4
BRANCH   1  16
HETATM   16  C   UNL     1      39.948 -11.465   3.905  1.00  0.00     0.269 C 
BRANCH  16  17
HETATM   17  C   UNL     1      39.266 -12.851   3.872  1.00  0.00     0.177 C 
BRANCH  17  18
HETATM   18  O   UNL     1      39.759 -13.588   5.003  1.00  0.00    -0.389 OA
HETATM   19  H   UNL     1      39.363 -13.170   5.796  1.00  0.00     0.210 HD
ENDBRANCH  17  18
BRANCH  17  20
HETATM   20  C   UNL     1      39.531 -13.598   2.583  1.00  0.00    -0.025 A 
HETATM   21  C   UNL     1      39.670 -12.868   1.386  1.00  0.00     0.046 A 
HETATM   22  C   UNL     1      39.924 -13.518   0.175  1.00  0.00     0.068 A 
HETATM   23  C   UNL     1      40.037 -14.908   0.158  1.00  0.00     0.037 A 
HETATM   24  C   UNL     1      39.900 -15.647   1.332  1.00  0.00     0.003 A 
HETATM   25  C   UNL     1      39.654 -14.996   2.540  1.00  0.00     0.010 A 
BRANCH  22  26
HETATM   26  O   UNL     1      40.088 -12.920  -1.041  1.00  0.00    -0.356 OA
HETATM   27  C   UNL     1      41.081 -11.908  -1.148  1.00  0.00     0.210 C 
ENDBRANCH  22  26
ENDBRANCH  17  20
ENDBRANCH  16  17
ENDBRANCH   1  16
TORSDOF 8
ENDMDL
MODEL 9
REMARK VINA RESULT:      -6.7      3.442      6.676
REMARK  8 active torsions:
REMARK  status: ('A' for Active; 'I' for Inactive)
REMARK    1  A    between atoms: C_2  and  N_3 
REMARK    2  A    between atoms: C_2  and  C_17 
REMARK    3  A    between atoms: N_3  and  C_6 
REMARK    4  A    between atoms: C_6  and  C_7 
REMARK    5  A    between atoms: C_7  and  O_8 
REMARK    6  A    between atoms: C_7  and  C_9 
REMARK    7  A    between atoms: C_11  and  O_12 
REMARK    8  A    between atoms: C_17  and  C_18 
ROOT
HETATM    1  N   UNL     1      41.552 -13.873   6.472  1.00  0.00    -0.068 N 
HETATM    2  H   UNL     1      42.541 -13.556   6.386  1.00  0.00     0.277 HD
HETATM    3  H   UNL     1      41.225 -13.470   7.367  1.00  0.00     0.277 HD
ENDROOT
BRANCH   1   4
HETATM    4  C   UNL     1      40.805 -13.336   5.281  1.00  0.00     0.188 C 
HETATM    5  C   UNL     1      39.486 -12.726   5.741  1.00  0.00     0.040 C 
BRANCH   4   6
HETATM    6  C   UNL     1      41.661 -12.274   4.556  1.00  0.00     0.099 C 
BRANCH   6   7
HETATM    7  C   UNL     1      42.582 -11.565   5.502  1.00  0.00     0.078 A 
HETATM    8  S   UNL     1      42.015 -10.278   6.474  1.00  0.00    -0.073 SA
HETATM    9  C   UNL     1      43.579 -10.116   7.174  1.00  0.00     0.035 A 
HETATM   10  C   UNL     1      44.430 -11.070   6.611  1.00  0.00     0.074 A 
HETATM   11  C   UNL     1      44.020  -9.209   8.150  1.00  0.00     0.021 A 
HETATM   12  N   UNL     1      43.844 -11.909   5.667  1.00  0.00    -0.245 NA
HETATM   13  C   UNL     1      45.775 -11.109   7.031  1.00  0.00     0.033 A 
HETATM   14  C   UNL     1      46.226 -10.210   8.004  1.00  0.00     0.002 A 
HETATM   15  C   UNL     1      45.357  -9.274   8.556  1.00  0.00     0.002 A 
ENDBRANCH   6   7
ENDBRANCH   4   6
ENDBRANCH   1   4
BRANCH   1  16
HETATM   16  C   UNL     1      41.591 -15.364   6.666  1.00  0.00     0.269 C 
BRANCH  16  17
HETATM   17  C   UNL     1      43.051 -15.843   6.503  1.00  0.00     0.177 C 
BRANCH  17  18
HETATM   18  O   UNL     1      43.883 -14.671   6.545  1.00  0.00    -0.389 OA
HETATM   19  H   UNL     1      43.739 -14.265   7.424  1.00  0.00     0.210 HD
ENDBRANCH  17  18
BRANCH  17  20
HETATM   20  C   UNL     1      43.269 -16.615   5.219  1.00  0.00    -0.025 A 
HETATM   21  C   UNL     1      43.677 -17.962   5.293  1.00  0.00     0.046 A 
HETATM   22  C   UNL     1      43.880 -18.714   4.132  1.00  0.00     0.068 A 
HETATM   23  C   UNL     1      43.679 -18.116   2.889  1.00  0.00     0.037 A 
HETATM   24  C   UNL     1      43.278 -16.784   2.797  1.00  0.00     0.003 A 
HETATM   25  C   UNL     1      43.068 -16.038   3.956  1.00  0.00     0.010 A 
BRANCH  22  26
HETATM   26  O   UNL     1      44.263 -20.023   4.078  1.00  0.00    -0.356 OA
HETATM   27  C   UNL     1      44.062 -20.816   5.241  1.00  0.00     0.210 C 
ENDBRANCH  22  26
ENDBRANCH  17  20
ENDBRANCH  16  17
ENDBRANCH   1  16
TORSDOF 8
ENDMDL
MODEL 10
REMARK VINA RESULT:      -6.7      2.574      6.239
REMARK  8 active torsions:
REMARK  status: ('A' for Active; 'I' for Inactive)
REMARK    1  A    between atoms: C_2  and  N_3 
REMARK    2  A    between atoms: C_2  and  C_17 
REMARK    3  A    between atoms: N_3  and  C_6 
REMARK    4  A    between atoms: C_6  and  C_7 
REMARK    5  A    between atoms: C_7  and  O_8 
REMARK    6  A    between atoms: C_7  and  C_9 
REMARK    7  A    between atoms: C_11  and  O_12 
REMARK    8  A    between atoms: C_17  and  C_18 
ROOT
HETATM    1  N   UNL     1      39.379 -13.956   0.384  1.00  0.00    -0.068 N 
HETATM    2  H   UNL     1      39.049 -13.593   1.304  1.00  0.00     0.277 HD
HETATM    3  H   UNL     1      38.578 -14.496   0.013  1.00  0.00     0.277 HD
ENDROOT
BRANCH   1   4
HETATM    4  C   UNL     1      39.724 -12.765  -0.467  1.00  0.00     0.188 C 
HETATM    5  C   UNL     1      38.639 -12.558  -1.518  1.00  0.00     0.040 C 
BRANCH   4   6
HETATM    6  C   UNL     1      39.861 -11.505   0.416  1.00  0.00     0.099 C 
BRANCH   6   7
HETATM    7  C   UNL     1      40.328 -11.847   1.799  1.00  0.00     0.078 A 
HETATM    8  S   UNL     1      41.992 -11.811   2.192  1.00  0.00    -0.073 SA
HETATM    9  C   UNL     1      41.619 -12.265   3.810  1.00  0.00     0.035 A 
HETATM   10  C   UNL     1      40.235 -12.409   3.935  1.00  0.00     0.074 A 
HETATM   11  C   UNL     1      42.490 -12.479   4.890  1.00  0.00     0.021 A 
HETATM   12  N   UNL     1      39.502 -12.149   2.781  1.00  0.00    -0.245 NA
HETATM   13  C   UNL     1      39.705 -12.795   5.183  1.00  0.00     0.033 A 
HETATM   14  C   UNL     1      40.564 -13.011   6.266  1.00  0.00     0.002 A 
HETATM   15  C   UNL     1      41.938 -12.852   6.120  1.00  0.00     0.002 A 
ENDBRANCH   6   7
ENDBRANCH   4   6
ENDBRANCH   1   4
BRANCH   1  16
HETATM   16  C   UNL     1      40.466 -14.953   0.677  1.00  0.00     0.269 C 
BRANCH  16  17
HETATM   17  C   UNL     1      39.989 -15.878   1.819  1.00  0.00     0.177 C 
BRANCH  17  18
HETATM   18  O   UNL     1      38.920 -15.194   2.494  1.00  0.00    -0.389 OA
HETATM   19  H   UNL     1      38.583 -14.524   1.864  1.00  0.00     0.210 HD
ENDBRANCH  17  18
BRANCH  17  20
HETATM   20  C   UNL     1      41.100 -16.231   2.784  1.00  0.00    -0.025 A 
HETATM   21  C   UNL     1      40.859 -16.133   4.170  1.00  0.00     0.046 A 
HETATM   22  C   UNL     1      41.855 -16.457   5.095  1.00  0.00     0.068 A 
HETATM   23  C   UNL     1      43.101 -16.880   4.635  1.00  0.00     0.037 A 
HETATM   24  C   UNL     1      43.358 -16.982   3.269  1.00  0.00     0.003 A 
HETATM   25  C   UNL     1      42.361 -16.664   2.347  1.00  0.00     0.010 A 
BRANCH  22  26
HETATM   26  O   UNL     1      41.736 -16.412   6.454  1.00  0.00    -0.356 OA
HETATM   27  C   UNL     1      42.924 -16.225   7.212  1.00  0.00     0.210 C 
ENDBRANCH  22  26
ENDBRANCH  17  20
ENDBRANCH  16  17
ENDBRANCH   1  16
TORSDOF 8
ENDMDL
