MODEL 1
REMARK VINA RESULT:      -9.4      0.000      0.000
REMARK  5 active torsions:
REMARK  status: ('A' for Active; 'I' for Inactive)
REMARK    1  A    between atoms: C_7  and  C_8 
REMARK    2  A    between atoms: C_16  and  C_17 
REMARK    3  A    between atoms: C_20  and  O_21 
REMARK    4  A    between atoms: C_24  and  C_25 
REMARK       I    between atoms: C_25  and  N_26 
REMARK    5  A    between atoms: N_26  and  C_27 
ROOT
HETATM    1  C   UNL     1      39.581  -9.637   4.516  1.00  0.00     0.070 C 
HETATM    2  C   UNL     1      40.529 -10.751   4.897  1.00  0.00     0.037 A 
HETATM    3  N   UNL     1      40.677 -11.749   3.938  1.00  0.00    -0.192 N 
HETATM    4  C   UNL     1      41.379 -12.876   4.139  1.00  0.00     0.726 A 
HETATM    5  N   UNL     1      42.062 -13.030   5.306  1.00  0.00    -0.083 N 
HETATM    6  N   UNL     1      42.602 -14.261   5.406  1.00  0.00    -0.135 NA
HETATM    7  C   UNL     1      42.298 -14.779   4.200  1.00  0.00     0.199 A 
HETATM    8  N   UNL     1      41.527 -13.947   3.406  1.00  0.00    -0.041 NA
HETATM    9  C   UNL     1      42.098 -12.029   6.376  1.00  0.00     0.202 A 
HETATM   10  C   UNL     1      41.185 -10.835   6.089  1.00  0.00     0.062 A 
HETATM   11  H   UNL     1      40.142 -11.659   3.079  1.00  0.00     0.184 HD
ENDROOT
BRANCH  10  12
HETATM   12  C   UNL     1      41.057  -9.742   7.118  1.00  0.00     0.256 C 
HETATM   13  N   UNL     1      40.316 -10.057   8.241  1.00  0.00    -0.323 N 
HETATM   14  H   UNL     1      40.022 -11.009   8.388  1.00  0.00     0.169 HD
HETATM   15  O   UNL     1      41.629  -8.671   6.942  1.00  0.00    -0.267 OA
BRANCH  13  16
HETATM   16  C   UNL     1      39.960  -9.185   9.296  1.00  0.00     0.035 A 
HETATM   17  C   UNL     1      39.032  -8.149   9.177  1.00  0.00     0.029 A 
HETATM   18  C   UNL     1      38.711  -7.353  10.282  1.00  0.00     0.002 A 
HETATM   19  C   UNL     1      39.320  -7.581  11.514  1.00  0.00     0.000 A 
HETATM   20  C   UNL     1      40.248  -8.610  11.643  1.00  0.00     0.002 A 
HETATM   21  C   UNL     1      40.561  -9.411  10.542  1.00  0.00     0.029 A 
ENDBRANCH  13  16
ENDBRANCH  10  12
BRANCH   9  22
HETATM   22  C   UNL     1      43.550 -11.652   6.663  1.00  0.00    -0.028 A 
HETATM   23  C   UNL     1      43.982 -11.291   7.952  1.00  0.00     0.012 A 
HETATM   24  C   UNL     1      45.310 -10.921   8.181  1.00  0.00     0.037 A 
HETATM   25  C   UNL     1      46.208 -10.898   7.120  1.00  0.00     0.065 A 
HETATM   26  C   UNL     1      45.803 -11.239   5.837  1.00  0.00     0.037 A 
HETATM   27  C   UNL     1      44.478 -11.610   5.606  1.00  0.00     0.012 A 
BRANCH  25  28
HETATM   28  O   UNL     1      47.510 -10.533   7.298  1.00  0.00    -0.361 OA
HETATM   29  H   UNL     1      47.573  -9.567   7.227  1.00  0.00     0.217 HD
ENDBRANCH  25  28
ENDBRANCH   9  22
BRANCH   7  30
HETATM   30  C   UNL     1      42.719 -16.106   3.759  1.00  0.00     0.014 A 
HETATM   31  C   UNL     1      42.289 -16.626   2.528  1.00  0.00     0.017 A 
HETATM   32  C   UNL     1      42.690 -17.901   2.113  1.00  0.00     0.025 A 
HETATM   33  C   UNL     1      43.523 -18.663   2.929  1.00  0.00     0.034 A 
HETATM   34 CL   UNL     1      44.013 -20.232   2.421  1.00  0.00    -0.084 Cl
HETATM   35  C   UNL     1      43.960 -18.162   4.153  1.00  0.00     0.025 A 
HETATM   36  C   UNL     1      43.558 -16.888   4.567  1.00  0.00     0.017 A 
ENDBRANCH   7  30
TORSDOF 5
ENDMDL
MODEL 2
REMARK VINA RESULT:      -9.3      1.624      2.027
REMARK  5 active torsions:
REMARK  status: ('A' for Active; 'I' for Inactive)
REMARK    1  A    between atoms: C_7  and  C_8 
REMARK    2  A    between atoms: C_16  and  C_17 
REMARK    3  A    between atoms: C_20  and  O_21 
REMARK    4  A    between atoms: C_24  and  C_25 
REMARK       I    between atoms: C_25  and  N_26 
REMARK    5  A    between atoms: N_26  and  C_27 
ROOT
HETATM    1  C   UNL     1      39.355  -9.921   4.434  1.00  0.00     0.070 C 
HETATM    2  C   UNL     1      40.358 -10.990   4.804  1.00  0.00     0.037 A 
HETATM    3  N   UNL     1      40.500 -12.011   3.868  1.00  0.00    -0.192 N 
HETATM    4  C   UNL     1      41.250 -13.106   4.069  1.00  0.00     0.726 A 
HETATM    5  N   UNL     1      41.988 -13.201   5.208  1.00  0.00    -0.083 N 
HETATM    6  N   UNL     1      42.575 -14.409   5.319  1.00  0.00    -0.135 NA
HETATM    7  C   UNL     1      42.237 -14.974   4.143  1.00  0.00     0.199 A 
HETATM    8  N   UNL     1      41.404 -14.193   3.360  1.00  0.00    -0.041 NA
HETATM    9  C   UNL     1      42.034 -12.169   6.247  1.00  0.00     0.202 A 
HETATM   10  C   UNL     1      41.067 -11.016   5.967  1.00  0.00     0.062 A 
HETATM   11  H   UNL     1      39.926 -11.964   3.030  1.00  0.00     0.184 HD
ENDROOT
BRANCH  10  12
HETATM   12  C   UNL     1      40.945  -9.898   6.970  1.00  0.00     0.256 C 
HETATM   13  N   UNL     1      41.831  -8.848   6.810  1.00  0.00    -0.323 N 
HETATM   14  H   UNL     1      42.403  -8.806   5.983  1.00  0.00     0.169 HD
HETATM   15  O   UNL     1      40.071  -9.944   7.830  1.00  0.00    -0.267 OA
BRANCH  13  16
HETATM   16  C   UNL     1      41.994  -7.737   7.669  1.00  0.00     0.035 A 
HETATM   17  C   UNL     1      41.379  -6.499   7.476  1.00  0.00     0.029 A 
HETATM   18  C   UNL     1      41.568  -5.461   8.395  1.00  0.00     0.002 A 
HETATM   19  C   UNL     1      42.377  -5.650   9.512  1.00  0.00     0.000 A 
HETATM   20  C   UNL     1      42.996  -6.879   9.715  1.00  0.00     0.002 A 
HETATM   21  C   UNL     1      42.801  -7.919   8.802  1.00  0.00     0.029 A 
ENDBRANCH  13  16
ENDBRANCH  10  12
BRANCH   9  22
HETATM   22  C   UNL     1      43.483 -11.733   6.459  1.00  0.00    -0.028 A 
HETATM   23  C   UNL     1      44.394 -11.642   5.392  1.00  0.00     0.012 A 
HETATM   24  C   UNL     1      45.721 -11.270   5.618  1.00  0.00     0.037 A 
HETATM   25  C   UNL     1      46.147 -11.001   6.914  1.00  0.00     0.065 A 
HETATM   26  C   UNL     1      45.270 -11.096   7.986  1.00  0.00     0.037 A 
HETATM   27  C   UNL     1      43.943 -11.465   7.762  1.00  0.00     0.012 A 
BRANCH  25  28
HETATM   28  O   UNL     1      47.436 -10.646   7.180  1.00  0.00    -0.361 OA
HETATM   29  H   UNL     1      47.626 -10.841   8.112  1.00  0.00     0.217 HD
ENDBRANCH  25  28
ENDBRANCH   9  22
BRANCH   7  30
HETATM   30  C   UNL     1      42.687 -16.298   3.721  1.00  0.00     0.014 A 
HETATM   31  C   UNL     1      43.607 -17.025   4.493  1.00  0.00     0.017 A 
HETATM   32  C   UNL     1      44.040 -18.290   4.081  1.00  0.00     0.025 A 
HETATM   33  C   UNL     1      43.555 -18.834   2.893  1.00  0.00     0.034 A 
HETATM   34 CL   UNL     1      44.090 -20.388   2.385  1.00  0.00    -0.084 Cl
HETATM   35  C   UNL     1      42.641 -18.126   2.116  1.00  0.00     0.025 A 
HETATM   36  C   UNL     1      42.209 -16.862   2.529  1.00  0.00     0.017 A 
ENDBRANCH   7  30
TORSDOF 5
ENDMDL
MODEL 3
REMARK VINA RESULT:      -9.1      5.133      7.959
REMARK  5 active torsions:
REMARK  status: ('A' for Active; 'I' for Inactive)
REMARK    1  A    between atoms: C_7  and  C_8 
REMARK    2  A    between atoms: C_16  and  C_17 
REMARK    3  A    between atoms: C_20  and  O_21 
REMARK    4  A    between atoms: C_24  and  C_25 
REMARK       I    between atoms: C_25  and  N_26 
REMARK    5  A    between atoms: N_26  and  C_27 
ROOT
HETATM    1  C   UNL     1      39.990  -9.337   3.039  1.00  0.00     0.070 C 
HETATM    2  C   UNL     1      40.571 -10.580   2.405  1.00  0.00     0.037 A 
HETATM    3  N   UNL     1      40.657 -11.683   3.250  1.00  0.00    -0.192 N 
HETATM    4  C   UNL     1      41.251 -12.838   2.908  1.00  0.00     0.726 A 
HETATM    5  N   UNL     1      41.725 -12.987   1.641  1.00  0.00    -0.083 N 
HETATM    6  N   UNL     1      42.405 -14.142   1.499  1.00  0.00    -0.135 NA
HETATM    7  C   UNL     1      42.213 -14.709   2.706  1.00  0.00     0.199 A 
HETATM    8  N   UNL     1      41.517 -13.914   3.600  1.00  0.00    -0.041 NA
HETATM    9  C   UNL     1      41.621 -11.963   0.598  1.00  0.00     0.202 A 
HETATM   10  C   UNL     1      41.022 -10.656   1.122  1.00  0.00     0.062 A 
HETATM   11  H   UNL     1      40.338 -11.569   4.208  1.00  0.00     0.184 HD
ENDROOT
BRANCH  10  12
HETATM   12  C   UNL     1      40.901  -9.477   0.191  1.00  0.00     0.256 C 
HETATM   13  N   UNL     1      42.071  -8.786  -0.060  1.00  0.00    -0.323 N 
HETATM   14  H   UNL     1      42.947  -9.165   0.261  1.00  0.00     0.169 HD
HETATM   15  O   UNL     1      39.816  -9.213  -0.319  1.00  0.00    -0.267 OA
BRANCH  13  16
HETATM   16  C   UNL     1      42.210  -7.593  -0.806  1.00  0.00     0.035 A 
HETATM   17  C   UNL     1      41.803  -6.336  -0.357  1.00  0.00     0.029 A 
HETATM   18  C   UNL     1      42.008  -5.199  -1.147  1.00  0.00     0.002 A 
HETATM   19  C   UNL     1      42.617  -5.310  -2.394  1.00  0.00     0.000 A 
HETATM   20  C   UNL     1      43.025  -6.559  -2.853  1.00  0.00     0.002 A 
HETATM   21  C   UNL     1      42.828  -7.693  -2.061  1.00  0.00     0.029 A 
ENDBRANCH  13  16
ENDBRANCH  10  12
BRANCH   9  22
HETATM   22  C   UNL     1      40.889 -12.548  -0.609  1.00  0.00    -0.028 A 
HETATM   23  C   UNL     1      41.252 -12.220  -1.927  1.00  0.00     0.012 A 
HETATM   24  C   UNL     1      40.546 -12.747  -3.013  1.00  0.00     0.037 A 
HETATM   25  C   UNL     1      39.466 -13.591  -2.783  1.00  0.00     0.065 A 
HETATM   26  C   UNL     1      39.080 -13.919  -1.491  1.00  0.00     0.037 A 
HETATM   27  C   UNL     1      39.785 -13.397  -0.406  1.00  0.00     0.012 A 
BRANCH  25  28
HETATM   28  O   UNL     1      38.744 -14.117  -3.814  1.00  0.00    -0.361 OA
HETATM   29  H   UNL     1      39.301 -14.131  -4.608  1.00  0.00     0.217 HD
ENDBRANCH  25  28
ENDBRANCH   9  22
BRANCH   7  30
HETATM   30  C   UNL     1      42.704 -16.038   3.064  1.00  0.00     0.014 A 
HETATM   31  C   UNL     1      42.731 -17.074   2.117  1.00  0.00     0.017 A 
HETATM   32  C   UNL     1      43.195 -18.347   2.467  1.00  0.00     0.025 A 
HETATM   33  C   UNL     1      43.635 -18.590   3.767  1.00  0.00     0.034 A 
HETATM   34 CL   UNL     1      44.203 -20.155   4.197  1.00  0.00    -0.084 Cl
HETATM   35  C   UNL     1      43.616 -17.572   4.717  1.00  0.00     0.025 A 
HETATM   36  C   UNL     1      43.151 -16.301   4.367  1.00  0.00     0.017 A 
ENDBRANCH   7  30
TORSDOF 5
ENDMDL
MODEL 4
REMARK VINA RESULT:      -9.1      4.304      9.051
REMARK  5 active torsions:
REMARK  status: ('A' for Active; 'I' for Inactive)
REMARK    1  A    between atoms: C_7  and  C_8 
REMARK    2  A    between atoms: C_16  and  C_17 
REMARK    3  A    between atoms: C_20  and  O_21 
REMARK    4  A    between atoms: C_24  and  C_25 
REMARK       I    between atoms: C_25  and  N_26 
REMARK    5  A    between atoms: N_26  and  C_27 
ROOT
HETATM    1  C   UNL     1      39.739 -15.842   1.115  1.00  0.00     0.070 C 
HETATM    2  C   UNL     1      40.237 -14.852   2.143  1.00  0.00     0.037 A 
HETATM    3  N   UNL     1      39.347 -13.825   2.447  1.00  0.00    -0.192 N 
HETATM    4  C   UNL     1      39.652 -12.787   3.244  1.00  0.00     0.726 A 
HETATM    5  N   UNL     1      40.862 -12.765   3.865  1.00  0.00    -0.083 N 
HETATM    6  N   UNL     1      41.064 -11.602   4.516  1.00  0.00    -0.135 NA
HETATM    7  C   UNL     1      39.875 -10.993   4.339  1.00  0.00     0.199 A 
HETATM    8  N   UNL     1      38.992 -11.700   3.541  1.00  0.00    -0.041 NA
HETATM    9  C   UNL     1      41.873 -13.819   3.736  1.00  0.00     0.202 A 
HETATM   10  C   UNL     1      41.466 -14.897   2.729  1.00  0.00     0.062 A 
HETATM   11  H   UNL     1      38.455 -13.816   1.961  1.00  0.00     0.184 HD
ENDROOT
BRANCH  10  12
HETATM   12  C   UNL     1      42.422 -16.024   2.431  1.00  0.00     0.256 C 
HETATM   13  N   UNL     1      42.153 -17.222   3.066  1.00  0.00    -0.323 N 
HETATM   14  H   UNL     1      41.288 -17.332   3.569  1.00  0.00     0.169 HD
HETATM   15  O   UNL     1      43.340 -15.849   1.637  1.00  0.00    -0.267 OA
BRANCH  13  16
HETATM   16  C   UNL     1      42.947 -18.393   3.039  1.00  0.00     0.035 A 
HETATM   17  C   UNL     1      43.847 -18.753   4.043  1.00  0.00     0.029 A 
HETATM   18  C   UNL     1      44.569 -19.948   3.954  1.00  0.00     0.002 A 
HETATM   19  C   UNL     1      44.402 -20.791   2.858  1.00  0.00     0.000 A 
HETATM   20  C   UNL     1      43.508 -20.441   1.850  1.00  0.00     0.002 A 
HETATM   21  C   UNL     1      42.780 -19.252   1.944  1.00  0.00     0.029 A 
ENDBRANCH  13  16
ENDBRANCH  10  12
BRANCH   9  22
HETATM   22  C   UNL     1      42.219 -14.356   5.124  1.00  0.00    -0.028 A 
HETATM   23  C   UNL     1      41.360 -15.225   5.818  1.00  0.00     0.012 A 
HETATM   24  C   UNL     1      41.687 -15.678   7.099  1.00  0.00     0.037 A 
HETATM   25  C   UNL     1      42.868 -15.252   7.695  1.00  0.00     0.065 A 
HETATM   26  C   UNL     1      43.727 -14.385   7.035  1.00  0.00     0.037 A 
HETATM   27  C   UNL     1      43.403 -13.933   5.755  1.00  0.00     0.012 A 
BRANCH  25  28
HETATM   28  O   UNL     1      43.220 -15.661   8.948  1.00  0.00    -0.361 OA
HETATM   29  H   UNL     1      42.463 -15.529   9.541  1.00  0.00     0.217 HD
ENDBRANCH  25  28
ENDBRANCH   9  22
BRANCH   7  30
HETATM   30  C   UNL     1      39.536  -9.695   4.916  1.00  0.00     0.014 A 
HETATM   31  C   UNL     1      40.492  -8.952   5.627  1.00  0.00     0.017 A 
HETATM   32  C   UNL     1      40.160  -7.712   6.184  1.00  0.00     0.025 A 
HETATM   33  C   UNL     1      38.870  -7.209   6.033  1.00  0.00     0.034 A 
HETATM   34 CL   UNL     1      38.461  -5.686   6.720  1.00  0.00    -0.084 Cl
HETATM   35  C   UNL     1      37.910  -7.933   5.329  1.00  0.00     0.025 A 
HETATM   36  C   UNL     1      38.242  -9.172   4.773  1.00  0.00     0.017 A 
ENDBRANCH   7  30
TORSDOF 5
ENDMDL
MODEL 5
REMARK VINA RESULT:      -8.9      4.792      9.039
REMARK  5 active torsions:
REMARK  status: ('A' for Active; 'I' for Inactive)
REMARK    1  A    between atoms: C_7  and  C_8 
REMARK    2  A    between atoms: C_16  and  C_17 
REMARK    3  A    between atoms: C_20  and  O_21 
REMARK    4  A    between atoms: C_24  and  C_25 
REMARK       I    between atoms: C_25  and  N_26 
REMARK    5  A    between atoms: N_26  and  C_27 
ROOT
HETATM    1  C   UNL     1      39.846 -15.362   0.112  1.00  0.00     0.070 C 
HETATM    2  C   UNL     1      40.448 -14.072   0.619  1.00  0.00     0.037 A 
HETATM    3  N   UNL     1      40.174 -12.951  -0.161  1.00  0.00    -0.192 N 
HETATM    4  C   UNL     1      40.716 -11.742   0.058  1.00  0.00     0.726 A 
HETATM    5  N   UNL     1      41.509 -11.561   1.148  1.00  0.00    -0.083 N 
HETATM    6  N   UNL     1      42.076 -10.338   1.151  1.00  0.00    -0.135 NA
HETATM    7  C   UNL     1      41.492  -9.776   0.074  1.00  0.00     0.199 A 
HETATM    8  N   UNL     1      40.659 -10.631  -0.627  1.00  0.00    -0.041 NA
HETATM    9  C   UNL     1      41.814 -12.608   2.127  1.00  0.00     0.202 A 
HETATM   10  C   UNL     1      41.233 -13.966   1.728  1.00  0.00     0.062 A 
HETATM   11  H   UNL     1      39.611 -13.086  -0.996  1.00  0.00     0.184 HD
ENDROOT
BRANCH  10  12
HETATM   12  C   UNL     1      41.505 -15.167   2.597  1.00  0.00     0.256 C 
HETATM   13  N   UNL     1      42.780 -15.695   2.510  1.00  0.00    -0.323 N 
HETATM   14  H   UNL     1      43.489 -15.194   2.000  1.00  0.00     0.169 HD
HETATM   15  O   UNL     1      40.629 -15.587   3.347  1.00  0.00    -0.267 OA
BRANCH  13  16
HETATM   16  C   UNL     1      43.256 -16.871   3.134  1.00  0.00     0.035 A 
HETATM   17  C   UNL     1      43.702 -16.933   4.455  1.00  0.00     0.029 A 
HETATM   18  C   UNL     1      44.125 -18.147   5.006  1.00  0.00     0.002 A 
HETATM   19  C   UNL     1      44.112 -19.310   4.239  1.00  0.00     0.000 A 
HETATM   20  C   UNL     1      43.670 -19.260   2.921  1.00  0.00     0.002 A 
HETATM   21  C   UNL     1      43.239 -18.049   2.373  1.00  0.00     0.029 A 
ENDBRANCH  13  16
ENDBRANCH  10  12
BRANCH   9  22
HETATM   22  C   UNL     1      41.395 -12.133   3.517  1.00  0.00    -0.028 A 
HETATM   23  C   UNL     1      42.328 -11.967   4.556  1.00  0.00     0.012 A 
HETATM   24  C   UNL     1      41.914 -11.559   5.827  1.00  0.00     0.037 A 
HETATM   25  C   UNL     1      40.564 -11.328   6.067  1.00  0.00     0.065 A 
HETATM   26  C   UNL     1      39.623 -11.497   5.061  1.00  0.00     0.037 A 
HETATM   27  C   UNL     1      40.035 -11.902   3.791  1.00  0.00     0.012 A 
BRANCH  25  28
HETATM   28  O   UNL     1      40.117 -10.940   7.296  1.00  0.00    -0.361 OA
HETATM   29  H   UNL     1      40.562 -10.113   7.541  1.00  0.00     0.217 HD
ENDBRANCH  25  28
ENDBRANCH   9  22
BRANCH   7  30
HETATM   30  C   UNL     1      41.718  -8.394  -0.341  1.00  0.00     0.014 A 
HETATM   31  C   UNL     1      40.929  -7.351   0.169  1.00  0.00     0.017 A 
HETATM   32  C   UNL     1      41.145  -6.030  -0.238  1.00  0.00     0.025 A 
HETATM   33  C   UNL     1      42.152  -5.745  -1.157  1.00  0.00     0.034 A 
HETATM   34 CL   UNL     1      42.415  -4.121  -1.659  1.00  0.00    -0.084 Cl
HETATM   35  C   UNL     1      42.944  -6.768  -1.672  1.00  0.00     0.025 A 
HETATM   36  C   UNL     1      42.728  -8.088  -1.266  1.00  0.00     0.017 A 
ENDBRANCH   7  30
TORSDOF 5
ENDMDL
MODEL 6
REMARK VINA RESULT:      -8.9      4.693      8.747
REMARK  5 active torsions:
REMARK  status: ('A' for Active; 'I' for Inactive)
REMARK    1  A    between atoms: C_7  and  C_8 
REMARK    2  A    between atoms: C_16  and  C_17 
REMARK    3  A    between atoms: C_20  and  O_21 
REMARK    4  A    between atoms: C_24  and  C_25 
REMARK       I    between atoms: C_25  and  N_26 
REMARK    5  A    between atoms: N_26  and  C_27 
ROOT
HETATM    1  C   UNL     1      38.099 -10.227   1.771  1.00  0.00     0.070 C 
HETATM    2  C   UNL     1      39.388 -10.709   2.397  1.00  0.00     0.037 A 
HETATM    3  N   UNL     1      39.575 -10.328   3.723  1.00  0.00    -0.192 N 
HETATM    4  C   UNL     1      40.705 -10.557   4.411  1.00  0.00     0.726 A 
HETATM    5  N   UNL     1      41.701 -11.274   3.825  1.00  0.00    -0.083 N 
HETATM    6  N   UNL     1      42.810 -11.301   4.591  1.00  0.00    -0.135 NA
HETATM    7  C   UNL     1      42.380 -10.662   5.696  1.00  0.00     0.199 A 
HETATM    8  N   UNL     1      41.086 -10.178   5.602  1.00  0.00    -0.041 NA
HETATM    9  C   UNL     1      41.625 -11.838   2.474  1.00  0.00     0.202 A 
HETATM   10  C   UNL     1      40.342 -11.432   1.745  1.00  0.00     0.062 A 
HETATM   11  H   UNL     1      38.850  -9.762   4.156  1.00  0.00     0.184 HD
ENDROOT
BRANCH  10  12
HETATM   12  C   UNL     1      40.133 -11.877   0.321  1.00  0.00     0.256 C 
HETATM   13  N   UNL     1      39.108 -12.783   0.119  1.00  0.00    -0.323 N 
HETATM   14  H   UNL     1      38.478 -12.993   0.875  1.00  0.00     0.169 HD
HETATM   15  O   UNL     1      40.828 -11.404  -0.573  1.00  0.00    -0.267 OA
BRANCH  13  16
HETATM   16  C   UNL     1      38.775 -13.431  -1.093  1.00  0.00     0.035 A 
HETATM   17  C   UNL     1      39.384 -14.601  -1.550  1.00  0.00     0.029 A 
HETATM   18  C   UNL     1      38.970 -15.197  -2.746  1.00  0.00     0.002 A 
HETATM   19  C   UNL     1      37.947 -14.626  -3.499  1.00  0.00     0.000 A 
HETATM   20  C   UNL     1      37.334 -13.459  -3.054  1.00  0.00     0.002 A 
HETATM   21  C   UNL     1      37.741 -12.868  -1.855  1.00  0.00     0.029 A 
ENDBRANCH  13  16
ENDBRANCH  10  12
BRANCH   9  22
HETATM   22  C   UNL     1      41.854 -13.346   2.545  1.00  0.00    -0.028 A 
HETATM   23  C   UNL     1      42.974 -13.955   1.950  1.00  0.00     0.012 A 
HETATM   24  C   UNL     1      43.143 -15.341   2.004  1.00  0.00     0.037 A 
HETATM   25  C   UNL     1      42.188 -16.125   2.642  1.00  0.00     0.065 A 
HETATM   26  C   UNL     1      41.069 -15.548   3.226  1.00  0.00     0.037 A 
HETATM   27  C   UNL     1      40.898 -14.164   3.175  1.00  0.00     0.012 A 
BRANCH  25  28
HETATM   28  O   UNL     1      42.310 -17.481   2.708  1.00  0.00    -0.361 OA
HETATM   29  H   UNL     1      41.424 -17.868   2.789  1.00  0.00     0.217 HD
ENDBRANCH  25  28
ENDBRANCH   9  22
BRANCH   7  30
HETATM   30  C   UNL     1      43.197 -10.472   6.892  1.00  0.00     0.014 A 
HETATM   31  C   UNL     1      42.708  -9.748   7.991  1.00  0.00     0.017 A 
HETATM   32  C   UNL     1      43.498  -9.562   9.131  1.00  0.00     0.025 A 
HETATM   33  C   UNL     1      44.782 -10.099   9.177  1.00  0.00     0.034 A 
HETATM   34 CL   UNL     1      45.754  -9.868  10.578  1.00  0.00    -0.084 Cl
HETATM   35  C   UNL     1      45.283 -10.821   8.096  1.00  0.00     0.025 A 
HETATM   36  C   UNL     1      44.493 -11.005   6.957  1.00  0.00     0.017 A 
ENDBRANCH   7  30
TORSDOF 5
ENDMDL
MODEL 7
REMARK VINA RESULT:      -8.8      1.627      2.109
REMARK  5 active torsions:
REMARK  status: ('A' for Active; 'I' for Inactive)
REMARK    1  A    between atoms: C_7  and  C_8 
REMARK    2  A    between atoms: C_16  and  C_17 
REMARK    3  A    between atoms: C_20  and  O_21 
REMARK    4  A    between atoms: C_24  and  C_25 
REMARK       I    between atoms: C_25  and  N_26 
REMARK    5  A    between atoms: N_26  and  C_27 
ROOT
HETATM    1  C   UNL     1      40.587 -10.239   1.788  1.00  0.00     0.070 C 
HETATM    2  C   UNL     1      41.218 -11.280   2.685  1.00  0.00     0.037 A 
HETATM    3  N   UNL     1      41.564 -12.469   2.049  1.00  0.00    -0.192 N 
HETATM    4  C   UNL     1      42.024 -13.552   2.697  1.00  0.00     0.726 A 
HETATM    5  N   UNL     1      42.253 -13.474   4.035  1.00  0.00    -0.083 N 
HETATM    6  N   UNL     1      42.583 -14.674   4.553  1.00  0.00    -0.135 NA
HETATM    7  C   UNL     1      42.644 -15.431   3.440  1.00  0.00     0.199 A 
HETATM    8  N   UNL     1      42.285 -14.763   2.282  1.00  0.00    -0.041 NA
HETATM    9  C   UNL     1      42.041 -12.265   4.837  1.00  0.00     0.202 A 
HETATM   10  C   UNL     1      41.421 -11.127   4.023  1.00  0.00     0.062 A 
HETATM   11  H   UNL     1      41.363 -12.548   1.056  1.00  0.00     0.184 HD
ENDROOT
BRANCH  10  12
HETATM   12  C   UNL     1      41.081  -9.830   4.712  1.00  0.00     0.256 C 
HETATM   13  N   UNL     1      39.977  -9.862   5.542  1.00  0.00    -0.323 N 
HETATM   14  H   UNL     1      39.545 -10.746   5.757  1.00  0.00     0.169 HD
HETATM   15  O   UNL     1      41.796  -8.847   4.544  1.00  0.00    -0.267 OA
BRANCH  13  16
HETATM   16  C   UNL     1      39.390  -8.766   6.216  1.00  0.00     0.035 A 
HETATM   17  C   UNL     1      38.539  -7.839   5.613  1.00  0.00     0.029 A 
HETATM   18  C   UNL     1      37.973  -6.802   6.363  1.00  0.00     0.002 A 
HETATM   19  C   UNL     1      38.257  -6.680   7.721  1.00  0.00     0.000 A 
HETATM   20  C   UNL     1      39.105  -7.598   8.333  1.00  0.00     0.002 A 
HETATM   21  C   UNL     1      39.664  -8.638   7.586  1.00  0.00     0.029 A 
ENDBRANCH  13  16
ENDBRANCH  10  12
BRANCH   9  22
HETATM   22  C   UNL     1      43.346 -11.893   5.540  1.00  0.00    -0.028 A 
HETATM   23  C   UNL     1      43.422 -11.756   6.937  1.00  0.00     0.012 A 
HETATM   24  C   UNL     1      44.621 -11.387   7.552  1.00  0.00     0.037 A 
HETATM   25  C   UNL     1      45.745 -11.139   6.771  1.00  0.00     0.065 A 
HETATM   26  C   UNL     1      45.691 -11.256   5.389  1.00  0.00     0.037 A 
HETATM   27  C   UNL     1      44.495 -11.627   4.773  1.00  0.00     0.012 A 
BRANCH  25  28
HETATM   28  O   UNL     1      46.931 -10.765   7.330  1.00  0.00    -0.361 OA
HETATM   29  H   UNL     1      47.139  -9.863   7.040  1.00  0.00     0.217 HD
ENDBRANCH  25  28
ENDBRANCH   9  22
BRANCH   7  30
HETATM   30  C   UNL     1      43.034 -16.839   3.439  1.00  0.00     0.014 A 
HETATM   31  C   UNL     1      42.804 -17.648   2.315  1.00  0.00     0.017 A 
HETATM   32  C   UNL     1      43.173 -18.998   2.322  1.00  0.00     0.025 A 
HETATM   33  C   UNL     1      43.774 -19.545   3.453  1.00  0.00     0.034 A 
HETATM   34 CL   UNL     1      44.224 -21.205   3.462  1.00  0.00    -0.084 Cl
HETATM   35  C   UNL     1      44.010 -18.756   4.576  1.00  0.00     0.025 A 
HETATM   36  C   UNL     1      43.640 -17.407   4.569  1.00  0.00     0.017 A 
ENDBRANCH   7  30
TORSDOF 5
ENDMDL
MODEL 8
REMARK VINA RESULT:      -8.7      2.488      3.361
REMARK  5 active torsions:
REMARK  status: ('A' for Active; 'I' for Inactive)
REMARK    1  A    between atoms: C_7  and  C_8 
REMARK    2  A    between atoms: C_16  and  C_17 
REMARK    3  A    between atoms: C_20  and  O_21 
REMARK    4  A    between atoms: C_24  and  C_25 
REMARK       I    between atoms: C_25  and  N_26 
REMARK    5  A    between atoms: N_26  and  C_27 
ROOT
HETATM    1  C   UNL     1      41.053  -9.935   1.223  1.00  0.00     0.070 C 
HETATM    2  C   UNL     1      41.479 -10.984   2.225  1.00  0.00     0.037 A 
HETATM    3  N   UNL     1      41.938 -12.174   1.668  1.00  0.00    -0.192 N 
HETATM    4  C   UNL     1      42.248 -13.263   2.391  1.00  0.00     0.726 A 
HETATM    5  N   UNL     1      42.198 -13.191   3.748  1.00  0.00    -0.083 N 
HETATM    6  N   UNL     1      42.406 -14.395   4.317  1.00  0.00    -0.135 NA
HETATM    7  C   UNL     1      42.687 -15.150   3.236  1.00  0.00     0.199 A 
HETATM    8  N   UNL     1      42.579 -14.475   2.032  1.00  0.00    -0.041 NA
HETATM    9  C   UNL     1      41.836 -11.983   4.495  1.00  0.00     0.202 A 
HETATM   10  C   UNL     1      41.405 -10.837   3.577  1.00  0.00     0.062 A 
HETATM   11  H   UNL     1      41.945 -12.248   0.654  1.00  0.00     0.184 HD
ENDROOT
BRANCH  10  12
HETATM   12  C   UNL     1      40.942  -9.540   4.188  1.00  0.00     0.256 C 
HETATM   13  N   UNL     1      41.911  -8.565   4.334  1.00  0.00    -0.323 N 
HETATM   14  H   UNL     1      42.816  -8.701   3.916  1.00  0.00     0.169 HD
HETATM   15  O   UNL     1      39.759  -9.393   4.481  1.00  0.00    -0.267 OA
BRANCH  13  16
HETATM   16  C   UNL     1      41.763  -7.309   4.969  1.00  0.00     0.035 A 
HETATM   17  C   UNL     1      41.766  -7.124   6.352  1.00  0.00     0.029 A 
HETATM   18  C   UNL     1      41.647  -5.841   6.898  1.00  0.00     0.002 A 
HETATM   19  C   UNL     1      41.519  -4.732   6.065  1.00  0.00     0.000 A 
HETATM   20  C   UNL     1      41.513  -4.905   4.684  1.00  0.00     0.002 A 
HETATM   21  C   UNL     1      41.640  -6.185   4.139  1.00  0.00     0.029 A 
ENDBRANCH  13  16
ENDBRANCH  10  12
BRANCH   9  22
HETATM   22  C   UNL     1      42.972 -11.625   5.452  1.00  0.00    -0.028 A 
HETATM   23  C   UNL     1      44.313 -11.587   5.031  1.00  0.00     0.012 A 
HETATM   24  C   UNL     1      45.336 -11.286   5.934  1.00  0.00     0.037 A 
HETATM   25  C   UNL     1      45.023 -11.034   7.265  1.00  0.00     0.065 A 
HETATM   26  C   UNL     1      43.708 -11.078   7.708  1.00  0.00     0.037 A 
HETATM   27  C   UNL     1      42.685 -11.376   6.807  1.00  0.00     0.012 A 
BRANCH  25  28
HETATM   28  O   UNL     1      45.991 -10.748   8.181  1.00  0.00    -0.361 OA
HETATM   29  H   UNL     1      45.830 -11.277   8.979  1.00  0.00     0.217 HD
ENDBRANCH  25  28
ENDBRANCH   9  22
BRANCH   7  30
HETATM   30  C   UNL     1      43.059 -16.561   3.308  1.00  0.00     0.014 A 
HETATM   31  C   UNL     1      43.697 -17.080   4.446  1.00  0.00     0.017 A 
HETATM   32  C   UNL     1      44.058 -18.430   4.506  1.00  0.00     0.025 A 
HETATM   33  C   UNL     1      43.781 -19.269   3.429  1.00  0.00     0.034 A 
HETATM   34 CL   UNL     1      44.227 -20.929   3.503  1.00  0.00    -0.084 Cl
HETATM   35  C   UNL     1      43.148 -18.770   2.293  1.00  0.00     0.025 A 
HETATM   36  C   UNL     1      42.788 -17.420   2.233  1.00  0.00     0.017 A 
ENDBRANCH   7  30
TORSDOF 5
ENDMDL
MODEL 9
REMARK VINA RESULT:      -8.6      3.457      5.369
REMARK  5 active torsions:
REMARK  status: ('A' for Active; 'I' for Inactive)
REMARK    1  A    between atoms: C_7  and  C_8 
REMARK    2  A    between atoms: C_16  and  C_17 
REMARK    3  A    between atoms: C_20  and  O_21 
REMARK    4  A    between atoms: C_24  and  C_25 
REMARK       I    between atoms: C_25  and  N_26 
REMARK    5  A    between atoms: N_26  and  C_27 
ROOT
HETATM    1  C   UNL     1      40.174 -11.847  -0.936  1.00  0.00     0.070 C 
HETATM    2  C   UNL     1      40.351 -12.599   0.363  1.00  0.00     0.037 A 
HETATM    3  N   UNL     1      41.341 -13.577   0.344  1.00  0.00    -0.192 N 
HETATM    4  C   UNL     1      41.566 -14.428   1.359  1.00  0.00     0.726 A 
HETATM    5  N   UNL     1      40.856 -14.286   2.510  1.00  0.00    -0.083 N 
HETATM    6  N   UNL     1      41.104 -15.291   3.373  1.00  0.00    -0.135 NA
HETATM    7  C   UNL     1      42.071 -15.965   2.720  1.00  0.00     0.199 A 
HETATM    8  N   UNL     1      42.362 -15.459   1.464  1.00  0.00    -0.041 NA
HETATM    9  C   UNL     1      39.851 -13.243   2.733  1.00  0.00     0.202 A 
HETATM   10  C   UNL     1      39.601 -12.397   1.483  1.00  0.00     0.062 A 
HETATM   11  H   UNL     1      41.852 -13.713  -0.524  1.00  0.00     0.184 HD
ENDROOT
BRANCH  10  12
HETATM   12  C   UNL     1      38.551 -11.317   1.523  1.00  0.00     0.256 C 
HETATM   13  N   UNL     1      39.009 -10.043   1.803  1.00  0.00    -0.323 N 
HETATM   14  H   UNL     1      40.000  -9.869   1.829  1.00  0.00     0.169 HD
HETATM   15  O   UNL     1      37.382 -11.595   1.274  1.00  0.00    -0.267 OA
BRANCH  13  16
HETATM   16  C   UNL     1      38.225  -8.883   2.000  1.00  0.00     0.035 A 
HETATM   17  C   UNL     1      37.712  -8.098   0.967  1.00  0.00     0.029 A 
HETATM   18  C   UNL     1      36.915  -6.983   1.250  1.00  0.00     0.002 A 
HETATM   19  C   UNL     1      36.629  -6.641   2.569  1.00  0.00     0.000 A 
HETATM   20  C   UNL     1      37.136  -7.415   3.608  1.00  0.00     0.002 A 
HETATM   21  C   UNL     1      37.924  -8.534   3.325  1.00  0.00     0.029 A 
ENDBRANCH  13  16
ENDBRANCH  10  12
BRANCH   9  22
HETATM   22  C   UNL     1      40.233 -12.433   3.971  1.00  0.00    -0.028 A 
HETATM   23  C   UNL     1      41.433 -11.702   4.038  1.00  0.00     0.012 A 
HETATM   24  C   UNL     1      41.772 -10.994   5.194  1.00  0.00     0.037 A 
HETATM   25  C   UNL     1      40.920 -11.025   6.292  1.00  0.00     0.065 A 
HETATM   26  C   UNL     1      39.736 -11.749   6.254  1.00  0.00     0.037 A 
HETATM   27  C   UNL     1      39.394 -12.455   5.100  1.00  0.00     0.012 A 
BRANCH  25  28
HETATM   28  O   UNL     1      41.218 -10.358   7.443  1.00  0.00    -0.361 OA
HETATM   29  H   UNL     1      41.587 -10.989   8.081  1.00  0.00     0.217 HD
ENDBRANCH  25  28
ENDBRANCH   9  22
BRANCH   7  30
HETATM   30  C   UNL     1      42.752 -17.137   3.264  1.00  0.00     0.014 A 
HETATM   31  C   UNL     1      43.049 -18.240   2.449  1.00  0.00     0.017 A 
HETATM   32  C   UNL     1      43.694 -19.363   2.977  1.00  0.00     0.025 A 
HETATM   33  C   UNL     1      44.045 -19.389   4.325  1.00  0.00     0.034 A 
HETATM   34 CL   UNL     1      44.835 -20.772   4.975  1.00  0.00    -0.084 Cl
HETATM   35  C   UNL     1      43.758 -18.303   5.148  1.00  0.00     0.025 A 
HETATM   36  C   UNL     1      43.113 -17.181   4.619  1.00  0.00     0.017 A 
ENDBRANCH   7  30
TORSDOF 5
ENDMDL
MODEL 10
REMARK VINA RESULT:      -8.4      4.328      9.333
REMARK  5 active torsions:
REMARK  status: ('A' for Active; 'I' for Inactive)
REMARK    1  A    between atoms: C_7  and  C_8 
REMARK    2  A    between atoms: C_16  and  C_17 
REMARK    3  A    between atoms: C_20  and  O_21 
REMARK    4  A    between atoms: C_24  and  C_25 
REMARK       I    between atoms: C_25  and  N_26 
REMARK    5  A    between atoms: N_26  and  C_27 
ROOT
HETATM    1  C   UNL     1      45.831 -11.235   6.699  1.00  0.00     0.070 C 
HETATM    2  C   UNL     1      44.698 -10.646   7.509  1.00  0.00     0.037 A 
HETATM    3  N   UNL     1      45.065 -10.158   8.761  1.00  0.00    -0.192 N 
HETATM    4  C   UNL     1      44.186  -9.708   9.670  1.00  0.00     0.726 A 
HETATM    5  N   UNL     1      42.869  -9.636   9.337  1.00  0.00    -0.083 N 
HETATM    6  N   UNL     1      42.108  -9.292  10.395  1.00  0.00    -0.135 NA
HETATM    7  C   UNL     1      43.050  -9.061  11.331  1.00  0.00     0.199 A 
HETATM    8  N   UNL     1      44.341  -9.327  10.911  1.00  0.00    -0.041 NA
HETATM    9  C   UNL     1      42.330 -10.010   8.026  1.00  0.00     0.202 A 
HETATM   10  C   UNL     1      43.398 -10.604   7.106  1.00  0.00     0.062 A 
HETATM   11  H   UNL     1      46.042 -10.241   9.031  1.00  0.00     0.184 HD
ENDROOT
BRANCH  10  12
HETATM   12  C   UNL     1      42.999 -11.098   5.739  1.00  0.00     0.256 C 
HETATM   13  N   UNL     1      42.341 -12.313   5.708  1.00  0.00    -0.323 N 
HETATM   14  H   UNL     1      42.041 -12.736   6.571  1.00  0.00     0.169 HD
HETATM   15  O   UNL     1      43.229 -10.408   4.751  1.00  0.00    -0.267 OA
BRANCH  13  16
HETATM   16  C   UNL     1      41.956 -13.041   4.558  1.00  0.00     0.035 A 
HETATM   17  C   UNL     1      40.701 -12.950   3.955  1.00  0.00     0.029 A 
HETATM   18  C   UNL     1      40.414 -13.681   2.797  1.00  0.00     0.002 A 
HETATM   19  C   UNL     1      41.378 -14.515   2.235  1.00  0.00     0.000 A 
HETATM   20  C   UNL     1      42.632 -14.615   2.828  1.00  0.00     0.002 A 
HETATM   21  C   UNL     1      42.922 -13.878   3.979  1.00  0.00     0.029 A 
ENDBRANCH  13  16
ENDBRANCH  10  12
BRANCH   9  22
HETATM   22  C   UNL     1      41.583  -8.818   7.432  1.00  0.00    -0.028 A 
HETATM   23  C   UNL     1      40.221  -8.893   7.087  1.00  0.00     0.012 A 
HETATM   24  C   UNL     1      39.569  -7.796   6.517  1.00  0.00     0.037 A 
HETATM   25  C   UNL     1      40.279  -6.625   6.276  1.00  0.00     0.065 A 
HETATM   26  C   UNL     1      41.627  -6.531   6.597  1.00  0.00     0.037 A 
HETATM   27  C   UNL     1      42.279  -7.624   7.168  1.00  0.00     0.012 A 
BRANCH  25  28
HETATM   28  O   UNL     1      39.684  -5.536   5.711  1.00  0.00    -0.361 OA
HETATM   29  H   UNL     1      40.334  -4.817   5.664  1.00  0.00     0.217 HD
ENDBRANCH  25  28
ENDBRANCH   9  22
BRANCH   7  30
HETATM   30  C   UNL     1      42.751  -8.586  12.680  1.00  0.00     0.014 A 
HETATM   31  C   UNL     1      41.771  -9.216  13.464  1.00  0.00     0.017 A 
HETATM   32  C   UNL     1      41.484  -8.753  14.753  1.00  0.00     0.025 A 
HETATM   33  C   UNL     1      42.176  -7.658  15.264  1.00  0.00     0.034 A 
HETATM   34 CL   UNL     1      41.821  -7.087  16.848  1.00  0.00    -0.084 Cl
HETATM   35  C   UNL     1      43.152  -7.022  14.500  1.00  0.00     0.025 A 
HETATM   36  C   UNL     1      43.438  -7.485  13.212  1.00  0.00     0.017 A 
ENDBRANCH   7  30
TORSDOF 5
ENDMDL
