MODEL 1
REMARK VINA RESULT:      -8.3      0.000      0.000
REMARK  3 active torsions:
REMARK  status: ('A' for Active; 'I' for Inactive)
REMARK    1  A    between atoms: C_2  and  O_3 
REMARK    2  A    between atoms: O_3  and  C_4 
REMARK    3  A    between atoms: C_5  and  N_6 
REMARK       I    between atoms: N_6  and  C_7 
REMARK       I    between atoms: C_7  and  N_8 
ROOT
HETATM    1  N   UNL     1      38.971 -12.558   1.428  1.00  0.00    -0.306 N 
HETATM    2  C   UNL     1      39.892 -12.764   2.442  1.00  0.00     0.323 C 
HETATM    3  N   UNL     1      39.931 -14.071   2.914  1.00  0.00    -0.328 N 
HETATM    4  C   UNL     1      40.651 -14.319   4.168  1.00  0.00     0.185 C 
HETATM    5  C   UNL     1      41.557 -15.481   3.971  1.00  0.00     0.035 A 
HETATM    6  C   UNL     1      41.553 -16.368   2.914  1.00  0.00    -0.020 A 
HETATM    7  C   UNL     1      40.600 -16.207   1.778  1.00  0.00     0.061 C 
HETATM    8  C   UNL     1      39.443 -15.262   2.184  1.00  0.00     0.132 C 
HETATM    9  N   UNL     1      42.556 -15.841   4.830  1.00  0.00    -0.357 N 
HETATM   10  H   UNL     1      42.804 -15.357   5.681  1.00  0.00     0.166 HD
HETATM   11  C   UNL     1      43.205 -16.959   4.348  1.00  0.00     0.043 A 
HETATM   12  C   UNL     1      42.591 -17.311   3.142  1.00  0.00    -0.001 A 
HETATM   13  C   UNL     1      44.286 -17.669   4.883  1.00  0.00     0.030 A 
HETATM   14  C   UNL     1      44.756 -18.771   4.165  1.00  0.00     0.002 A 
HETATM   15  C   UNL     1      44.166 -19.146   2.960  1.00  0.00     0.001 A 
HETATM   16  C   UNL     1      43.085 -18.426   2.437  1.00  0.00     0.014 A 
HETATM   17  O   UNL     1      40.541 -11.864   2.968  1.00  0.00    -0.247 OA
HETATM   18  H   UNL     1      38.101 -13.021   1.644  1.00  0.00     0.171 HD
ENDROOT
BRANCH   1  19
HETATM   19  C   UNL     1      38.836 -11.270   0.847  1.00  0.00     0.069 C 
HETATM   20  C   UNL     1      39.635 -10.844  -0.229  1.00  0.00     0.096 C 
HETATM   21  C   UNL     1      39.574  -9.511  -0.638  1.00  0.00     0.039 C 
HETATM   22  C   UNL     1      38.652  -8.637  -0.061  1.00  0.00     0.003 C 
HETATM   23  C   UNL     1      37.789  -9.089   0.934  1.00  0.00     0.002 C 
HETATM   24  C   UNL     1      37.876 -10.406   1.387  1.00  0.00     0.032 C 
BRANCH  20  25
HETATM   25  O   UNL     1      40.471 -11.750  -0.816  1.00  0.00    -0.339 OA
BRANCH  25  26
HETATM   26  C   UNL     1      40.070 -12.454  -2.010  1.00  0.00     0.057 C 
HETATM   27  C   UNL     1      41.140 -12.235  -3.086  1.00  0.00     0.045 C 
HETATM   28  C   UNL     1      38.666 -12.145  -2.561  1.00  0.00     0.045 C 
HETATM   29  C   UNL     1      40.086 -13.941  -1.608  1.00  0.00     0.045 C 
ENDBRANCH  25  26
ENDBRANCH  20  25
ENDBRANCH   1  19
TORSDOF 3
ENDMDL
MODEL 2
REMARK VINA RESULT:      -8.0      2.115      8.410
REMARK  3 active torsions:
REMARK  status: ('A' for Active; 'I' for Inactive)
REMARK    1  A    between atoms: C_2  and  O_3 
REMARK    2  A    between atoms: O_3  and  C_4 
REMARK    3  A    between atoms: C_5  and  N_6 
REMARK       I    between atoms: N_6  and  C_7 
REMARK       I    between atoms: C_7  and  N_8 
ROOT
HETATM    1  N   UNL     1      42.469 -14.823   2.755  1.00  0.00    -0.306 N 
HETATM    2  C   UNL     1      41.116 -14.599   2.555  1.00  0.00     0.323 C 
HETATM    3  N   UNL     1      40.812 -13.305   2.149  1.00  0.00    -0.328 N 
HETATM    4  C   UNL     1      39.405 -12.892   2.197  1.00  0.00     0.185 C 
HETATM    5  C   UNL     1      39.056 -12.251   0.902  1.00  0.00     0.035 A 
HETATM    6  C   UNL     1      39.930 -11.846  -0.087  1.00  0.00    -0.020 A 
HETATM    7  C   UNL     1      41.398 -12.063   0.049  1.00  0.00     0.061 C 
HETATM    8  C   UNL     1      41.759 -12.355   1.525  1.00  0.00     0.132 C 
HETATM    9  N   UNL     1      37.784 -11.973   0.491  1.00  0.00    -0.357 N 
HETATM   10  H   UNL     1      36.939 -12.182   1.006  1.00  0.00     0.166 HD
HETATM   11  C   UNL     1      37.814 -11.385  -0.756  1.00  0.00     0.043 A 
HETATM   12  C   UNL     1      39.155 -11.292  -1.142  1.00  0.00    -0.001 A 
HETATM   13  C   UNL     1      36.761 -10.942  -1.565  1.00  0.00     0.030 A 
HETATM   14  C   UNL     1      37.086 -10.389  -2.806  1.00  0.00     0.002 A 
HETATM   15  C   UNL     1      38.412 -10.285  -3.219  1.00  0.00     0.001 A 
HETATM   16  C   UNL     1      39.455 -10.732  -2.399  1.00  0.00     0.014 A 
HETATM   17  O   UNL     1      40.243 -15.420   2.819  1.00  0.00    -0.247 OA
HETATM   18  H   UNL     1      42.884 -14.049   3.252  1.00  0.00     0.171 HD
ENDROOT
BRANCH   1  19
HETATM   19  C   UNL     1      42.920 -16.106   3.161  1.00  0.00     0.069 C 
HETATM   20  C   UNL     1      43.428 -16.352   4.449  1.00  0.00     0.096 C 
HETATM   21  C   UNL     1      44.014 -17.587   4.727  1.00  0.00     0.039 C 
HETATM   22  C   UNL     1      43.997 -18.607   3.774  1.00  0.00     0.003 C 
HETATM   23  C   UNL     1      43.399 -18.395   2.535  1.00  0.00     0.002 C 
HETATM   24  C   UNL     1      42.856 -17.147   2.228  1.00  0.00     0.032 C 
BRANCH  20  25
HETATM   25  O   UNL     1      43.358 -15.352   5.376  1.00  0.00    -0.339 OA
BRANCH  25  26
HETATM   26  C   UNL     1      42.273 -15.305   6.325  1.00  0.00     0.057 C 
HETATM   27  C   UNL     1      42.848 -15.509   7.732  1.00  0.00     0.045 C 
HETATM   28  C   UNL     1      41.087 -16.254   6.073  1.00  0.00     0.045 C 
HETATM   29  C   UNL     1      41.734 -13.865   6.228  1.00  0.00     0.045 C 
ENDBRANCH  25  26
ENDBRANCH  20  25
ENDBRANCH   1  19
TORSDOF 3
ENDMDL
MODEL 3
REMARK VINA RESULT:      -7.6      1.508      3.054
REMARK  3 active torsions:
REMARK  status: ('A' for Active; 'I' for Inactive)
REMARK    1  A    between atoms: C_2  and  O_3 
REMARK    2  A    between atoms: O_3  and  C_4 
REMARK    3  A    between atoms: C_5  and  N_6 
REMARK       I    between atoms: N_6  and  C_7 
REMARK       I    between atoms: C_7  and  N_8 
ROOT
HETATM    1  N   UNL     1      39.730 -13.350  -0.424  1.00  0.00    -0.306 N 
HETATM    2  C   UNL     1      40.190 -12.992   0.834  1.00  0.00     0.323 C 
HETATM    3  N   UNL     1      40.115 -14.013   1.774  1.00  0.00    -0.328 N 
HETATM    4  C   UNL     1      40.299 -13.651   3.184  1.00  0.00     0.185 C 
HETATM    5  C   UNL     1      41.274 -14.594   3.792  1.00  0.00     0.035 A 
HETATM    6  C   UNL     1      41.736 -15.775   3.249  1.00  0.00    -0.020 A 
HETATM    7  C   UNL     1      41.298 -16.223   1.896  1.00  0.00     0.061 C 
HETATM    8  C   UNL     1      40.022 -15.458   1.469  1.00  0.00     0.132 C 
HETATM    9  N   UNL     1      41.875 -14.415   5.005  1.00  0.00    -0.357 N 
HETATM   10  H   UNL     1      41.741 -13.622   5.618  1.00  0.00     0.166 HD
HETATM   11  C   UNL     1      42.724 -15.470   5.265  1.00  0.00     0.043 A 
HETATM   12  C   UNL     1      42.655 -16.342   4.174  1.00  0.00    -0.001 A 
HETATM   13  C   UNL     1      43.547 -15.707   6.372  1.00  0.00     0.030 A 
HETATM   14  C   UNL     1      44.324 -16.868   6.365  1.00  0.00     0.002 A 
HETATM   15  C   UNL     1      44.277 -17.755   5.292  1.00  0.00     0.001 A 
HETATM   16  C   UNL     1      43.448 -17.505   4.191  1.00  0.00     0.014 A 
HETATM   17  O   UNL     1      40.527 -11.851   1.137  1.00  0.00    -0.247 OA
HETATM   18  H   UNL     1      38.873 -13.877  -0.347  1.00  0.00     0.171 HD
ENDROOT
BRANCH   1  19
HETATM   19  C   UNL     1      39.760 -12.405  -1.482  1.00  0.00     0.069 C 
HETATM   20  C   UNL     1      38.644 -11.619  -1.819  1.00  0.00     0.096 C 
HETATM   21  C   UNL     1      38.683 -10.839  -2.975  1.00  0.00     0.039 C 
HETATM   22  C   UNL     1      39.855 -10.752  -3.729  1.00  0.00     0.003 C 
HETATM   23  C   UNL     1      40.993 -11.451  -3.334  1.00  0.00     0.002 C 
HETATM   24  C   UNL     1      40.949 -12.275  -2.209  1.00  0.00     0.032 C 
BRANCH  20  25
HETATM   25  O   UNL     1      37.543 -11.674  -1.013  1.00  0.00    -0.339 OA
BRANCH  25  26
HETATM   26  C   UNL     1      37.198 -10.562  -0.163  1.00  0.00     0.057 C 
HETATM   27  C   UNL     1      35.947  -9.882  -0.734  1.00  0.00     0.045 C 
HETATM   28  C   UNL     1      38.306  -9.529   0.115  1.00  0.00     0.045 C 
HETATM   29  C   UNL     1      36.824 -11.205   1.186  1.00  0.00     0.045 C 
ENDBRANCH  25  26
ENDBRANCH  20  25
ENDBRANCH   1  19
TORSDOF 3
ENDMDL
MODEL 4
REMARK VINA RESULT:      -7.5      2.123      7.653
REMARK  3 active torsions:
REMARK  status: ('A' for Active; 'I' for Inactive)
REMARK    1  A    between atoms: C_2  and  O_3 
REMARK    2  A    between atoms: O_3  and  C_4 
REMARK    3  A    between atoms: C_5  and  N_6 
REMARK       I    between atoms: N_6  and  C_7 
REMARK       I    between atoms: C_7  and  N_8 
ROOT
HETATM    1  N   UNL     1      42.515 -13.691   4.625  1.00  0.00    -0.306 N 
HETATM    2  C   UNL     1      41.189 -13.546   4.248  1.00  0.00     0.323 C 
HETATM    3  N   UNL     1      40.962 -12.487   3.377  1.00  0.00    -0.328 N 
HETATM    4  C   UNL     1      39.571 -12.076   3.156  1.00  0.00     0.185 C 
HETATM    5  C   UNL     1      39.341 -11.949   1.693  1.00  0.00     0.035 A 
HETATM    6  C   UNL     1      40.299 -11.937   0.700  1.00  0.00    -0.020 A 
HETATM    7  C   UNL     1      41.745 -12.099   1.024  1.00  0.00     0.061 C 
HETATM    8  C   UNL     1      41.986 -11.836   2.530  1.00  0.00     0.132 C 
HETATM    9  N   UNL     1      38.113 -11.831   1.107  1.00  0.00    -0.357 N 
HETATM   10  H   UNL     1      37.226 -11.833   1.591  1.00  0.00     0.166 HD
HETATM   11  C   UNL     1      38.257 -11.738  -0.261  1.00  0.00     0.043 A 
HETATM   12  C   UNL     1      39.625 -11.801  -0.544  1.00  0.00    -0.001 A 
HETATM   13  C   UNL     1      37.283 -11.614  -1.259  1.00  0.00     0.030 A 
HETATM   14  C   UNL     1      37.718 -11.553  -2.585  1.00  0.00     0.002 A 
HETATM   15  C   UNL     1      39.074 -11.615  -2.898  1.00  0.00     0.001 A 
HETATM   16  C   UNL     1      40.037 -11.738  -1.889  1.00  0.00     0.014 A 
HETATM   17  O   UNL     1      40.269 -14.209   4.719  1.00  0.00    -0.247 OA
HETATM   18  H   UNL     1      42.918 -12.791   4.839  1.00  0.00     0.171 HD
ENDROOT
BRANCH   1  19
HETATM   19  C   UNL     1      42.888 -14.741   5.503  1.00  0.00     0.069 C 
HETATM   20  C   UNL     1      43.472 -15.935   5.042  1.00  0.00     0.096 C 
HETATM   21  C   UNL     1      43.654 -16.993   5.932  1.00  0.00     0.039 C 
HETATM   22  C   UNL     1      43.363 -16.833   7.289  1.00  0.00     0.003 C 
HETATM   23  C   UNL     1      42.883 -15.615   7.761  1.00  0.00     0.002 C 
HETATM   24  C   UNL     1      42.648 -14.566   6.871  1.00  0.00     0.032 C 
BRANCH  20  25
HETATM   25  O   UNL     1      43.811 -16.024   3.723  1.00  0.00    -0.339 OA
BRANCH  25  26
HETATM   26  C   UNL     1      42.940 -16.686   2.783  1.00  0.00     0.057 C 
HETATM   27  C   UNL     1      43.008 -15.938   1.446  1.00  0.00     0.045 C 
HETATM   28  C   UNL     1      41.479 -16.898   3.220  1.00  0.00     0.045 C 
HETATM   29  C   UNL     1      43.565 -18.080   2.589  1.00  0.00     0.045 C 
ENDBRANCH  25  26
ENDBRANCH  20  25
ENDBRANCH   1  19
TORSDOF 3
ENDMDL
MODEL 5
REMARK VINA RESULT:      -7.5      6.606      8.736
REMARK  3 active torsions:
REMARK  status: ('A' for Active; 'I' for Inactive)
REMARK    1  A    between atoms: C_2  and  O_3 
REMARK    2  A    between atoms: O_3  and  C_4 
REMARK    3  A    between atoms: C_5  and  N_6 
REMARK       I    between atoms: N_6  and  C_7 
REMARK       I    between atoms: C_7  and  N_8 
ROOT
HETATM    1  N   UNL     1      42.820  -8.781   7.954  1.00  0.00    -0.306 N 
HETATM    2  C   UNL     1      42.115  -9.605   7.092  1.00  0.00     0.323 C 
HETATM    3  N   UNL     1      42.914 -10.486   6.373  1.00  0.00    -0.328 N 
HETATM    4  C   UNL     1      42.302 -11.184   5.236  1.00  0.00     0.185 C 
HETATM    5  C   UNL     1      42.628 -12.631   5.338  1.00  0.00     0.035 A 
HETATM    6  C   UNL     1      43.560 -13.215   6.172  1.00  0.00    -0.020 A 
HETATM    7  C   UNL     1      44.350 -12.398   7.136  1.00  0.00     0.061 C 
HETATM    8  C   UNL     1      44.284 -10.902   6.744  1.00  0.00     0.132 C 
HETATM    9  N   UNL     1      42.027 -13.615   4.607  1.00  0.00    -0.357 N 
HETATM   10  H   UNL     1      41.289 -13.480   3.931  1.00  0.00     0.166 HD
HETATM   11  C   UNL     1      42.560 -14.841   4.949  1.00  0.00     0.043 A 
HETATM   12  C   UNL     1      43.528 -14.616   5.933  1.00  0.00    -0.001 A 
HETATM   13  C   UNL     1      42.249 -16.119   4.471  1.00  0.00     0.030 A 
HETATM   14  C   UNL     1      42.947 -17.201   5.013  1.00  0.00     0.002 A 
HETATM   15  C   UNL     1      43.917 -17.009   5.995  1.00  0.00     0.001 A 
HETATM   16  C   UNL     1      44.217 -15.724   6.464  1.00  0.00     0.014 A 
HETATM   17  O   UNL     1      40.909  -9.503   6.884  1.00  0.00    -0.247 OA
HETATM   18  H   UNL     1      43.647  -8.425   7.501  1.00  0.00     0.171 HD
ENDROOT
BRANCH   1  19
HETATM   19  C   UNL     1      42.125  -7.841   8.758  1.00  0.00     0.069 C 
HETATM   20  C   UNL     1      41.561  -8.186  10.000  1.00  0.00     0.096 C 
HETATM   21  C   UNL     1      40.743  -7.266  10.657  1.00  0.00     0.039 C 
HETATM   22  C   UNL     1      40.576  -5.977  10.145  1.00  0.00     0.003 C 
HETATM   23  C   UNL     1      41.221  -5.605   8.969  1.00  0.00     0.002 C 
HETATM   24  C   UNL     1      41.999  -6.533   8.276  1.00  0.00     0.032 C 
BRANCH  20  25
HETATM   25  O   UNL     1      41.810  -9.430  10.503  1.00  0.00    -0.339 OA
BRANCH  25  26
HETATM   26  C   UNL     1      42.699  -9.605  11.625  1.00  0.00     0.057 C 
HETATM   27  C   UNL     1      41.877 -10.083  12.828  1.00  0.00     0.045 C 
HETATM   28  C   UNL     1      43.583  -8.403  12.006  1.00  0.00     0.045 C 
HETATM   29  C   UNL     1      43.641 -10.747  11.200  1.00  0.00     0.045 C 
ENDBRANCH  25  26
ENDBRANCH  20  25
ENDBRANCH   1  19
TORSDOF 3
ENDMDL
MODEL 6
REMARK VINA RESULT:      -7.5      1.698      3.138
REMARK  3 active torsions:
REMARK  status: ('A' for Active; 'I' for Inactive)
REMARK    1  A    between atoms: C_2  and  O_3 
REMARK    2  A    between atoms: O_3  and  C_4 
REMARK    3  A    between atoms: C_5  and  N_6 
REMARK       I    between atoms: N_6  and  C_7 
REMARK       I    between atoms: C_7  and  N_8 
ROOT
HETATM    1  N   UNL     1      40.253 -11.883   0.726  1.00  0.00    -0.306 N 
HETATM    2  C   UNL     1      41.093 -12.200   1.782  1.00  0.00     0.323 C 
HETATM    3  N   UNL     1      40.834 -13.438   2.358  1.00  0.00    -0.328 N 
HETATM    4  C   UNL     1      41.466 -13.731   3.650  1.00  0.00     0.185 C 
HETATM    5  C   UNL     1      42.094 -15.076   3.576  1.00  0.00     0.035 A 
HETATM    6  C   UNL     1      41.906 -16.027   2.593  1.00  0.00    -0.020 A 
HETATM    7  C   UNL     1      41.027 -15.758   1.420  1.00  0.00     0.061 C 
HETATM    8  C   UNL     1      40.104 -14.551   1.712  1.00  0.00     0.132 C 
HETATM    9  N   UNL     1      42.977 -15.572   4.491  1.00  0.00    -0.357 N 
HETATM   10  H   UNL     1      43.316 -15.083   5.308  1.00  0.00     0.166 HD
HETATM   11  C   UNL     1      43.368 -16.842   4.122  1.00  0.00     0.043 A 
HETATM   12  C   UNL     1      42.707 -17.153   2.929  1.00  0.00    -0.001 A 
HETATM   13  C   UNL     1      44.258 -17.724   4.746  1.00  0.00     0.030 A 
HETATM   14  C   UNL     1      44.481 -18.960   4.133  1.00  0.00     0.002 A 
HETATM   15  C   UNL     1      43.838 -19.297   2.945  1.00  0.00     0.001 A 
HETATM   16  C   UNL     1      42.950 -18.405   2.332  1.00  0.00     0.014 A 
HETATM   17  O   UNL     1      41.918 -11.422   2.254  1.00  0.00    -0.247 OA
HETATM   18  H   UNL     1      39.299 -12.124   0.952  1.00  0.00     0.171 HD
ENDROOT
BRANCH   1  19
HETATM   19  C   UNL     1      40.414 -10.652   0.040  1.00  0.00     0.069 C 
HETATM   20  C   UNL     1      39.577  -9.546   0.273  1.00  0.00     0.096 C 
HETATM   21  C   UNL     1      39.677  -8.428  -0.555  1.00  0.00     0.039 C 
HETATM   22  C   UNL     1      40.671  -8.360  -1.534  1.00  0.00     0.003 C 
HETATM   23  C   UNL     1      41.566  -9.415  -1.693  1.00  0.00     0.002 C 
HETATM   24  C   UNL     1      41.442 -10.559  -0.905  1.00  0.00     0.032 C 
BRANCH  20  25
HETATM   25  O   UNL     1      38.669  -9.622   1.289  1.00  0.00    -0.339 OA
BRANCH  25  26
HETATM   26  C   UNL     1      38.913  -8.957   2.546  1.00  0.00     0.057 C 
HETATM   27  C   UNL     1      37.861  -7.856   2.726  1.00  0.00     0.045 C 
HETATM   28  C   UNL     1      40.332  -8.405   2.776  1.00  0.00     0.045 C 
HETATM   29  C   UNL     1      38.666 -10.040   3.613  1.00  0.00     0.045 C 
ENDBRANCH  25  26
ENDBRANCH  20  25
ENDBRANCH   1  19
TORSDOF 3
ENDMDL
MODEL 7
REMARK VINA RESULT:      -7.4      6.578      8.867
REMARK  3 active torsions:
REMARK  status: ('A' for Active; 'I' for Inactive)
REMARK    1  A    between atoms: C_2  and  O_3 
REMARK    2  A    between atoms: O_3  and  C_4 
REMARK    3  A    between atoms: C_5  and  N_6 
REMARK       I    between atoms: N_6  and  C_7 
REMARK       I    between atoms: C_7  and  N_8 
ROOT
HETATM    1  N   UNL     1      40.488  -9.014   8.498  1.00  0.00    -0.306 N 
HETATM    2  C   UNL     1      39.771 -10.036   7.897  1.00  0.00     0.323 C 
HETATM    3  N   UNL     1      40.336 -10.504   6.716  1.00  0.00    -0.328 N 
HETATM    4  C   UNL     1      39.511 -11.368   5.864  1.00  0.00     0.185 C 
HETATM    5  C   UNL     1      40.313 -12.560   5.482  1.00  0.00     0.035 A 
HETATM    6  C   UNL     1      41.672 -12.733   5.642  1.00  0.00    -0.020 A 
HETATM    7  C   UNL     1      42.510 -11.684   6.291  1.00  0.00     0.061 C 
HETATM    8  C   UNL     1      41.751 -10.336   6.315  1.00  0.00     0.132 C 
HETATM    9  N   UNL     1      39.800 -13.689   4.910  1.00  0.00    -0.357 N 
HETATM   10  H   UNL     1      38.826 -13.851   4.696  1.00  0.00     0.166 HD
HETATM   11  C   UNL     1      40.812 -14.600   4.689  1.00  0.00     0.043 A 
HETATM   12  C   UNL     1      42.002 -14.021   5.141  1.00  0.00    -0.001 A 
HETATM   13  C   UNL     1      40.757 -15.885   4.136  1.00  0.00     0.030 A 
HETATM   14  C   UNL     1      41.953 -16.601   4.043  1.00  0.00     0.002 A 
HETATM   15  C   UNL     1      43.154 -16.052   4.486  1.00  0.00     0.001 A 
HETATM   16  C   UNL     1      43.193 -14.765   5.037  1.00  0.00     0.014 A 
HETATM   17  O   UNL     1      38.677 -10.427   8.293  1.00  0.00    -0.247 OA
HETATM   18  H   UNL     1      40.790  -8.344   7.807  1.00  0.00     0.171 HD
ENDROOT
BRANCH   1  19
HETATM   19  C   UNL     1      40.028  -8.452   9.717  1.00  0.00     0.069 C 
HETATM   20  C   UNL     1      40.417  -8.956  10.972  1.00  0.00     0.096 C 
HETATM   21  C   UNL     1      39.795  -8.474  12.123  1.00  0.00     0.039 C 
HETATM   22  C   UNL     1      38.878  -7.424  12.044  1.00  0.00     0.003 C 
HETATM   23  C   UNL     1      38.572  -6.856  10.810  1.00  0.00     0.002 C 
HETATM   24  C   UNL     1      39.149  -7.365   9.646  1.00  0.00     0.032 C 
BRANCH  20  25
HETATM   25  O   UNL     1      41.372  -9.930  11.011  1.00  0.00    -0.339 OA
BRANCH  25  26
HETATM   26  C   UNL     1      42.699  -9.640  11.497  1.00  0.00     0.057 C 
HETATM   27  C   UNL     1      42.810 -10.143  12.941  1.00  0.00     0.045 C 
HETATM   28  C   UNL     1      43.175  -8.180  11.386  1.00  0.00     0.045 C 
HETATM   29  C   UNL     1      43.631 -10.492  10.616  1.00  0.00     0.045 C 
ENDBRANCH  25  26
ENDBRANCH  20  25
ENDBRANCH   1  19
TORSDOF 3
ENDMDL
MODEL 8
REMARK VINA RESULT:      -7.4     15.815     17.786
REMARK  3 active torsions:
REMARK  status: ('A' for Active; 'I' for Inactive)
REMARK    1  A    between atoms: C_2  and  O_3 
REMARK    2  A    between atoms: O_3  and  C_4 
REMARK    3  A    between atoms: C_5  and  N_6 
REMARK       I    between atoms: N_6  and  C_7 
REMARK       I    between atoms: C_7  and  N_8 
ROOT
HETATM    1  N   UNL     1      45.266 -28.879  -0.190  1.00  0.00    -0.306 N 
HETATM    2  C   UNL     1      46.596 -28.758   0.179  1.00  0.00     0.323 C 
HETATM    3  N   UNL     1      46.802 -28.748   1.554  1.00  0.00    -0.328 N 
HETATM    4  C   UNL     1      48.123 -28.334   2.039  1.00  0.00     0.185 C 
HETATM    5  C   UNL     1      48.593 -29.328   3.039  1.00  0.00     0.035 A 
HETATM    6  C   UNL     1      47.844 -30.320   3.640  1.00  0.00    -0.020 A 
HETATM    7  C   UNL     1      46.410 -30.521   3.287  1.00  0.00     0.061 C 
HETATM    8  C   UNL     1      45.858 -29.266   2.568  1.00  0.00     0.132 C 
HETATM    9  N   UNL     1      49.871 -29.408   3.513  1.00  0.00    -0.357 N 
HETATM   10  H   UNL     1      50.642 -28.819   3.232  1.00  0.00     0.166 HD
HETATM   11  C   UNL     1      49.967 -30.441   4.423  1.00  0.00     0.043 A 
HETATM   12  C   UNL     1      48.703 -31.031   4.521  1.00  0.00    -0.001 A 
HETATM   13  C   UNL     1      51.074 -30.896   5.149  1.00  0.00     0.030 A 
HETATM   14  C   UNL     1      50.884 -31.987   6.001  1.00  0.00     0.002 A 
HETATM   15  C   UNL     1      49.638 -32.597   6.119  1.00  0.00     0.001 A 
HETATM   16  C   UNL     1      48.540 -32.130   5.386  1.00  0.00     0.014 A 
HETATM   17  O   UNL     1      47.510 -28.562  -0.617  1.00  0.00    -0.247 OA
HETATM   18  H   UNL     1      44.688 -28.283   0.382  1.00  0.00     0.171 HD
ENDROOT
BRANCH   1  19
HETATM   19  C   UNL     1      44.916 -28.914  -1.565  1.00  0.00     0.069 C 
HETATM   20  C   UNL     1      44.237 -30.004  -2.140  1.00  0.00     0.096 C 
HETATM   21  C   UNL     1      44.078 -30.055  -3.525  1.00  0.00     0.039 C 
HETATM   22  C   UNL     1      44.488 -28.985  -4.323  1.00  0.00     0.003 C 
HETATM   23  C   UNL     1      45.066 -27.860  -3.739  1.00  0.00     0.002 C 
HETATM   24  C   UNL     1      45.277 -27.821  -2.360  1.00  0.00     0.032 C 
BRANCH  20  25
HETATM   25  O   UNL     1      43.786 -30.995  -1.317  1.00  0.00    -0.339 OA
BRANCH  25  26
HETATM   26  C   UNL     1      44.579 -32.177  -1.084  1.00  0.00     0.057 C 
HETATM   27  C   UNL     1      44.637 -32.436   0.426  1.00  0.00     0.045 C 
HETATM   28  C   UNL     1      45.990 -32.199  -1.700  1.00  0.00     0.045 C 
HETATM   29  C   UNL     1      43.778 -33.318  -1.739  1.00  0.00     0.045 C 
ENDBRANCH  25  26
ENDBRANCH  20  25
ENDBRANCH   1  19
TORSDOF 3
ENDMDL
MODEL 9
REMARK VINA RESULT:      -7.4      5.226      8.352
REMARK  3 active torsions:
REMARK  status: ('A' for Active; 'I' for Inactive)
REMARK    1  A    between atoms: C_2  and  O_3 
REMARK    2  A    between atoms: O_3  and  C_4 
REMARK    3  A    between atoms: C_5  and  N_6 
REMARK       I    between atoms: N_6  and  C_7 
REMARK       I    between atoms: C_7  and  N_8 
ROOT
HETATM    1  N   UNL     1      42.690 -13.445   4.231  1.00  0.00    -0.306 N 
HETATM    2  C   UNL     1      42.710 -13.404   5.616  1.00  0.00     0.323 C 
HETATM    3  N   UNL     1      43.530 -12.412   6.140  1.00  0.00    -0.328 N 
HETATM    4  C   UNL     1      43.844 -12.477   7.572  1.00  0.00     0.185 C 
HETATM    5  C   UNL     1      43.620 -11.133   8.167  1.00  0.00     0.035 A 
HETATM    6  C   UNL     1      43.423  -9.947   7.490  1.00  0.00    -0.020 A 
HETATM    7  C   UNL     1      43.377  -9.910   6.000  1.00  0.00     0.061 C 
HETATM    8  C   UNL     1      43.990 -11.206   5.417  1.00  0.00     0.132 C 
HETATM    9  N   UNL     1      43.567 -10.877   9.507  1.00  0.00    -0.357 N 
HETATM   10  H   UNL     1      43.657 -11.564  10.243  1.00  0.00     0.166 HD
HETATM   11  C   UNL     1      43.342  -9.532   9.716  1.00  0.00     0.043 A 
HETATM   12  C   UNL     1      43.248  -8.924   8.461  1.00  0.00    -0.001 A 
HETATM   13  C   UNL     1      43.206  -8.821  10.914  1.00  0.00     0.030 A 
HETATM   14  C   UNL     1      42.965  -7.447  10.828  1.00  0.00     0.002 A 
HETATM   15  C   UNL     1      42.865  -6.814   9.592  1.00  0.00     0.001 A 
HETATM   16  C   UNL     1      43.004  -7.538   8.402  1.00  0.00     0.014 A 
HETATM   17  O   UNL     1      42.154 -14.232   6.331  1.00  0.00    -0.247 OA
HETATM   18  H   UNL     1      43.624 -13.343   3.863  1.00  0.00     0.171 HD
ENDROOT
BRANCH   1  19
HETATM   19  C   UNL     1      41.884 -14.404   3.565  1.00  0.00     0.069 C 
HETATM   20  C   UNL     1      42.348 -15.698   3.265  1.00  0.00     0.096 C 
HETATM   21  C   UNL     1      41.573 -16.530   2.458  1.00  0.00     0.039 C 
HETATM   22  C   UNL     1      40.302 -16.128   2.043  1.00  0.00     0.003 C 
HETATM   23  C   UNL     1      39.802 -14.887   2.428  1.00  0.00     0.002 C 
HETATM   24  C   UNL     1      40.589 -14.025   3.192  1.00  0.00     0.032 C 
BRANCH  20  25
HETATM   25  O   UNL     1      43.564 -16.080   3.753  1.00  0.00    -0.339 OA
BRANCH  25  26
HETATM   26  C   UNL     1      43.661 -17.095   4.774  1.00  0.00     0.057 C 
HETATM   27  C   UNL     1      44.196 -18.381   4.133  1.00  0.00     0.045 C 
HETATM   28  C   UNL     1      42.389 -17.378   5.595  1.00  0.00     0.045 C 
HETATM   29  C   UNL     1      44.726 -16.563   5.751  1.00  0.00     0.045 C 
ENDBRANCH  25  26
ENDBRANCH  20  25
ENDBRANCH   1  19
TORSDOF 3
ENDMDL
MODEL 10
REMARK VINA RESULT:      -7.3      1.642      2.737
REMARK  3 active torsions:
REMARK  status: ('A' for Active; 'I' for Inactive)
REMARK    1  A    between atoms: C_2  and  O_3 
REMARK    2  A    between atoms: O_3  and  C_4 
REMARK    3  A    between atoms: C_5  and  N_6 
REMARK       I    between atoms: N_6  and  C_7 
REMARK       I    between atoms: C_7  and  N_8 
ROOT
HETATM    1  N   UNL     1      40.361 -11.659   0.424  1.00  0.00    -0.306 N 
HETATM    2  C   UNL     1      41.105 -11.951   1.556  1.00  0.00     0.323 C 
HETATM    3  N   UNL     1      40.827 -13.195   2.110  1.00  0.00    -0.328 N 
HETATM    4  C   UNL     1      41.340 -13.469   3.457  1.00  0.00     0.185 C 
HETATM    5  C   UNL     1      42.009 -14.796   3.448  1.00  0.00     0.035 A 
HETATM    6  C   UNL     1      41.942 -15.753   2.456  1.00  0.00    -0.020 A 
HETATM    7  C   UNL     1      41.172 -15.510   1.203  1.00  0.00     0.061 C 
HETATM    8  C   UNL     1      40.192 -14.329   1.401  1.00  0.00     0.132 C 
HETATM    9  N   UNL     1      42.814 -15.266   4.446  1.00  0.00    -0.357 N 
HETATM   10  H   UNL     1      43.060 -14.767   5.289  1.00  0.00     0.166 HD
HETATM   11  C   UNL     1      43.273 -16.525   4.120  1.00  0.00     0.043 A 
HETATM   12  C   UNL     1      42.738 -16.856   2.871  1.00  0.00    -0.001 A 
HETATM   13  C   UNL     1      44.123 -17.381   4.829  1.00  0.00     0.030 A 
HETATM   14  C   UNL     1      44.438 -18.611   4.246  1.00  0.00     0.002 A 
HETATM   15  C   UNL     1      43.921 -18.968   3.003  1.00  0.00     0.001 A 
HETATM   16  C   UNL     1      43.071 -18.101   2.305  1.00  0.00     0.014 A 
HETATM   17  O   UNL     1      41.859 -11.151   2.101  1.00  0.00    -0.247 OA
HETATM   18  H   UNL     1      39.397 -11.926   0.559  1.00  0.00     0.171 HD
ENDROOT
BRANCH   1  19
HETATM   19  C   UNL     1      40.553 -10.425  -0.249  1.00  0.00     0.069 C 
HETATM   20  C   UNL     1      39.639  -9.360  -0.143  1.00  0.00     0.096 C 
HETATM   21  C   UNL     1      39.795  -8.243  -0.963  1.00  0.00     0.039 C 
HETATM   22  C   UNL     1      40.907  -8.131  -1.800  1.00  0.00     0.003 C 
HETATM   23  C   UNL     1      41.866  -9.140  -1.826  1.00  0.00     0.002 C 
HETATM   24  C   UNL     1      41.693 -10.286  -1.048  1.00  0.00     0.032 C 
BRANCH  20  25
HETATM   25  O   UNL     1      38.607  -9.477   0.743  1.00  0.00    -0.339 OA
BRANCH  25  26
HETATM   26  C   UNL     1      37.317  -9.956   0.310  1.00  0.00     0.057 C 
HETATM   27  C   UNL     1      36.930 -11.161   1.175  1.00  0.00     0.045 C 
HETATM   28  C   UNL     1      37.164 -10.282  -1.187  1.00  0.00     0.045 C 
HETATM   29  C   UNL     1      36.348  -8.802   0.627  1.00  0.00     0.045 C 
ENDBRANCH  25  26
ENDBRANCH  20  25
ENDBRANCH   1  19
TORSDOF 3
ENDMDL
