MODEL 1
REMARK VINA RESULT:      -7.9      0.000      0.000
REMARK  6 active torsions:
REMARK  status: ('A' for Active; 'I' for Inactive)
REMARK    1  A    between atoms: C_3  and  C_4 
REMARK       I    between atoms: C_4  and  N_5 
REMARK    2  A    between atoms: N_5  and  C_6 
REMARK    3  A    between atoms: C_6  and  C_7 
REMARK    4  A    between atoms: C_7  and  N_8 
REMARK    5  A    between atoms: C_7  and  C_14 
REMARK    6  A    between atoms: C_21  and  C_22 
ROOT
HETATM    1  C   UNL     1      42.117 -13.179   3.442  1.00  0.00     0.272 C 
HETATM    2  N   UNL     1      43.116 -12.275   3.751  1.00  0.00    -0.354 N 
HETATM    3  O   UNL     1      40.929 -12.879   3.440  1.00  0.00    -0.266 OA
HETATM    4  H   UNL     1      44.031 -12.716   3.851  1.00  0.00     0.162 HD
ENDROOT
BRANCH   1   5
HETATM    5  C   UNL     1      42.646 -14.504   3.074  1.00  0.00     0.152 A 
HETATM    6  C   UNL     1      42.587 -15.719   3.819  1.00  0.00     0.003 A 
HETATM    7  C   UNL     1      42.011 -15.904   5.178  1.00  0.00     0.053 C 
HETATM    8  C   UNL     1      43.197 -16.667   3.010  1.00  0.00     0.069 A 
HETATM    9  N   UNL     1      43.595 -15.984   1.891  1.00  0.00    -0.276 N 
HETATM   10  N   UNL     1      43.284 -14.675   1.896  1.00  0.00    -0.168 NA
HETATM   11  H   UNL     1      44.072 -16.370   1.082  1.00  0.00     0.189 HD
BRANCH   8  12
HETATM   12  C   UNL     1      43.422 -18.102   3.169  1.00  0.00    -0.007 A 
HETATM   13  C   UNL     1      43.975 -18.614   4.352  1.00  0.00     0.014 A 
HETATM   14  C   UNL     1      44.204 -19.985   4.491  1.00  0.00     0.001 A 
HETATM   15  C   UNL     1      43.883 -20.857   3.454  1.00  0.00     0.000 A 
HETATM   16  C   UNL     1      43.332 -20.360   2.275  1.00  0.00     0.001 A 
HETATM   17  C   UNL     1      43.105 -18.990   2.133  1.00  0.00     0.014 A 
ENDBRANCH   8  12
ENDBRANCH   1   5
BRANCH   2  18
HETATM   18  C   UNL     1      42.843 -10.982   4.335  1.00  0.00     0.156 C 
BRANCH  18  19
HETATM   19  C   UNL     1      43.315 -10.807   5.811  1.00  0.00     0.209 C 
BRANCH  19  20
HETATM   20  N   UNL     1      42.155 -10.771   6.822  1.00  0.00    -0.065 N 
HETATM   21  H   UNL     1      42.271 -11.594   7.421  1.00  0.00     0.280 HD
HETATM   22  C   UNL     1      40.741 -10.888   6.277  1.00  0.00     0.235 C 
HETATM   23  C   UNL     1      39.983  -9.726   6.895  1.00  0.00     0.029 C 
HETATM   24  C   UNL     1      40.713  -9.454   8.194  1.00  0.00     0.029 C 
HETATM   25  C   UNL     1      42.170  -9.627   7.819  1.00  0.00     0.235 C 
ENDBRANCH  19  20
BRANCH  19  26
HETATM   26  C   UNL     1      44.333 -11.914   6.233  1.00  0.00     0.010 C 
HETATM   27  C   UNL     1      45.518 -11.333   7.019  1.00  0.00     0.011 C 
HETATM   28  C   UNL     1      43.694 -13.019   7.087  1.00  0.00     0.011 C 
ENDBRANCH  19  26
ENDBRANCH  18  19
ENDBRANCH   2  18
TORSDOF 6
ENDMDL
MODEL 2
REMARK VINA RESULT:      -7.8      3.647      5.968
REMARK  6 active torsions:
REMARK  status: ('A' for Active; 'I' for Inactive)
REMARK    1  A    between atoms: C_3  and  C_4 
REMARK       I    between atoms: C_4  and  N_5 
REMARK    2  A    between atoms: N_5  and  C_6 
REMARK    3  A    between atoms: C_6  and  C_7 
REMARK    4  A    between atoms: C_7  and  N_8 
REMARK    5  A    between atoms: C_7  and  C_14 
REMARK    6  A    between atoms: C_21  and  C_22 
ROOT
HETATM    1  C   UNL     1      41.300 -13.447   2.853  1.00  0.00     0.272 C 
HETATM    2  N   UNL     1      40.223 -13.417   1.989  1.00  0.00    -0.354 N 
HETATM    3  O   UNL     1      41.520 -12.560   3.671  1.00  0.00    -0.266 OA
HETATM    4  H   UNL     1      40.266 -14.148   1.278  1.00  0.00     0.162 HD
ENDROOT
BRANCH   1   5
HETATM    5  C   UNL     1      42.108 -14.671   2.711  1.00  0.00     0.152 A 
HETATM    6  C   UNL     1      41.990 -15.898   3.429  1.00  0.00     0.003 A 
HETATM    7  C   UNL     1      41.038 -16.197   4.533  1.00  0.00     0.053 C 
HETATM    8  C   UNL     1      42.960 -16.728   2.885  1.00  0.00     0.069 A 
HETATM    9  N   UNL     1      43.594 -15.968   1.938  1.00  0.00    -0.276 N 
HETATM   10  N   UNL     1      43.110 -14.720   1.808  1.00  0.00    -0.168 NA
HETATM   11  H   UNL     1      44.359 -16.261   1.337  1.00  0.00     0.189 HD
BRANCH   8  12
HETATM   12  C   UNL     1      43.329 -18.117   3.146  1.00  0.00    -0.007 A 
HETATM   13  C   UNL     1      43.138 -19.105   2.170  1.00  0.00     0.014 A 
HETATM   14  C   UNL     1      43.478 -20.435   2.431  1.00  0.00     0.001 A 
HETATM   15  C   UNL     1      44.012 -20.791   3.668  1.00  0.00     0.000 A 
HETATM   16  C   UNL     1      44.208 -19.817   4.645  1.00  0.00     0.001 A 
HETATM   17  C   UNL     1      43.866 -18.488   4.386  1.00  0.00     0.014 A 
ENDBRANCH   8  12
ENDBRANCH   1   5
BRANCH   2  18
HETATM   18  C   UNL     1      39.410 -12.238   1.798  1.00  0.00     0.156 C 
BRANCH  18  19
HETATM   19  C   UNL     1      39.374 -11.685   0.341  1.00  0.00     0.209 C 
BRANCH  19  20
HETATM   20  N   UNL     1      40.073 -12.603  -0.677  1.00  0.00    -0.065 N 
HETATM   21  H   UNL     1      40.660 -13.242  -0.132  1.00  0.00     0.280 HD
HETATM   22  C   UNL     1      41.026 -11.958  -1.671  1.00  0.00     0.235 C 
HETATM   23  C   UNL     1      40.584 -12.471  -3.030  1.00  0.00     0.029 C 
HETATM   24  C   UNL     1      39.941 -13.809  -2.733  1.00  0.00     0.029 C 
HETATM   25  C   UNL     1      39.176 -13.553  -1.450  1.00  0.00     0.235 C 
ENDBRANCH  19  20
BRANCH  19  26
HETATM   26  C   UNL     1      37.917 -11.397  -0.139  1.00  0.00     0.010 C 
HETATM   27  C   UNL     1      36.961 -11.158   1.040  1.00  0.00     0.011 C 
HETATM   28  C   UNL     1      37.825 -10.183  -1.076  1.00  0.00     0.011 C 
ENDBRANCH  19  26
ENDBRANCH  18  19
ENDBRANCH   2  18
TORSDOF 6
ENDMDL
MODEL 3
REMARK VINA RESULT:      -7.5      3.268      5.594
REMARK  6 active torsions:
REMARK  status: ('A' for Active; 'I' for Inactive)
REMARK    1  A    between atoms: C_3  and  C_4 
REMARK       I    between atoms: C_4  and  N_5 
REMARK    2  A    between atoms: N_5  and  C_6 
REMARK    3  A    between atoms: C_6  and  C_7 
REMARK    4  A    between atoms: C_7  and  N_8 
REMARK    5  A    between atoms: C_7  and  C_14 
REMARK    6  A    between atoms: C_21  and  C_22 
ROOT
HETATM    1  C   UNL     1      42.815 -13.075   3.247  1.00  0.00     0.272 C 
HETATM    2  N   UNL     1      41.777 -12.817   2.371  1.00  0.00    -0.354 N 
HETATM    3  O   UNL     1      43.565 -12.199   3.663  1.00  0.00    -0.266 OA
HETATM    4  H   UNL     1      41.345 -13.668   2.009  1.00  0.00     0.162 HD
ENDROOT
BRANCH   1   5
HETATM    5  C   UNL     1      42.879 -14.490   3.650  1.00  0.00     0.152 A 
HETATM    6  C   UNL     1      43.194 -15.627   2.846  1.00  0.00     0.003 A 
HETATM    7  C   UNL     1      43.484 -15.633   1.387  1.00  0.00     0.053 C 
HETATM    8  C   UNL     1      43.149 -16.706   3.717  1.00  0.00     0.069 A 
HETATM    9  N   UNL     1      42.794 -16.177   4.930  1.00  0.00    -0.276 N 
HETATM   10  N   UNL     1      42.617 -14.844   4.927  1.00  0.00    -0.168 NA
HETATM   11  H   UNL     1      42.672 -16.684   5.801  1.00  0.00     0.189 HD
BRANCH   8  12
HETATM   12  C   UNL     1      43.411 -18.132   3.535  1.00  0.00    -0.007 A 
HETATM   13  C   UNL     1      43.048 -18.781   2.346  1.00  0.00     0.014 A 
HETATM   14  C   UNL     1      43.285 -20.149   2.185  1.00  0.00     0.001 A 
HETATM   15  C   UNL     1      43.888 -20.880   3.206  1.00  0.00     0.000 A 
HETATM   16  C   UNL     1      44.255 -20.245   4.390  1.00  0.00     0.001 A 
HETATM   17  C   UNL     1      44.016 -18.879   4.554  1.00  0.00     0.014 A 
ENDBRANCH   8  12
ENDBRANCH   1   5
BRANCH   2  18
HETATM   18  C   UNL     1      41.636 -11.556   1.680  1.00  0.00     0.156 C 
BRANCH  18  19
HETATM   19  C   UNL     1      40.604 -11.551   0.512  1.00  0.00     0.209 C 
BRANCH  19  20
HETATM   20  N   UNL     1      40.971 -12.515  -0.630  1.00  0.00    -0.065 N 
HETATM   21  H   UNL     1      41.881 -12.917  -0.385  1.00  0.00     0.280 HD
HETATM   22  C   UNL     1      41.175 -11.922  -2.015  1.00  0.00     0.235 C 
HETATM   23  C   UNL     1      40.310 -12.765  -2.935  1.00  0.00     0.029 C 
HETATM   24  C   UNL     1      40.230 -14.110  -2.244  1.00  0.00     0.029 C 
HETATM   25  C   UNL     1      40.092 -13.743  -0.781  1.00  0.00     0.235 C 
ENDBRANCH  19  20
BRANCH  19  26
HETATM   26  C   UNL     1      39.158 -11.868   1.009  1.00  0.00     0.010 C 
HETATM   27  C   UNL     1      38.924 -11.371   2.444  1.00  0.00     0.011 C 
HETATM   28  C   UNL     1      38.071 -11.257   0.113  1.00  0.00     0.011 C 
ENDBRANCH  19  26
ENDBRANCH  18  19
ENDBRANCH   2  18
TORSDOF 6
ENDMDL
MODEL 4
REMARK VINA RESULT:      -7.5      3.902      5.947
REMARK  6 active torsions:
REMARK  status: ('A' for Active; 'I' for Inactive)
REMARK    1  A    between atoms: C_3  and  C_4 
REMARK       I    between atoms: C_4  and  N_5 
REMARK    2  A    between atoms: N_5  and  C_6 
REMARK    3  A    between atoms: C_6  and  C_7 
REMARK    4  A    between atoms: C_7  and  N_8 
REMARK    5  A    between atoms: C_7  and  C_14 
REMARK    6  A    between atoms: C_21  and  C_22 
ROOT
HETATM    1  C   UNL     1      41.015 -13.487   2.170  1.00  0.00     0.272 C 
HETATM    2  N   UNL     1      40.149 -13.523   1.094  1.00  0.00    -0.354 N 
HETATM    3  O   UNL     1      41.000 -12.589   3.004  1.00  0.00    -0.266 OA
HETATM    4  H   UNL     1      40.387 -14.250   0.419  1.00  0.00     0.162 HD
ENDROOT
BRANCH   1   5
HETATM    5  C   UNL     1      41.904 -14.661   2.222  1.00  0.00     0.152 A 
HETATM    6  C   UNL     1      41.737 -15.867   2.964  1.00  0.00     0.003 A 
HETATM    7  C   UNL     1      40.630 -16.188   3.905  1.00  0.00     0.053 C 
HETATM    8  C   UNL     1      42.832 -16.651   2.630  1.00  0.00     0.069 A 
HETATM    9  N   UNL     1      43.573 -15.885   1.769  1.00  0.00    -0.276 N 
HETATM   10  N   UNL     1      43.047 -14.676   1.502  1.00  0.00    -0.168 NA
HETATM   11  H   UNL     1      44.445 -16.148   1.319  1.00  0.00     0.189 HD
BRANCH   8  12
HETATM   12  C   UNL     1      43.232 -18.003   3.012  1.00  0.00    -0.007 A 
HETATM   13  C   UNL     1      43.812 -18.252   4.264  1.00  0.00     0.014 A 
HETATM   14  C   UNL     1      44.207 -19.545   4.618  1.00  0.00     0.001 A 
HETATM   15  C   UNL     1      44.027 -20.599   3.727  1.00  0.00     0.000 A 
HETATM   16  C   UNL     1      43.451 -20.364   2.480  1.00  0.00     0.001 A 
HETATM   17  C   UNL     1      43.057 -19.072   2.125  1.00  0.00     0.014 A 
ENDBRANCH   8  12
ENDBRANCH   1   5
BRANCH   2  18
HETATM   18  C   UNL     1      39.328 -12.395   0.717  1.00  0.00     0.156 C 
BRANCH  18  19
HETATM   19  C   UNL     1      39.130 -12.202  -0.818  1.00  0.00     0.209 C 
BRANCH  19  20
HETATM   20  N   UNL     1      40.265 -11.405  -1.483  1.00  0.00    -0.065 N 
HETATM   21  H   UNL     1      40.806 -12.081  -2.032  1.00  0.00     0.280 HD
HETATM   22  C   UNL     1      41.287 -10.741  -0.575  1.00  0.00     0.235 C 
HETATM   23  C   UNL     1      41.359  -9.301  -1.050  1.00  0.00     0.029 C 
HETATM   24  C   UNL     1      40.971  -9.370  -2.512  1.00  0.00     0.029 C 
HETATM   25  C   UNL     1      39.847 -10.386  -2.527  1.00  0.00     0.235 C 
ENDBRANCH  19  20
BRANCH  19  26
HETATM   26  C   UNL     1      38.951 -13.565  -1.559  1.00  0.00     0.010 C 
HETATM   27  C   UNL     1      37.711 -13.567  -2.465  1.00  0.00     0.011 C 
HETATM   28  C   UNL     1      40.167 -13.940  -2.419  1.00  0.00     0.011 C 
ENDBRANCH  19  26
ENDBRANCH  18  19
ENDBRANCH   2  18
TORSDOF 6
ENDMDL
MODEL 5
REMARK VINA RESULT:      -7.4      4.465      6.596
REMARK  6 active torsions:
REMARK  status: ('A' for Active; 'I' for Inactive)
REMARK    1  A    between atoms: C_3  and  C_4 
REMARK       I    between atoms: C_4  and  N_5 
REMARK    2  A    between atoms: N_5  and  C_6 
REMARK    3  A    between atoms: C_6  and  C_7 
REMARK    4  A    between atoms: C_7  and  N_8 
REMARK    5  A    between atoms: C_7  and  C_14 
REMARK    6  A    between atoms: C_21  and  C_22 
ROOT
HETATM    1  C   UNL     1      40.774 -12.870   1.735  1.00  0.00     0.272 C 
HETATM    2  N   UNL     1      39.781 -12.853   0.774  1.00  0.00    -0.354 N 
HETATM    3  O   UNL     1      41.349 -11.855   2.113  1.00  0.00    -0.266 OA
HETATM    4  H   UNL     1      39.512 -13.789   0.468  1.00  0.00     0.162 HD
ENDROOT
BRANCH   1   5
HETATM    5  C   UNL     1      41.018 -14.219   2.276  1.00  0.00     0.152 A 
HETATM    6  C   UNL     1      42.246 -14.943   2.329  1.00  0.00     0.003 A 
HETATM    7  C   UNL     1      43.564 -14.503   1.795  1.00  0.00     0.053 C 
HETATM    8  C   UNL     1      41.933 -16.137   2.963  1.00  0.00     0.069 A 
HETATM    9  N   UNL     1      40.587 -16.070   3.212  1.00  0.00    -0.276 N 
HETATM   10  N   UNL     1      40.000 -14.930   2.807  1.00  0.00    -0.168 NA
HETATM   11  H   UNL     1      40.019 -16.775   3.673  1.00  0.00     0.189 HD
BRANCH   8  12
HETATM   12  C   UNL     1      42.743 -17.286   3.358  1.00  0.00    -0.007 A 
HETATM   13  C   UNL     1      43.053 -18.296   2.436  1.00  0.00     0.014 A 
HETATM   14  C   UNL     1      43.814 -19.402   2.824  1.00  0.00     0.001 A 
HETATM   15  C   UNL     1      44.274 -19.509   4.134  1.00  0.00     0.000 A 
HETATM   16  C   UNL     1      43.974 -18.511   5.059  1.00  0.00     0.001 A 
HETATM   17  C   UNL     1      43.211 -17.407   4.673  1.00  0.00     0.014 A 
ENDBRANCH   8  12
ENDBRANCH   1   5
BRANCH   2  18
HETATM   18  C   UNL     1      39.507 -11.694  -0.043  1.00  0.00     0.156 C 
BRANCH  18  19
HETATM   19  C   UNL     1      40.227 -11.670  -1.426  1.00  0.00     0.209 C 
BRANCH  19  20
HETATM   20  N   UNL     1      39.420 -12.354  -2.544  1.00  0.00    -0.065 N 
HETATM   21  H   UNL     1      39.751 -11.948  -3.425  1.00  0.00     0.280 HD
HETATM   22  C   UNL     1      37.915 -12.136  -2.562  1.00  0.00     0.235 C 
HETATM   23  C   UNL     1      37.318 -13.528  -2.662  1.00  0.00     0.029 C 
HETATM   24  C   UNL     1      38.385 -14.343  -3.361  1.00  0.00     0.029 C 
HETATM   25  C   UNL     1      39.673 -13.837  -2.743  1.00  0.00     0.235 C 
ENDBRANCH  19  20
BRANCH  19  26
HETATM   26  C   UNL     1      40.595 -10.219  -1.868  1.00  0.00     0.010 C 
HETATM   27  C   UNL     1      41.823  -9.684  -1.116  1.00  0.00     0.011 C 
HETATM   28  C   UNL     1      40.875 -10.106  -3.373  1.00  0.00     0.011 C 
ENDBRANCH  19  26
ENDBRANCH  18  19
ENDBRANCH   2  18
TORSDOF 6
ENDMDL
MODEL 6
REMARK VINA RESULT:      -7.3      3.985      7.226
REMARK  6 active torsions:
REMARK  status: ('A' for Active; 'I' for Inactive)
REMARK    1  A    between atoms: C_3  and  C_4 
REMARK       I    between atoms: C_4  and  N_5 
REMARK    2  A    between atoms: N_5  and  C_6 
REMARK    3  A    between atoms: C_6  and  C_7 
REMARK    4  A    between atoms: C_7  and  N_8 
REMARK    5  A    between atoms: C_7  and  C_14 
REMARK    6  A    between atoms: C_21  and  C_22 
ROOT
HETATM    1  C   UNL     1      41.438 -13.999   3.347  1.00  0.00     0.272 C 
HETATM    2  N   UNL     1      42.753 -14.409   3.239  1.00  0.00    -0.354 N 
HETATM    3  O   UNL     1      40.844 -13.948   4.418  1.00  0.00    -0.266 OA
HETATM    4  H   UNL     1      43.050 -14.536   2.271  1.00  0.00     0.162 HD
ENDROOT
BRANCH   1   5
HETATM    5  C   UNL     1      40.863 -13.593   2.052  1.00  0.00     0.152 A 
HETATM    6  C   UNL     1      40.140 -14.389   1.115  1.00  0.00     0.003 A 
HETATM    7  C   UNL     1      39.847 -15.844   1.221  1.00  0.00     0.053 C 
HETATM    8  C   UNL     1      39.796 -13.517   0.092  1.00  0.00     0.069 A 
HETATM    9  N   UNL     1      40.339 -12.311   0.449  1.00  0.00    -0.276 N 
HETATM   10  N   UNL     1      40.993 -12.319   1.624  1.00  0.00    -0.168 NA
HETATM   11  H   UNL     1      40.277 -11.440  -0.071  1.00  0.00     0.189 HD
BRANCH   8  12
HETATM   12  C   UNL     1      39.025 -13.692  -1.137  1.00  0.00    -0.007 A 
HETATM   13  C   UNL     1      39.277 -14.774  -1.993  1.00  0.00     0.014 A 
HETATM   14  C   UNL     1      38.548 -14.927  -3.175  1.00  0.00     0.001 A 
HETATM   15  C   UNL     1      37.561 -14.004  -3.513  1.00  0.00     0.000 A 
HETATM   16  C   UNL     1      37.301 -12.927  -2.669  1.00  0.00     0.001 A 
HETATM   17  C   UNL     1      38.031 -12.771  -1.489  1.00  0.00     0.014 A 
ENDBRANCH   8  12
ENDBRANCH   1   5
BRANCH   2  18
HETATM   18  C   UNL     1      43.463 -15.044   4.326  1.00  0.00     0.156 C 
BRANCH  18  19
HETATM   19  C   UNL     1      43.027 -16.508   4.638  1.00  0.00     0.209 C 
BRANCH  19  20
HETATM   20  N   UNL     1      43.722 -17.554   3.748  1.00  0.00    -0.065 N 
HETATM   21  H   UNL     1      44.692 -17.240   3.642  1.00  0.00     0.280 HD
HETATM   22  C   UNL     1      43.213 -17.720   2.326  1.00  0.00     0.235 C 
HETATM   23  C   UNL     1      42.982 -19.211   2.162  1.00  0.00     0.029 C 
HETATM   24  C   UNL     1      43.953 -19.848   3.133  1.00  0.00     0.029 C 
HETATM   25  C   UNL     1      43.883 -18.940   4.344  1.00  0.00     0.235 C 
ENDBRANCH  19  20
BRANCH  19  26
HETATM   26  C   UNL     1      43.251 -16.876   6.139  1.00  0.00     0.010 C 
HETATM   27  C   UNL     1      44.602 -16.362   6.660  1.00  0.00     0.011 C 
HETATM   28  C   UNL     1      42.150 -16.329   7.059  1.00  0.00     0.011 C 
ENDBRANCH  19  26
ENDBRANCH  18  19
ENDBRANCH   2  18
TORSDOF 6
ENDMDL
MODEL 7
REMARK VINA RESULT:      -7.3      4.272      5.958
REMARK  6 active torsions:
REMARK  status: ('A' for Active; 'I' for Inactive)
REMARK    1  A    between atoms: C_3  and  C_4 
REMARK       I    between atoms: C_4  and  N_5 
REMARK    2  A    between atoms: N_5  and  C_6 
REMARK    3  A    between atoms: C_6  and  C_7 
REMARK    4  A    between atoms: C_7  and  N_8 
REMARK    5  A    between atoms: C_7  and  C_14 
REMARK    6  A    between atoms: C_21  and  C_22 
ROOT
HETATM    1  C   UNL     1      41.227 -13.699   1.186  1.00  0.00     0.272 C 
HETATM    2  N   UNL     1      41.033 -13.724  -0.182  1.00  0.00    -0.354 N 
HETATM    3  O   UNL     1      40.676 -12.887   1.919  1.00  0.00    -0.266 OA
HETATM    4  H   UNL     1      41.673 -14.359  -0.660  1.00  0.00     0.162 HD
ENDROOT
BRANCH   1   5
HETATM    5  C   UNL     1      42.119 -14.776   1.652  1.00  0.00     0.152 A 
HETATM    6  C   UNL     1      41.764 -16.048   2.191  1.00  0.00     0.003 A 
HETATM    7  C   UNL     1      40.389 -16.554   2.450  1.00  0.00     0.053 C 
HETATM    8  C   UNL     1      42.973 -16.686   2.432  1.00  0.00     0.069 A 
HETATM    9  N   UNL     1      43.936 -15.783   2.068  1.00  0.00    -0.276 N 
HETATM   10  N   UNL     1      43.459 -14.617   1.597  1.00  0.00    -0.168 NA
HETATM   11  H   UNL     1      44.942 -15.919   2.107  1.00  0.00     0.189 HD
BRANCH   8  12
HETATM   12  C   UNL     1      43.302 -18.017   2.938  1.00  0.00    -0.007 A 
HETATM   13  C   UNL     1      43.794 -18.186   4.241  1.00  0.00     0.014 A 
HETATM   14  C   UNL     1      44.124 -19.459   4.714  1.00  0.00     0.001 A 
HETATM   15  C   UNL     1      43.964 -20.573   3.893  1.00  0.00     0.000 A 
HETATM   16  C   UNL     1      43.475 -20.417   2.598  1.00  0.00     0.001 A 
HETATM   17  C   UNL     1      43.148 -19.145   2.123  1.00  0.00     0.014 A 
ENDBRANCH   8  12
ENDBRANCH   1   5
BRANCH   2  18
HETATM   18  C   UNL     1      40.370 -12.657  -0.895  1.00  0.00     0.156 C 
BRANCH  18  19
HETATM   19  C   UNL     1      38.831 -12.831  -1.070  1.00  0.00     0.209 C 
BRANCH  19  20
HETATM   20  N   UNL     1      38.032 -11.558  -0.742  1.00  0.00    -0.065 N 
HETATM   21  H   UNL     1      37.152 -11.629  -1.261  1.00  0.00     0.280 HD
HETATM   22  C   UNL     1      38.623 -10.224  -1.169  1.00  0.00     0.235 C 
HETATM   23  C   UNL     1      38.582  -9.358   0.077  1.00  0.00     0.029 C 
HETATM   24  C   UNL     1      37.428  -9.915   0.882  1.00  0.00     0.029 C 
HETATM   25  C   UNL     1      37.562 -11.413   0.694  1.00  0.00     0.235 C 
ENDBRANCH  19  20
BRANCH  19  26
HETATM   26  C   UNL     1      38.459 -13.317  -2.507  1.00  0.00     0.010 C 
HETATM   27  C   UNL     1      38.848 -14.786  -2.733  1.00  0.00     0.011 C 
HETATM   28  C   UNL     1      36.963 -13.170  -2.819  1.00  0.00     0.011 C 
ENDBRANCH  19  26
ENDBRANCH  18  19
ENDBRANCH   2  18
TORSDOF 6
ENDMDL
MODEL 8
REMARK VINA RESULT:      -7.3      2.156      3.124
REMARK  6 active torsions:
REMARK  status: ('A' for Active; 'I' for Inactive)
REMARK    1  A    between atoms: C_3  and  C_4 
REMARK       I    between atoms: C_4  and  N_5 
REMARK    2  A    between atoms: N_5  and  C_6 
REMARK    3  A    between atoms: C_6  and  C_7 
REMARK    4  A    between atoms: C_7  and  N_8 
REMARK    5  A    between atoms: C_7  and  C_14 
REMARK    6  A    between atoms: C_21  and  C_22 
ROOT
HETATM    1  C   UNL     1      42.516 -11.941   6.338  1.00  0.00     0.272 C 
HETATM    2  N   UNL     1      43.592 -11.705   7.173  1.00  0.00    -0.354 N 
HETATM    3  O   UNL     1      41.482 -11.284   6.386  1.00  0.00    -0.266 OA
HETATM    4  H   UNL     1      44.309 -12.428   7.106  1.00  0.00     0.162 HD
ENDROOT
BRANCH   1   5
HETATM    5  C   UNL     1      42.775 -13.022   5.371  1.00  0.00     0.152 A 
HETATM    6  C   UNL     1      42.959 -14.414   5.626  1.00  0.00     0.003 A 
HETATM    7  C   UNL     1      42.977 -15.081   6.955  1.00  0.00     0.053 C 
HETATM    8  C   UNL     1      43.132 -14.989   4.375  1.00  0.00     0.069 A 
HETATM    9  N   UNL     1      43.075 -13.946   3.488  1.00  0.00    -0.276 N 
HETATM   10  N   UNL     1      42.866 -12.743   4.052  1.00  0.00    -0.168 NA
HETATM   11  H   UNL     1      43.159 -14.004   2.477  1.00  0.00     0.189 HD
BRANCH   8  12
HETATM   12  C   UNL     1      43.323 -16.371   3.942  1.00  0.00    -0.007 A 
HETATM   13  C   UNL     1      44.131 -17.248   4.681  1.00  0.00     0.014 A 
HETATM   14  C   UNL     1      44.325 -18.564   4.253  1.00  0.00     0.001 A 
HETATM   15  C   UNL     1      43.713 -19.017   3.087  1.00  0.00     0.000 A 
HETATM   16  C   UNL     1      42.907 -18.156   2.346  1.00  0.00     0.001 A 
HETATM   17  C   UNL     1      42.715 -16.839   2.771  1.00  0.00     0.014 A 
ENDBRANCH   8  12
ENDBRANCH   1   5
BRANCH   2  18
HETATM   18  C   UNL     1      43.507 -10.842   8.328  1.00  0.00     0.156 C 
BRANCH  18  19
HETATM   19  C   UNL     1      43.925  -9.360   8.083  1.00  0.00     0.209 C 
BRANCH  19  20
HETATM   20  N   UNL     1      42.838  -8.347   8.480  1.00  0.00    -0.065 N 
HETATM   21  H   UNL     1      42.276  -8.184   7.639  1.00  0.00     0.280 HD
HETATM   22  C   UNL     1      43.290  -6.962   8.914  1.00  0.00     0.235 C 
HETATM   23  C   UNL     1      42.583  -6.712  10.234  1.00  0.00     0.029 C 
HETATM   24  C   UNL     1      41.328  -7.555  10.151  1.00  0.00     0.029 C 
HETATM   25  C   UNL     1      41.806  -8.829   9.483  1.00  0.00     0.235 C 
ENDBRANCH  19  20
BRANCH  19  26
HETATM   26  C   UNL     1      45.258  -9.001   8.813  1.00  0.00     0.010 C 
HETATM   27  C   UNL     1      45.386  -9.727  10.161  1.00  0.00     0.011 C 
HETATM   28  C   UNL     1      46.504  -9.329   7.978  1.00  0.00     0.011 C 
ENDBRANCH  19  26
ENDBRANCH  18  19
ENDBRANCH   2  18
TORSDOF 6
ENDMDL
MODEL 9
REMARK VINA RESULT:      -7.3      2.160      3.866
REMARK  6 active torsions:
REMARK  status: ('A' for Active; 'I' for Inactive)
REMARK    1  A    between atoms: C_3  and  C_4 
REMARK       I    between atoms: C_4  and  N_5 
REMARK    2  A    between atoms: N_5  and  C_6 
REMARK    3  A    between atoms: C_6  and  C_7 
REMARK    4  A    between atoms: C_7  and  N_8 
REMARK    5  A    between atoms: C_7  and  C_14 
REMARK    6  A    between atoms: C_21  and  C_22 
ROOT
HETATM    1  C   UNL     1      40.840 -11.718   5.602  1.00  0.00     0.272 C 
HETATM    2  N   UNL     1      41.381 -11.201   6.764  1.00  0.00    -0.354 N 
HETATM    3  O   UNL     1      40.228 -11.032   4.792  1.00  0.00    -0.266 OA
HETATM    4  H   UNL     1      41.726 -11.924   7.396  1.00  0.00     0.162 HD
ENDROOT
BRANCH   1   5
HETATM    5  C   UNL     1      41.126 -13.154   5.434  1.00  0.00     0.152 A 
HETATM    6  C   UNL     1      42.031 -13.776   4.524  1.00  0.00     0.003 A 
HETATM    7  C   UNL     1      42.864 -13.100   3.493  1.00  0.00     0.053 C 
HETATM    8  C   UNL     1      41.945 -15.133   4.802  1.00  0.00     0.069 A 
HETATM    9  N   UNL     1      41.010 -15.238   5.798  1.00  0.00    -0.276 N 
HETATM   10  N   UNL     1      40.490 -14.065   6.202  1.00  0.00    -0.168 NA
HETATM   11  H   UNL     1      40.698 -16.093   6.250  1.00  0.00     0.189 HD
BRANCH   8  12
HETATM   12  C   UNL     1      42.638 -16.298   4.257  1.00  0.00    -0.007 A 
HETATM   13  C   UNL     1      42.326 -16.785   2.980  1.00  0.00     0.014 A 
HETATM   14  C   UNL     1      42.981 -17.910   2.471  1.00  0.00     0.001 A 
HETATM   15  C   UNL     1      43.952 -18.557   3.230  1.00  0.00     0.000 A 
HETATM   16  C   UNL     1      44.272 -18.081   4.499  1.00  0.00     0.001 A 
HETATM   17  C   UNL     1      43.617 -16.959   5.011  1.00  0.00     0.014 A 
ENDBRANCH   8  12
ENDBRANCH   1   5
BRANCH   2  18
HETATM   18  C   UNL     1      41.065  -9.877   7.248  1.00  0.00     0.156 C 
BRANCH  18  19
HETATM   19  C   UNL     1      42.089  -9.277   8.260  1.00  0.00     0.209 C 
BRANCH  19  20
HETATM   20  N   UNL     1      43.258 -10.226   8.578  1.00  0.00    -0.065 N 
HETATM   21  H   UNL     1      42.941 -11.167   8.324  1.00  0.00     0.280 HD
HETATM   22  C   UNL     1      43.693 -10.346  10.029  1.00  0.00     0.235 C 
HETATM   23  C   UNL     1      45.196 -10.130  10.008  1.00  0.00     0.029 C 
HETATM   24  C   UNL     1      45.618 -10.578   8.625  1.00  0.00     0.029 C 
HETATM   25  C   UNL     1      44.508 -10.056   7.735  1.00  0.00     0.235 C 
ENDBRANCH  19  20
BRANCH  19  26
HETATM   26  C   UNL     1      42.655  -7.906   7.773  1.00  0.00     0.010 C 
HETATM   27  C   UNL     1      41.769  -7.271   6.690  1.00  0.00     0.011 C 
HETATM   28  C   UNL     1      42.813  -6.888   8.912  1.00  0.00     0.011 C 
ENDBRANCH  19  26
ENDBRANCH  18  19
ENDBRANCH   2  18
TORSDOF 6
ENDMDL
MODEL 10
REMARK VINA RESULT:      -7.1      2.295      4.259
REMARK  6 active torsions:
REMARK  status: ('A' for Active; 'I' for Inactive)
REMARK    1  A    between atoms: C_3  and  C_4 
REMARK       I    between atoms: C_4  and  N_5 
REMARK    2  A    between atoms: N_5  and  C_6 
REMARK    3  A    between atoms: C_6  and  C_7 
REMARK    4  A    between atoms: C_7  and  N_8 
REMARK    5  A    between atoms: C_7  and  C_14 
REMARK    6  A    between atoms: C_21  and  C_22 
ROOT
HETATM    1  C   UNL     1      43.413 -11.692   6.594  1.00  0.00     0.272 C 
HETATM    2  N   UNL     1      42.221 -11.137   7.019  1.00  0.00    -0.354 N 
HETATM    3  O   UNL     1      44.469 -11.070   6.584  1.00  0.00    -0.266 OA
HETATM    4  H   UNL     1      41.416 -11.734   6.826  1.00  0.00     0.162 HD
ENDROOT
BRANCH   1   5
HETATM    5  C   UNL     1      43.274 -13.108   6.209  1.00  0.00     0.152 A 
HETATM    6  C   UNL     1      43.176 -13.664   4.899  1.00  0.00     0.003 A 
HETATM    7  C   UNL     1      43.144 -12.916   3.613  1.00  0.00     0.053 C 
HETATM    8  C   UNL     1      43.101 -15.036   5.095  1.00  0.00     0.069 A 
HETATM    9  N   UNL     1      43.124 -15.207   6.454  1.00  0.00    -0.276 N 
HETATM   10  N   UNL     1      43.224 -14.066   7.159  1.00  0.00    -0.168 NA
HETATM   11  H   UNL     1      43.091 -16.090   6.955  1.00  0.00     0.189 HD
BRANCH   8  12
HETATM   12  C   UNL     1      43.025 -16.162   4.168  1.00  0.00    -0.007 A 
HETATM   13  C   UNL     1      42.076 -16.179   3.136  1.00  0.00     0.014 A 
HETATM   14  C   UNL     1      41.998 -17.267   2.262  1.00  0.00     0.001 A 
HETATM   15  C   UNL     1      42.865 -18.346   2.410  1.00  0.00     0.000 A 
HETATM   16  C   UNL     1      43.814 -18.340   3.430  1.00  0.00     0.001 A 
HETATM   17  C   UNL     1      43.892 -17.254   4.306  1.00  0.00     0.014 A 
ENDBRANCH   8  12
ENDBRANCH   1   5
BRANCH   2  18
HETATM   18  C   UNL     1      42.061  -9.720   7.251  1.00  0.00     0.156 C 
BRANCH  18  19
HETATM   19  C   UNL     1      41.859  -9.310   8.742  1.00  0.00     0.209 C 
BRANCH  19  20
HETATM   20  N   UNL     1      43.177  -8.992   9.470  1.00  0.00    -0.065 N 
HETATM   21  H   UNL     1      42.922  -8.442  10.297  1.00  0.00     0.280 HD
HETATM   22  C   UNL     1      44.199  -8.137   8.739  1.00  0.00     0.235 C 
HETATM   23  C   UNL     1      45.502  -8.909   8.839  1.00  0.00     0.029 C 
HETATM   24  C   UNL     1      45.358  -9.722  10.109  1.00  0.00     0.029 C 
HETATM   25  C   UNL     1      43.913 -10.176  10.071  1.00  0.00     0.235 C 
ENDBRANCH  19  20
BRANCH  19  26
HETATM   26  C   UNL     1      40.884  -8.099   8.886  1.00  0.00     0.010 C 
HETATM   27  C   UNL     1      39.450  -8.465   8.474  1.00  0.00     0.011 C 
HETATM   28  C   UNL     1      40.838  -7.536  10.314  1.00  0.00     0.011 C 
ENDBRANCH  19  26
ENDBRANCH  18  19
ENDBRANCH   2  18
TORSDOF 6
ENDMDL
