MODEL 1
REMARK VINA RESULT:      -9.0      0.000      0.000
REMARK  6 active torsions:
REMARK  status: ('A' for Active; 'I' for Inactive)
REMARK    1  A    between atoms: C_2  and  O_3 
REMARK    2  A    between atoms: C_2  and  C_4 
REMARK    3  A    between atoms: C_2  and  C_11 
REMARK    4  A    between atoms: C_11  and  N_12 
REMARK       I    between atoms: N_12  and  C_13 
REMARK    5  A    between atoms: C_13  and  C_14 
REMARK    6  A    between atoms: C_18  and  C_19 
ROOT
HETATM    1  N   UNL     1      43.459 -11.647   7.511  1.00  0.00    -0.352 N 
HETATM    2  C   UNL     1      42.832 -12.142   6.391  1.00  0.00     0.272 C 
HETATM    3  O   UNL     1      42.129 -11.461   5.650  1.00  0.00    -0.266 OA
HETATM    4  H   UNL     1      44.109 -12.283   7.969  1.00  0.00     0.162 HD
ENDROOT
BRANCH   2   5
HETATM    5  C   UNL     1      43.091 -13.571   6.156  1.00  0.00     0.146 A 
HETATM    6  N   UNL     1      43.457 -14.409   7.146  1.00  0.00    -0.169 NA
HETATM    7  N   UNL     1      43.601 -15.595   6.528  1.00  0.00    -0.277 N 
HETATM    8  H   UNL     1      43.906 -16.387   7.083  1.00  0.00     0.189 HD
HETATM    9  C   UNL     1      43.325 -15.575   5.185  1.00  0.00     0.063 A 
HETATM   10  C   UNL     1      43.006 -14.259   4.919  1.00  0.00     0.071 A 
BRANCH   9  11
HETATM   11  C   UNL     1      43.411 -16.746   4.314  1.00  0.00    -0.008 A 
HETATM   12  C   UNL     1      42.800 -16.761   3.049  1.00  0.00     0.017 A 
HETATM   13  C   UNL     1      42.894 -17.886   2.226  1.00  0.00     0.043 A 
HETATM   14  C   UNL     1      43.600 -19.000   2.662  1.00  0.00     0.116 A 
HETATM   15  F   UNL     1      43.690 -20.076   1.871  1.00  0.00    -0.206 F 
HETATM   16  C   UNL     1      44.218 -19.007   3.905  1.00  0.00     0.043 A 
HETATM   17  C   UNL     1      44.125 -17.882   4.728  1.00  0.00     0.017 A 
ENDBRANCH   9  11
ENDBRANCH   2   5
BRANCH   1  18
HETATM   18  C   UNL     1      43.450 -10.243   7.877  1.00  0.00     0.165 C 
BRANCH  18  19
HETATM   19  C   UNL     1      44.503  -9.876   8.962  1.00  0.00     0.097 C 
HETATM   20  C   UNL     1      45.286  -8.618   8.560  1.00  0.00     0.053 C 
BRANCH  19  21
HETATM   21  O   UNL     1      45.443 -10.970   9.014  1.00  0.00    -0.384 OA
HETATM   22  H   UNL     1      46.091 -10.757   9.709  1.00  0.00     0.211 HD
ENDBRANCH  19  21
BRANCH  19  23
HETATM   23  C   UNL     1      43.918  -9.693  10.369  1.00  0.00    -0.023 A 
HETATM   24  C   UNL     1      43.573 -10.774  11.201  1.00  0.00     0.013 A 
HETATM   25  C   UNL     1      43.033 -10.558  12.474  1.00  0.00     0.043 A 
HETATM   26  C   UNL     1      42.825  -9.261  12.924  1.00  0.00     0.116 A 
HETATM   27  F   UNL     1      42.306  -9.060  14.141  1.00  0.00    -0.206 F 
HETATM   28  C   UNL     1      43.145  -8.173  12.126  1.00  0.00     0.043 A 
HETATM   29  C   UNL     1      43.686  -8.388  10.857  1.00  0.00     0.013 A 
ENDBRANCH  19  23
ENDBRANCH  18  19
ENDBRANCH   1  18
TORSDOF 6
ENDMDL
MODEL 2
REMARK VINA RESULT:      -8.8      6.735      9.601
REMARK  6 active torsions:
REMARK  status: ('A' for Active; 'I' for Inactive)
REMARK    1  A    between atoms: C_2  and  O_3 
REMARK    2  A    between atoms: C_2  and  C_4 
REMARK    3  A    between atoms: C_2  and  C_11 
REMARK    4  A    between atoms: C_11  and  N_12 
REMARK       I    between atoms: N_12  and  C_13 
REMARK    5  A    between atoms: C_13  and  C_14 
REMARK    6  A    between atoms: C_18  and  C_19 
ROOT
HETATM    1  N   UNL     1      41.272 -13.054   1.213  1.00  0.00    -0.352 N 
HETATM    2  C   UNL     1      42.187 -12.845   2.221  1.00  0.00     0.272 C 
HETATM    3  O   UNL     1      42.624 -11.738   2.521  1.00  0.00    -0.266 OA
HETATM    4  H   UNL     1      40.900 -13.998   1.146  1.00  0.00     0.162 HD
ENDROOT
BRANCH   2   5
HETATM    5  C   UNL     1      42.586 -14.079   2.916  1.00  0.00     0.146 A 
HETATM    6  N   UNL     1      42.882 -14.101   4.230  1.00  0.00    -0.169 NA
HETATM    7  N   UNL     1      43.199 -15.386   4.468  1.00  0.00    -0.277 N 
HETATM    8  H   UNL     1      43.490 -15.639   5.405  1.00  0.00     0.189 HD
HETATM    9  C   UNL     1      43.101 -16.209   3.375  1.00  0.00     0.063 A 
HETATM   10  C   UNL     1      42.717 -15.371   2.347  1.00  0.00     0.071 A 
BRANCH   9  11
HETATM   11  C   UNL     1      43.392 -17.642   3.399  1.00  0.00    -0.008 A 
HETATM   12  C   UNL     1      43.950 -18.253   4.534  1.00  0.00     0.017 A 
HETATM   13  C   UNL     1      44.219 -19.624   4.543  1.00  0.00     0.043 A 
HETATM   14  C   UNL     1      43.931 -20.389   3.420  1.00  0.00     0.116 A 
HETATM   15  F   UNL     1      44.189 -21.703   3.432  1.00  0.00    -0.206 F 
HETATM   16  C   UNL     1      43.374 -19.809   2.289  1.00  0.00     0.043 A 
HETATM   17  C   UNL     1      43.104 -18.439   2.279  1.00  0.00     0.017 A 
ENDBRANCH   9  11
ENDBRANCH   2   5
BRANCH   1  18
HETATM   18  C   UNL     1      40.642 -11.978   0.471  1.00  0.00     0.165 C 
BRANCH  18  19
HETATM   19  C   UNL     1      39.113 -12.178   0.265  1.00  0.00     0.097 C 
HETATM   20  C   UNL     1      38.375 -10.832   0.309  1.00  0.00     0.053 C 
BRANCH  19  21
HETATM   21  O   UNL     1      38.643 -12.964   1.380  1.00  0.00    -0.384 OA
HETATM   22  H   UNL     1      37.851 -12.519   1.730  1.00  0.00     0.211 HD
ENDBRANCH  19  21
BRANCH  19  23
HETATM   23  C   UNL     1      38.746 -12.927  -1.024  1.00  0.00    -0.023 A 
HETATM   24  C   UNL     1      37.602 -12.626  -1.786  1.00  0.00     0.013 A 
HETATM   25  C   UNL     1      37.305 -13.343  -2.950  1.00  0.00     0.043 A 
HETATM   26  C   UNL     1      38.140 -14.373  -3.359  1.00  0.00     0.116 A 
HETATM   27  F   UNL     1      37.849 -15.057  -4.472  1.00  0.00    -0.206 F 
HETATM   28  C   UNL     1      39.271 -14.702  -2.626  1.00  0.00     0.043 A 
HETATM   29  C   UNL     1      39.570 -13.986  -1.466  1.00  0.00     0.013 A 
ENDBRANCH  19  23
ENDBRANCH  18  19
ENDBRANCH   1  18
TORSDOF 6
ENDMDL
MODEL 3
REMARK VINA RESULT:      -8.7      1.515      1.886
REMARK  6 active torsions:
REMARK  status: ('A' for Active; 'I' for Inactive)
REMARK    1  A    between atoms: C_2  and  O_3 
REMARK    2  A    between atoms: C_2  and  C_4 
REMARK    3  A    between atoms: C_2  and  C_11 
REMARK    4  A    between atoms: C_11  and  N_12 
REMARK       I    between atoms: N_12  and  C_13 
REMARK    5  A    between atoms: C_13  and  C_14 
REMARK    6  A    between atoms: C_18  and  C_19 
ROOT
HETATM    1  N   UNL     1      42.726 -10.585   8.266  1.00  0.00    -0.352 N 
HETATM    2  C   UNL     1      43.612 -11.006   7.300  1.00  0.00     0.272 C 
HETATM    3  O   UNL     1      44.696 -10.468   7.093  1.00  0.00    -0.266 OA
HETATM    4  H   UNL     1      41.921 -11.189   8.417  1.00  0.00     0.162 HD
ENDROOT
BRANCH   2   5
HETATM    5  C   UNL     1      43.142 -12.175   6.541  1.00  0.00     0.146 A 
HETATM    6  N   UNL     1      41.873 -12.285   6.102  1.00  0.00    -0.169 NA
HETATM    7  N   UNL     1      41.851 -13.475   5.475  1.00  0.00    -0.277 N 
HETATM    8  H   UNL     1      40.971 -13.789   5.081  1.00  0.00     0.189 HD
HETATM    9  C   UNL     1      43.052 -14.137   5.465  1.00  0.00     0.063 A 
HETATM   10  C   UNL     1      43.905 -13.311   6.170  1.00  0.00     0.071 A 
BRANCH   9  11
HETATM   11  C   UNL     1      43.264 -15.441   4.840  1.00  0.00    -0.008 A 
HETATM   12  C   UNL     1      42.871 -15.687   3.514  1.00  0.00     0.017 A 
HETATM   13  C   UNL     1      43.083 -16.938   2.929  1.00  0.00     0.043 A 
HETATM   14  C   UNL     1      43.691 -17.947   3.665  1.00  0.00     0.116 A 
HETATM   15  F   UNL     1      43.893 -19.145   3.103  1.00  0.00    -0.206 F 
HETATM   16  C   UNL     1      44.093 -17.727   4.976  1.00  0.00     0.043 A 
HETATM   17  C   UNL     1      43.882 -16.476   5.560  1.00  0.00     0.017 A 
ENDBRANCH   9  11
ENDBRANCH   2   5
BRANCH   1  18
HETATM   18  C   UNL     1      43.023  -9.531   9.217  1.00  0.00     0.165 C 
BRANCH  18  19
HETATM   19  C   UNL     1      43.729 -10.040  10.508  1.00  0.00     0.097 C 
HETATM   20  C   UNL     1      45.238  -9.765  10.449  1.00  0.00     0.053 C 
BRANCH  19  21
HETATM   21  O   UNL     1      43.553 -11.472  10.539  1.00  0.00    -0.384 OA
HETATM   22  H   UNL     1      43.698 -11.797   9.634  1.00  0.00     0.211 HD
ENDBRANCH  19  21
BRANCH  19  23
HETATM   23  C   UNL     1      43.149  -9.467  11.808  1.00  0.00    -0.023 A 
HETATM   24  C   UNL     1      42.123 -10.101  12.534  1.00  0.00     0.013 A 
HETATM   25  C   UNL     1      41.620  -9.536  13.710  1.00  0.00     0.043 A 
HETATM   26  C   UNL     1      42.128  -8.329  14.169  1.00  0.00     0.116 A 
HETATM   27  F   UNL     1      41.641  -7.791  15.293  1.00  0.00    -0.206 F 
HETATM   28  C   UNL     1      43.133  -7.672  13.474  1.00  0.00     0.043 A 
HETATM   29  C   UNL     1      43.638  -8.237  12.301  1.00  0.00     0.013 A 
ENDBRANCH  19  23
ENDBRANCH  18  19
ENDBRANCH   1  18
TORSDOF 6
ENDMDL
MODEL 4
REMARK VINA RESULT:      -8.5      2.449      9.393
REMARK  6 active torsions:
REMARK  status: ('A' for Active; 'I' for Inactive)
REMARK    1  A    between atoms: C_2  and  O_3 
REMARK    2  A    between atoms: C_2  and  C_4 
REMARK    3  A    between atoms: C_2  and  C_11 
REMARK    4  A    between atoms: C_11  and  N_12 
REMARK       I    between atoms: N_12  and  C_13 
REMARK    5  A    between atoms: C_13  and  C_14 
REMARK    6  A    between atoms: C_18  and  C_19 
ROOT
HETATM    1  N   UNL     1      42.668 -13.230   3.501  1.00  0.00    -0.352 N 
HETATM    2  C   UNL     1      43.046 -11.907   3.482  1.00  0.00     0.272 C 
HETATM    3  O   UNL     1      42.825 -11.152   2.539  1.00  0.00    -0.266 OA
HETATM    4  H   UNL     1      42.801 -13.713   4.387  1.00  0.00     0.162 HD
ENDROOT
BRANCH   2   5
HETATM    5  C   UNL     1      43.733 -11.475   4.709  1.00  0.00     0.146 A 
HETATM    6  N   UNL     1      45.076 -11.458   4.814  1.00  0.00    -0.169 NA
HETATM    7  N   UNL     1      45.296 -11.018   6.066  1.00  0.00    -0.277 N 
HETATM    8  H   UNL     1      46.256 -10.951   6.385  1.00  0.00     0.189 HD
HETATM    9  C   UNL     1      44.160 -10.725   6.775  1.00  0.00     0.063 A 
HETATM   10  C   UNL     1      43.127 -11.032   5.912  1.00  0.00     0.071 A 
BRANCH   9  11
HETATM   11  C   UNL     1      44.158 -10.230   8.151  1.00  0.00    -0.008 A 
HETATM   12  C   UNL     1      45.323 -10.251   8.935  1.00  0.00     0.017 A 
HETATM   13  C   UNL     1      45.305  -9.771  10.247  1.00  0.00     0.043 A 
HETATM   14  C   UNL     1      44.126  -9.265  10.779  1.00  0.00     0.116 A 
HETATM   15  F   UNL     1      44.113  -8.805  12.036  1.00  0.00    -0.206 F 
HETATM   16  C   UNL     1      42.963  -9.228  10.022  1.00  0.00     0.043 A 
HETATM   17  C   UNL     1      42.980  -9.707   8.710  1.00  0.00     0.017 A 
ENDBRANCH   9  11
ENDBRANCH   2   5
BRANCH   1  18
HETATM   18  C   UNL     1      41.872 -13.849   2.458  1.00  0.00     0.165 C 
BRANCH  18  19
HETATM   19  C   UNL     1      41.160 -15.156   2.911  1.00  0.00     0.097 C 
HETATM   20  C   UNL     1      40.237 -15.687   1.806  1.00  0.00     0.053 C 
BRANCH  19  21
HETATM   21  O   UNL     1      40.328 -14.806   4.037  1.00  0.00    -0.384 OA
HETATM   22  H   UNL     1      40.785 -15.118   4.837  1.00  0.00     0.211 HD
ENDBRANCH  19  21
BRANCH  19  23
HETATM   23  C   UNL     1      42.118 -16.267   3.364  1.00  0.00    -0.023 A 
HETATM   24  C   UNL     1      42.454 -16.487   4.712  1.00  0.00     0.013 A 
HETATM   25  C   UNL     1      43.339 -17.507   5.075  1.00  0.00     0.043 A 
HETATM   26  C   UNL     1      43.903 -18.313   4.096  1.00  0.00     0.116 A 
HETATM   27  F   UNL     1      44.752 -19.286   4.449  1.00  0.00    -0.206 F 
HETATM   28  C   UNL     1      43.601 -18.119   2.756  1.00  0.00     0.043 A 
HETATM   29  C   UNL     1      42.716 -17.102   2.393  1.00  0.00     0.013 A 
ENDBRANCH  19  23
ENDBRANCH  18  19
ENDBRANCH   1  18
TORSDOF 6
ENDMDL
MODEL 5
REMARK VINA RESULT:      -8.3      1.814     10.057
REMARK  6 active torsions:
REMARK  status: ('A' for Active; 'I' for Inactive)
REMARK    1  A    between atoms: C_2  and  O_3 
REMARK    2  A    between atoms: C_2  and  C_4 
REMARK    3  A    between atoms: C_2  and  C_11 
REMARK    4  A    between atoms: C_11  and  N_12 
REMARK       I    between atoms: N_12  and  C_13 
REMARK    5  A    between atoms: C_13  and  C_14 
REMARK    6  A    between atoms: C_18  and  C_19 
ROOT
HETATM    1  N   UNL     1      43.318 -12.320   7.116  1.00  0.00    -0.352 N 
HETATM    2  C   UNL     1      44.289 -11.356   7.261  1.00  0.00     0.272 C 
HETATM    3  O   UNL     1      45.017 -10.982   6.346  1.00  0.00    -0.266 OA
HETATM    4  H   UNL     1      42.705 -12.450   7.917  1.00  0.00     0.162 HD
ENDROOT
BRANCH   2   5
HETATM    5  C   UNL     1      44.369 -10.803   8.622  1.00  0.00     0.146 A 
HETATM    6  N   UNL     1      45.542 -10.623   9.259  1.00  0.00    -0.169 NA
HETATM    7  N   UNL     1      45.187 -10.116  10.453  1.00  0.00    -0.277 N 
HETATM    8  H   UNL     1      45.920  -9.924  11.126  1.00  0.00     0.189 HD
HETATM    9  C   UNL     1      43.837  -9.936  10.617  1.00  0.00     0.063 A 
HETATM   10  C   UNL     1      43.283 -10.394   9.438  1.00  0.00     0.071 A 
BRANCH   9  11
HETATM   11  C   UNL     1      43.224  -9.397  11.830  1.00  0.00    -0.008 A 
HETATM   12  C   UNL     1      42.199 -10.088  12.498  1.00  0.00     0.017 A 
HETATM   13  C   UNL     1      41.625  -9.561  13.658  1.00  0.00     0.043 A 
HETATM   14  C   UNL     1      42.074  -8.344  14.156  1.00  0.00     0.116 A 
HETATM   15  F   UNL     1      41.523  -7.842  15.268  1.00  0.00    -0.206 F 
HETATM   16  C   UNL     1      43.089  -7.645  13.517  1.00  0.00     0.043 A 
HETATM   17  C   UNL     1      43.664  -8.172  12.357  1.00  0.00     0.017 A 
ENDBRANCH   9  11
ENDBRANCH   2   5
BRANCH   1  18
HETATM   18  C   UNL     1      42.973 -12.920   5.841  1.00  0.00     0.165 C 
BRANCH  18  19
HETATM   19  C   UNL     1      41.954 -14.091   5.960  1.00  0.00     0.097 C 
HETATM   20  C   UNL     1      40.513 -13.562   5.961  1.00  0.00     0.053 C 
BRANCH  19  21
HETATM   21  O   UNL     1      42.186 -14.713   7.241  1.00  0.00    -0.384 OA
HETATM   22  H   UNL     1      43.125 -14.579   7.457  1.00  0.00     0.211 HD
ENDBRANCH  19  21
BRANCH  19  23
HETATM   23  C   UNL     1      42.109 -15.170   4.879  1.00  0.00    -0.023 A 
HETATM   24  C   UNL     1      41.147 -15.395   3.878  1.00  0.00     0.013 A 
HETATM   25  C   UNL     1      41.329 -16.397   2.919  1.00  0.00     0.043 A 
HETATM   26  C   UNL     1      42.467 -17.190   2.956  1.00  0.00     0.116 A 
HETATM   27  F   UNL     1      42.634 -18.149   2.037  1.00  0.00    -0.206 F 
HETATM   28  C   UNL     1      43.431 -17.002   3.935  1.00  0.00     0.043 A 
HETATM   29  C   UNL     1      43.252 -16.000   4.891  1.00  0.00     0.013 A 
ENDBRANCH  19  23
ENDBRANCH  18  19
ENDBRANCH   1  18
TORSDOF 6
ENDMDL
MODEL 6
REMARK VINA RESULT:      -8.3      3.362      8.432
REMARK  6 active torsions:
REMARK  status: ('A' for Active; 'I' for Inactive)
REMARK    1  A    between atoms: C_2  and  O_3 
REMARK    2  A    between atoms: C_2  and  C_4 
REMARK    3  A    between atoms: C_2  and  C_11 
REMARK    4  A    between atoms: C_11  and  N_12 
REMARK       I    between atoms: N_12  and  C_13 
REMARK    5  A    between atoms: C_13  and  C_14 
REMARK    6  A    between atoms: C_18  and  C_19 
ROOT
HETATM    1  N   UNL     1      43.295 -14.492   2.685  1.00  0.00    -0.352 N 
HETATM    2  C   UNL     1      42.286 -13.578   2.883  1.00  0.00     0.272 C 
HETATM    3  O   UNL     1      41.176 -13.669   2.365  1.00  0.00    -0.266 OA
HETATM    4  H   UNL     1      44.121 -14.368   3.266  1.00  0.00     0.162 HD
ENDROOT
BRANCH   2   5
HETATM    5  C   UNL     1      42.658 -12.479   3.788  1.00  0.00     0.146 A 
HETATM    6  N   UNL     1      42.386 -11.190   3.505  1.00  0.00    -0.169 NA
HETATM    7  N   UNL     1      42.885 -10.517   4.557  1.00  0.00    -0.277 N 
HETATM    8  H   UNL     1      42.820  -9.505   4.549  1.00  0.00     0.189 HD
HETATM    9  C   UNL     1      43.450 -11.308   5.524  1.00  0.00     0.063 A 
HETATM   10  C   UNL     1      43.326 -12.593   5.033  1.00  0.00     0.071 A 
BRANCH   9  11
HETATM   11  C   UNL     1      44.051 -10.796   6.755  1.00  0.00    -0.008 A 
HETATM   12  C   UNL     1      43.275 -10.147   7.730  1.00  0.00     0.017 A 
HETATM   13  C   UNL     1      43.864  -9.665   8.902  1.00  0.00     0.043 A 
HETATM   14  C   UNL     1      45.228  -9.832   9.106  1.00  0.00     0.116 A 
HETATM   15  F   UNL     1      45.789  -9.370  10.230  1.00  0.00    -0.206 F 
HETATM   16  C   UNL     1      46.014 -10.474   8.160  1.00  0.00     0.043 A 
HETATM   17  C   UNL     1      45.427 -10.957   6.988  1.00  0.00     0.017 A 
ENDBRANCH   9  11
ENDBRANCH   2   5
BRANCH   1  18
HETATM   18  C   UNL     1      43.124 -15.721   1.933  1.00  0.00     0.165 C 
BRANCH  18  19
HETATM   19  C   UNL     1      42.518 -16.884   2.771  1.00  0.00     0.097 C 
HETATM   20  C   UNL     1      43.048 -18.241   2.285  1.00  0.00     0.053 C 
BRANCH  19  21
HETATM   21  O   UNL     1      41.095 -16.868   2.535  1.00  0.00    -0.384 OA
HETATM   22  H   UNL     1      40.959 -16.525   1.634  1.00  0.00     0.211 HD
ENDBRANCH  19  21
BRANCH  19  23
HETATM   23  C   UNL     1      42.744 -16.751   4.284  1.00  0.00    -0.023 A 
HETATM   24  C   UNL     1      41.721 -16.401   5.183  1.00  0.00     0.013 A 
HETATM   25  C   UNL     1      41.977 -16.284   6.553  1.00  0.00     0.043 A 
HETATM   26  C   UNL     1      43.259 -16.507   7.037  1.00  0.00     0.116 A 
HETATM   27  F   UNL     1      43.499 -16.390   8.349  1.00  0.00    -0.206 F 
HETATM   28  C   UNL     1      44.293 -16.844   6.178  1.00  0.00     0.043 A 
HETATM   29  C   UNL     1      44.038 -16.964   4.810  1.00  0.00     0.013 A 
ENDBRANCH  19  23
ENDBRANCH  18  19
ENDBRANCH   1  18
TORSDOF 6
ENDMDL
MODEL 7
REMARK VINA RESULT:      -8.2      6.522     10.352
REMARK  6 active torsions:
REMARK  status: ('A' for Active; 'I' for Inactive)
REMARK    1  A    between atoms: C_2  and  O_3 
REMARK    2  A    between atoms: C_2  and  C_4 
REMARK    3  A    between atoms: C_2  and  C_11 
REMARK    4  A    between atoms: C_11  and  N_12 
REMARK       I    between atoms: N_12  and  C_13 
REMARK    5  A    between atoms: C_13  and  C_14 
REMARK    6  A    between atoms: C_18  and  C_19 
ROOT
HETATM    1  N   UNL     1      41.076 -14.681   2.031  1.00  0.00    -0.352 N 
HETATM    2  C   UNL     1      40.275 -15.053   0.976  1.00  0.00     0.272 C 
HETATM    3  O   UNL     1      39.692 -16.131   0.913  1.00  0.00    -0.266 OA
HETATM    4  H   UNL     1      41.402 -13.718   2.019  1.00  0.00     0.162 HD
ENDROOT
BRANCH   2   5
HETATM    5  C   UNL     1      40.173 -14.026  -0.073  1.00  0.00     0.146 A 
HETATM    6  N   UNL     1      39.322 -14.139  -1.112  1.00  0.00    -0.169 NA
HETATM    7  N   UNL     1      39.538 -13.023  -1.830  1.00  0.00    -0.277 N 
HETATM    8  H   UNL     1      39.018 -12.903  -2.691  1.00  0.00     0.189 HD
HETATM    9  C   UNL     1      40.473 -12.174  -1.295  1.00  0.00     0.063 A 
HETATM   10  C   UNL     1      40.912 -12.818  -0.156  1.00  0.00     0.071 A 
BRANCH   9  11
HETATM   11  C   UNL     1      40.866 -10.902  -1.900  1.00  0.00    -0.008 A 
HETATM   12  C   UNL     1      40.520 -10.587  -3.225  1.00  0.00     0.017 A 
HETATM   13  C   UNL     1      40.900  -9.366  -3.788  1.00  0.00     0.043 A 
HETATM   14  C   UNL     1      41.623  -8.454  -3.030  1.00  0.00     0.116 A 
HETATM   15  F   UNL     1      41.984  -7.284  -3.571  1.00  0.00    -0.206 F 
HETATM   16  C   UNL     1      41.971  -8.740  -1.717  1.00  0.00     0.043 A 
HETATM   17  C   UNL     1      41.591  -9.960  -1.153  1.00  0.00     0.017 A 
ENDBRANCH   9  11
ENDBRANCH   2   5
BRANCH   1  18
HETATM   18  C   UNL     1      41.230 -15.477   3.235  1.00  0.00     0.165 C 
BRANCH  18  19
HETATM   19  C   UNL     1      42.714 -15.769   3.602  1.00  0.00     0.097 C 
HETATM   20  C   UNL     1      43.038 -15.259   5.013  1.00  0.00     0.053 C 
BRANCH  19  21
HETATM   21  O   UNL     1      43.526 -15.016   2.676  1.00  0.00    -0.384 OA
HETATM   22  H   UNL     1      44.174 -15.635   2.297  1.00  0.00     0.211 HD
ENDBRANCH  19  21
BRANCH  19  23
HETATM   23  C   UNL     1      43.112 -17.246   3.481  1.00  0.00    -0.023 A 
HETATM   24  C   UNL     1      43.830 -17.930   4.479  1.00  0.00     0.013 A 
HETATM   25  C   UNL     1      44.178 -19.276   4.320  1.00  0.00     0.043 A 
HETATM   26  C   UNL     1      43.820 -19.949   3.160  1.00  0.00     0.116 A 
HETATM   27  F   UNL     1      44.158 -21.235   3.012  1.00  0.00    -0.206 F 
HETATM   28  C   UNL     1      43.120 -19.303   2.152  1.00  0.00     0.043 A 
HETATM   29  C   UNL     1      42.770 -17.960   2.311  1.00  0.00     0.013 A 
ENDBRANCH  19  23
ENDBRANCH  18  19
ENDBRANCH   1  18
TORSDOF 6
ENDMDL
MODEL 8
REMARK VINA RESULT:      -8.2      7.261     10.095
REMARK  6 active torsions:
REMARK  status: ('A' for Active; 'I' for Inactive)
REMARK    1  A    between atoms: C_2  and  O_3 
REMARK    2  A    between atoms: C_2  and  C_4 
REMARK    3  A    between atoms: C_2  and  C_11 
REMARK    4  A    between atoms: C_11  and  N_12 
REMARK       I    between atoms: N_12  and  C_13 
REMARK    5  A    between atoms: C_13  and  C_14 
REMARK    6  A    between atoms: C_18  and  C_19 
ROOT
HETATM    1  N   UNL     1      41.344 -13.540   0.094  1.00  0.00    -0.352 N 
HETATM    2  C   UNL     1      41.787 -13.181   1.347  1.00  0.00     0.272 C 
HETATM    3  O   UNL     1      41.870 -12.017   1.730  1.00  0.00    -0.266 OA
HETATM    4  H   UNL     1      41.207 -14.537  -0.055  1.00  0.00     0.162 HD
ENDROOT
BRANCH   2   5
HETATM    5  C   UNL     1      42.143 -14.329   2.195  1.00  0.00     0.146 A 
HETATM    6  N   UNL     1      42.168 -14.251   3.540  1.00  0.00    -0.169 NA
HETATM    7  N   UNL     1      42.541 -15.484   3.928  1.00  0.00    -0.277 N 
HETATM    8  H   UNL     1      42.656 -15.656   4.920  1.00  0.00     0.189 HD
HETATM    9  C   UNL     1      42.738 -16.369   2.900  1.00  0.00     0.063 A 
HETATM   10  C   UNL     1      42.500 -15.630   1.758  1.00  0.00     0.071 A 
BRANCH   9  11
HETATM   11  C   UNL     1      43.143 -17.762   3.085  1.00  0.00    -0.008 A 
HETATM   12  C   UNL     1      42.915 -18.726   2.088  1.00  0.00     0.017 A 
HETATM   13  C   UNL     1      43.310 -20.053   2.279  1.00  0.00     0.043 A 
HETATM   14  C   UNL     1      43.936 -20.421   3.463  1.00  0.00     0.116 A 
HETATM   15  F   UNL     1      44.314 -21.693   3.642  1.00  0.00    -0.206 F 
HETATM   16  C   UNL     1      44.177 -19.486   4.460  1.00  0.00     0.043 A 
HETATM   17  C   UNL     1      43.783 -18.159   4.270  1.00  0.00     0.017 A 
ENDBRANCH   9  11
ENDBRANCH   2   5
BRANCH   1  18
HETATM   18  C   UNL     1      40.823 -12.590  -0.871  1.00  0.00     0.165 C 
BRANCH  18  19
HETATM   19  C   UNL     1      39.901 -13.237  -1.945  1.00  0.00     0.097 C 
HETATM   20  C   UNL     1      39.330 -14.571  -1.442  1.00  0.00     0.053 C 
BRANCH  19  21
HETATM   21  O   UNL     1      40.735 -13.528  -3.086  1.00  0.00    -0.384 OA
HETATM   22  H   UNL     1      40.313 -13.118  -3.860  1.00  0.00     0.211 HD
ENDBRANCH  19  21
BRANCH  19  23
HETATM   23  C   UNL     1      38.757 -12.330  -2.420  1.00  0.00    -0.023 A 
HETATM   24  C   UNL     1      38.933 -10.965  -2.711  1.00  0.00     0.013 A 
HETATM   25  C   UNL     1      37.857 -10.176  -3.132  1.00  0.00     0.043 A 
HETATM   26  C   UNL     1      36.596 -10.739  -3.259  1.00  0.00     0.116 A 
HETATM   27  F   UNL     1      35.569  -9.979  -3.660  1.00  0.00    -0.206 F 
HETATM   28  C   UNL     1      36.385 -12.080  -2.971  1.00  0.00     0.043 A 
HETATM   29  C   UNL     1      37.458 -12.869  -2.553  1.00  0.00     0.013 A 
ENDBRANCH  19  23
ENDBRANCH  18  19
ENDBRANCH   1  18
TORSDOF 6
ENDMDL
MODEL 9
REMARK VINA RESULT:      -8.1      6.418      9.190
REMARK  6 active torsions:
REMARK  status: ('A' for Active; 'I' for Inactive)
REMARK    1  A    between atoms: C_2  and  O_3 
REMARK    2  A    between atoms: C_2  and  C_4 
REMARK    3  A    between atoms: C_2  and  C_11 
REMARK    4  A    between atoms: C_11  and  N_12 
REMARK       I    between atoms: N_12  and  C_13 
REMARK    5  A    between atoms: C_13  and  C_14 
REMARK    6  A    between atoms: C_18  and  C_19 
ROOT
HETATM    1  N   UNL     1      41.316 -15.727   4.293  1.00  0.00    -0.352 N 
HETATM    2  C   UNL     1      41.465 -14.389   4.008  1.00  0.00     0.272 C 
HETATM    3  O   UNL     1      41.782 -13.549   4.845  1.00  0.00    -0.266 OA
HETATM    4  H   UNL     1      41.170 -16.334   3.489  1.00  0.00     0.162 HD
ENDROOT
BRANCH   2   5
HETATM    5  C   UNL     1      41.218 -14.058   2.596  1.00  0.00     0.146 A 
HETATM    6  N   UNL     1      42.075 -13.313   1.870  1.00  0.00    -0.169 NA
HETATM    7  N   UNL     1      41.492 -13.236   0.661  1.00  0.00    -0.277 N 
HETATM    8  H   UNL     1      41.954 -12.689  -0.056  1.00  0.00     0.189 HD
HETATM    9  C   UNL     1      40.304 -13.915   0.557  1.00  0.00     0.063 A 
HETATM   10  C   UNL     1      40.099 -14.445   1.815  1.00  0.00     0.071 A 
BRANCH   9  11
HETATM   11  C   UNL     1      39.498 -13.973  -0.662  1.00  0.00    -0.008 A 
HETATM   12  C   UNL     1      39.435 -15.141  -1.439  1.00  0.00     0.017 A 
HETATM   13  C   UNL     1      38.657 -15.182  -2.599  1.00  0.00     0.043 A 
HETATM   14  C   UNL     1      37.939 -14.058  -2.986  1.00  0.00     0.116 A 
HETATM   15  F   UNL     1      37.194 -14.100  -4.097  1.00  0.00    -0.206 F 
HETATM   16  C   UNL     1      37.981 -12.893  -2.231  1.00  0.00     0.043 A 
HETATM   17  C   UNL     1      38.757 -12.852  -1.071  1.00  0.00     0.017 A 
ENDBRANCH   9  11
ENDBRANCH   2   5
BRANCH   1  18
HETATM   18  C   UNL     1      41.625 -16.308   5.585  1.00  0.00     0.165 C 
BRANCH  18  19
HETATM   19  C   UNL     1      43.090 -16.821   5.702  1.00  0.00     0.097 C 
HETATM   20  C   UNL     1      43.428 -17.181   7.156  1.00  0.00     0.053 C 
BRANCH  19  21
HETATM   21  O   UNL     1      43.945 -15.723   5.321  1.00  0.00    -0.384 OA
HETATM   22  H   UNL     1      43.639 -14.940   5.810  1.00  0.00     0.211 HD
ENDBRANCH  19  21
BRANCH  19  23
HETATM   23  C   UNL     1      43.414 -18.009   4.786  1.00  0.00    -0.023 A 
HETATM   24  C   UNL     1      43.389 -17.922   3.382  1.00  0.00     0.013 A 
HETATM   25  C   UNL     1      43.684 -19.035   2.587  1.00  0.00     0.043 A 
HETATM   26  C   UNL     1      43.998 -20.247   3.186  1.00  0.00     0.116 A 
HETATM   27  F   UNL     1      44.276 -21.309   2.421  1.00  0.00    -0.206 F 
HETATM   28  C   UNL     1      44.023 -20.370   4.567  1.00  0.00     0.043 A 
HETATM   29  C   UNL     1      43.731 -19.259   5.361  1.00  0.00     0.013 A 
ENDBRANCH  19  23
ENDBRANCH  18  19
ENDBRANCH   1  18
TORSDOF 6
ENDMDL
MODEL 10
REMARK VINA RESULT:      -8.0      7.283      9.517
REMARK  6 active torsions:
REMARK  status: ('A' for Active; 'I' for Inactive)
REMARK    1  A    between atoms: C_2  and  O_3 
REMARK    2  A    between atoms: C_2  and  C_4 
REMARK    3  A    between atoms: C_2  and  C_11 
REMARK    4  A    between atoms: C_11  and  N_12 
REMARK       I    between atoms: N_12  and  C_13 
REMARK    5  A    between atoms: C_13  and  C_14 
REMARK    6  A    between atoms: C_18  and  C_19 
ROOT
HETATM    1  N   UNL     1      40.836 -12.264   1.450  1.00  0.00    -0.352 N 
HETATM    2  C   UNL     1      40.428 -13.382   2.142  1.00  0.00     0.272 C 
HETATM    3  O   UNL     1      39.296 -13.523   2.596  1.00  0.00    -0.266 OA
HETATM    4  H   UNL     1      41.757 -12.324   1.023  1.00  0.00     0.162 HD
ENDROOT
BRANCH   2   5
HETATM    5  C   UNL     1      41.477 -14.404   2.279  1.00  0.00     0.146 A 
HETATM    6  N   UNL     1      42.655 -14.318   1.630  1.00  0.00    -0.169 NA
HETATM    7  N   UNL     1      43.314 -15.427   2.009  1.00  0.00    -0.277 N 
HETATM    8  H   UNL     1      44.233 -15.593   1.615  1.00  0.00     0.189 HD
HETATM    9  C   UNL     1      42.631 -16.222   2.894  1.00  0.00     0.063 A 
HETATM   10  C   UNL     1      41.422 -15.579   3.070  1.00  0.00     0.071 A 
BRANCH   9  11
HETATM   11  C   UNL     1      43.152 -17.472   3.443  1.00  0.00    -0.008 A 
HETATM   12  C   UNL     1      43.402 -18.583   2.620  1.00  0.00     0.017 A 
HETATM   13  C   UNL     1      43.904 -19.770   3.160  1.00  0.00     0.043 A 
HETATM   14  C   UNL     1      44.160 -19.851   4.522  1.00  0.00     0.116 A 
HETATM   15  F   UNL     1      44.642 -20.990   5.037  1.00  0.00    -0.206 F 
HETATM   16  C   UNL     1      43.927 -18.766   5.355  1.00  0.00     0.043 A 
HETATM   17  C   UNL     1      43.427 -17.578   4.816  1.00  0.00     0.017 A 
ENDBRANCH   9  11
ENDBRANCH   2   5
BRANCH   1  18
HETATM   18  C   UNL     1      39.943 -11.180   1.086  1.00  0.00     0.165 C 
BRANCH  18  19
HETATM   19  C   UNL     1      39.950 -10.854  -0.436  1.00  0.00     0.097 C 
HETATM   20  C   UNL     1      41.342 -10.393  -0.889  1.00  0.00     0.053 C 
BRANCH  19  21
HETATM   21  O   UNL     1      39.046  -9.746  -0.626  1.00  0.00    -0.384 OA
HETATM   22  H   UNL     1      38.836  -9.394   0.257  1.00  0.00     0.211 HD
ENDBRANCH  19  21
BRANCH  19  23
HETATM   23  C   UNL     1      39.471 -12.008  -1.328  1.00  0.00    -0.023 A 
HETATM   24  C   UNL     1      38.112 -12.262  -1.588  1.00  0.00     0.013 A 
HETATM   25  C   UNL     1      37.723 -13.332  -2.401  1.00  0.00     0.043 A 
HETATM   26  C   UNL     1      38.686 -14.164  -2.954  1.00  0.00     0.116 A 
HETATM   27  F   UNL     1      38.308 -15.188  -3.729  1.00  0.00    -0.206 F 
HETATM   28  C   UNL     1      40.034 -13.948  -2.711  1.00  0.00     0.043 A 
HETATM   29  C   UNL     1      40.423 -12.879  -1.902  1.00  0.00     0.013 A 
ENDBRANCH  19  23
ENDBRANCH  18  19
ENDBRANCH   1  18
TORSDOF 6
ENDMDL
