MODEL 1
REMARK VINA RESULT:      -7.9      0.000      0.000
REMARK  7 active torsions:
REMARK  status: ('A' for Active; 'I' for Inactive)
REMARK    1  A    between atoms: C_2  and  N_3 
REMARK    2  A    between atoms: N_3  and  C_4 
REMARK    3  A    between atoms: C_6  and  N_7 
REMARK    4  A    between atoms: N_7  and  C_8 
REMARK    5  A    between atoms: C_8  and  C_9 
REMARK    6  A    between atoms: C_10  and  O_11 
REMARK    7  A    between atoms: C_14  and  O_15 
ROOT
HETATM    1  C   UNL     1      43.238 -16.834   3.335  1.00  0.00     0.135 A 
HETATM    2  N   UNL     1      43.501 -16.128   4.449  1.00  0.00    -0.052 NA
HETATM    3  C   UNL     1      43.932 -16.773   5.543  1.00  0.00     0.702 A 
HETATM    4  N   UNL     1      44.113 -18.092   5.558  1.00  0.00    -0.189 N 
HETATM    5  H   UNL     1      44.463 -18.505   6.409  1.00  0.00     0.184 HD
HETATM    6  C   UNL     1      43.893 -18.841   4.472  1.00  0.00     0.062 A 
HETATM    7  C   UNL     1      43.443 -18.227   3.288  1.00  0.00     0.032 A 
HETATM    8  C   UNL     1      44.126 -20.225   4.517  1.00  0.00     0.031 A 
HETATM    9  C   UNL     1      43.924 -21.008   3.380  1.00  0.00     0.002 A 
HETATM   10  C   UNL     1      43.494 -20.416   2.197  1.00  0.00     0.001 A 
HETATM   11  C   UNL     1      43.255 -19.041   2.147  1.00  0.00     0.017 A 
ENDROOT
BRANCH   3  12
HETATM   12  N   UNL     1      44.246 -16.087   6.687  1.00  0.00    -0.220 N 
HETATM   13  H   UNL     1      45.136 -16.166   7.154  1.00  0.00     0.178 HD
BRANCH  12  14
HETATM   14  C   UNL     1      43.180 -15.516   7.507  1.00  0.00     0.179 C 
BRANCH  14  15
HETATM   15  C   UNL     1      42.368 -14.487   6.741  1.00  0.00    -0.006 A 
HETATM   16  C   UNL     1      42.976 -13.270   6.368  1.00  0.00     0.078 A 
HETATM   17  C   UNL     1      42.234 -12.285   5.699  1.00  0.00     0.074 A 
HETATM   18  C   UNL     1      40.883 -12.489   5.415  1.00  0.00     0.070 A 
HETATM   19  C   UNL     1      40.276 -13.684   5.798  1.00  0.00     0.037 A 
HETATM   20  C   UNL     1      41.004 -14.670   6.462  1.00  0.00     0.014 A 
BRANCH  16  21
HETATM   21  O   UNL     1      44.300 -13.146   6.710  1.00  0.00    -0.355 OA
HETATM   22  C   UNL     1      44.792 -11.836   6.975  1.00  0.00     0.210 C 
ENDBRANCH  16  21
BRANCH  18  23
HETATM   23  O   UNL     1      40.049 -11.612   4.779  1.00  0.00    -0.356 OA
HETATM   24  C   UNL     1      39.380 -12.080   3.613  1.00  0.00     0.210 C 
ENDBRANCH  18  23
ENDBRANCH  14  15
ENDBRANCH  12  14
ENDBRANCH   3  12
BRANCH   1  25
HETATM   25  N   UNL     1      42.822 -16.151   2.189  1.00  0.00    -0.272 NA
HETATM   26  H   UNL     1      42.682 -16.777   1.399  1.00  0.00     0.129 HD
BRANCH  25  27
HETATM   27  C   UNL     1      41.737 -15.168   2.309  1.00  0.00     0.053 C 
HETATM   28  C   UNL     1      40.559 -15.547   1.411  1.00  0.00     0.026 C 
HETATM   29  C   UNL     1      42.290 -13.803   1.897  1.00  0.00     0.026 C 
ENDBRANCH  25  27
ENDBRANCH   1  25
TORSDOF 7
ENDMDL
MODEL 2
REMARK VINA RESULT:      -7.7      2.937      5.397
REMARK  7 active torsions:
REMARK  status: ('A' for Active; 'I' for Inactive)
REMARK    1  A    between atoms: C_2  and  N_3 
REMARK    2  A    between atoms: N_3  and  C_4 
REMARK    3  A    between atoms: C_6  and  N_7 
REMARK    4  A    between atoms: N_7  and  C_8 
REMARK    5  A    between atoms: C_8  and  C_9 
REMARK    6  A    between atoms: C_10  and  O_11 
REMARK    7  A    between atoms: C_14  and  O_15 
ROOT
HETATM    1  C   UNL     1      43.537 -16.569   4.255  1.00  0.00     0.135 A 
HETATM    2  N   UNL     1      43.060 -15.729   3.320  1.00  0.00    -0.052 NA
HETATM    3  C   UNL     1      42.734 -16.216   2.113  1.00  0.00     0.702 A 
HETATM    4  N   UNL     1      42.863 -17.507   1.815  1.00  0.00    -0.189 N 
HETATM    5  H   UNL     1      42.574 -17.804   0.895  1.00  0.00     0.184 HD
HETATM    6  C   UNL     1      43.307 -18.392   2.714  1.00  0.00     0.062 A 
HETATM    7  C   UNL     1      43.663 -17.949   4.002  1.00  0.00     0.032 A 
HETATM    8  C   UNL     1      43.399 -19.751   2.374  1.00  0.00     0.031 A 
HETATM    9  C   UNL     1      43.835 -20.683   3.315  1.00  0.00     0.002 A 
HETATM   10  C   UNL     1      44.178 -20.265   4.597  1.00  0.00     0.001 A 
HETATM   11  C   UNL     1      44.094 -18.914   4.942  1.00  0.00     0.017 A 
ENDROOT
BRANCH   3  12
HETATM   12  N   UNL     1      42.211 -15.400   1.144  1.00  0.00    -0.220 N 
HETATM   13  H   UNL     1      42.766 -14.753   0.604  1.00  0.00     0.178 HD
BRANCH  12  14
HETATM   14  C   UNL     1      40.774 -15.137   1.115  1.00  0.00     0.179 C 
BRANCH  14  15
HETATM   15  C   UNL     1      40.390 -14.231  -0.040  1.00  0.00    -0.006 A 
HETATM   16  C   UNL     1      40.822 -12.888  -0.036  1.00  0.00     0.078 A 
HETATM   17  C   UNL     1      40.442 -12.020  -1.070  1.00  0.00     0.074 A 
HETATM   18  C   UNL     1      39.615 -12.468  -2.101  1.00  0.00     0.070 A 
HETATM   19  C   UNL     1      39.173 -13.790  -2.099  1.00  0.00     0.037 A 
HETATM   20  C   UNL     1      39.545 -14.662  -1.077  1.00  0.00     0.014 A 
BRANCH  16  21
HETATM   21  O   UNL     1      41.610 -12.529   1.029  1.00  0.00    -0.355 OA
HETATM   22  C   UNL     1      41.442 -11.218   1.560  1.00  0.00     0.210 C 
ENDBRANCH  16  21
BRANCH  18  23
HETATM   23  O   UNL     1      39.168 -11.726  -3.160  1.00  0.00    -0.356 OA
HETATM   24  C   UNL     1      38.157 -10.761  -2.897  1.00  0.00     0.210 C 
ENDBRANCH  18  23
ENDBRANCH  14  15
ENDBRANCH  12  14
ENDBRANCH   3  12
BRANCH   1  25
HETATM   25  N   UNL     1      43.843 -16.061   5.521  1.00  0.00    -0.272 NA
HETATM   26  H   UNL     1      44.791 -15.694   5.568  1.00  0.00     0.129 HD
BRANCH  25  27
HETATM   27  C   UNL     1      42.876 -15.170   6.176  1.00  0.00     0.053 C 
HETATM   28  C   UNL     1      43.592 -14.038   6.911  1.00  0.00     0.026 C 
HETATM   29  C   UNL     1      42.063 -16.005   7.167  1.00  0.00     0.026 C 
ENDBRANCH  25  27
ENDBRANCH   1  25
TORSDOF 7
ENDMDL
MODEL 3
REMARK VINA RESULT:      -7.6      2.845      5.882
REMARK  7 active torsions:
REMARK  status: ('A' for Active; 'I' for Inactive)
REMARK    1  A    between atoms: C_2  and  N_3 
REMARK    2  A    between atoms: N_3  and  C_4 
REMARK    3  A    between atoms: C_6  and  N_7 
REMARK    4  A    between atoms: N_7  and  C_8 
REMARK    5  A    between atoms: C_8  and  C_9 
REMARK    6  A    between atoms: C_10  and  O_11 
REMARK    7  A    between atoms: C_14  and  O_15 
ROOT
HETATM    1  C   UNL     1      43.638 -17.419   3.112  1.00  0.00     0.135 A 
HETATM    2  N   UNL     1      43.043 -16.939   2.006  1.00  0.00    -0.052 NA
HETATM    3  C   UNL     1      42.446 -15.739   2.055  1.00  0.00     0.702 A 
HETATM    4  N   UNL     1      42.430 -15.006   3.166  1.00  0.00    -0.189 N 
HETATM    5  H   UNL     1      41.983 -14.102   3.122  1.00  0.00     0.184 HD
HETATM    6  C   UNL     1      43.028 -15.421   4.288  1.00  0.00     0.062 A 
HETATM    7  C   UNL     1      43.677 -16.670   4.304  1.00  0.00     0.032 A 
HETATM    8  C   UNL     1      43.018 -14.605   5.430  1.00  0.00     0.031 A 
HETATM    9  C   UNL     1      43.663 -15.019   6.596  1.00  0.00     0.002 A 
HETATM   10  C   UNL     1      44.322 -16.245   6.625  1.00  0.00     0.001 A 
HETATM   11  C   UNL     1      44.332 -17.064   5.494  1.00  0.00     0.017 A 
ENDROOT
BRANCH   3  12
HETATM   12  N   UNL     1      41.860 -15.198   0.941  1.00  0.00    -0.220 N 
HETATM   13  H   UNL     1      42.292 -14.479   0.381  1.00  0.00     0.178 HD
BRANCH  12  14
HETATM   14  C   UNL     1      40.421 -15.345   0.733  1.00  0.00     0.179 C 
BRANCH  14  15
HETATM   15  C   UNL     1      39.822 -14.128   0.055  1.00  0.00    -0.006 A 
HETATM   16  C   UNL     1      39.700 -12.924   0.781  1.00  0.00     0.078 A 
HETATM   17  C   UNL     1      39.109 -11.798   0.190  1.00  0.00     0.074 A 
HETATM   18  C   UNL     1      38.614 -11.862  -1.114  1.00  0.00     0.070 A 
HETATM   19  C   UNL     1      38.718 -13.054  -1.828  1.00  0.00     0.037 A 
HETATM   20  C   UNL     1      39.305 -14.179  -1.250  1.00  0.00     0.014 A 
BRANCH  16  21
HETATM   21  O   UNL     1      40.190 -12.961   2.064  1.00  0.00    -0.355 OA
HETATM   22  C   UNL     1      39.263 -12.770   3.128  1.00  0.00     0.210 C 
ENDBRANCH  16  21
BRANCH  18  23
HETATM   23  O   UNL     1      38.012 -10.845  -1.801  1.00  0.00    -0.356 OA
HETATM   24  C   UNL     1      38.500 -10.564  -3.107  1.00  0.00     0.210 C 
ENDBRANCH  18  23
ENDBRANCH  14  15
ENDBRANCH  12  14
ENDBRANCH   3  12
BRANCH   1  25
HETATM   25  N   UNL     1      44.287 -18.655   3.043  1.00  0.00    -0.272 NA
HETATM   26  H   UNL     1      45.070 -18.713   3.691  1.00  0.00     0.129 HD
BRANCH  25  27
HETATM   27  C   UNL     1      43.475 -19.880   3.052  1.00  0.00     0.053 C 
HETATM   28  C   UNL     1      43.952 -20.840   4.142  1.00  0.00     0.026 C 
HETATM   29  C   UNL     1      43.606 -20.541   1.679  1.00  0.00     0.026 C 
ENDBRANCH  25  27
ENDBRANCH   1  25
TORSDOF 7
ENDMDL
MODEL 4
REMARK VINA RESULT:      -7.4      2.225      4.103
REMARK  7 active torsions:
REMARK  status: ('A' for Active; 'I' for Inactive)
REMARK    1  A    between atoms: C_2  and  N_3 
REMARK    2  A    between atoms: N_3  and  C_4 
REMARK    3  A    between atoms: C_6  and  N_7 
REMARK    4  A    between atoms: N_7  and  C_8 
REMARK    5  A    between atoms: C_8  and  C_9 
REMARK    6  A    between atoms: C_10  and  O_11 
REMARK    7  A    between atoms: C_14  and  O_15 
ROOT
HETATM    1  C   UNL     1      42.467 -15.134   2.358  1.00  0.00     0.135 A 
HETATM    2  N   UNL     1      42.384 -14.015   3.098  1.00  0.00    -0.052 NA
HETATM    3  C   UNL     1      42.780 -14.051   4.380  1.00  0.00     0.702 A 
HETATM    4  N   UNL     1      43.260 -15.159   4.939  1.00  0.00    -0.189 N 
HETATM    5  H   UNL     1      43.562 -15.105   5.900  1.00  0.00     0.184 HD
HETATM    6  C   UNL     1      43.390 -16.294   4.243  1.00  0.00     0.062 A 
HETATM    7  C   UNL     1      42.996 -16.326   2.892  1.00  0.00     0.032 A 
HETATM    8  C   UNL     1      43.930 -17.435   4.858  1.00  0.00     0.031 A 
HETATM    9  C   UNL     1      44.094 -18.614   4.131  1.00  0.00     0.002 A 
HETATM   10  C   UNL     1      43.724 -18.659   2.790  1.00  0.00     0.001 A 
HETATM   11  C   UNL     1      43.181 -17.530   2.173  1.00  0.00     0.017 A 
ENDROOT
BRANCH   3  12
HETATM   12  N   UNL     1      42.745 -12.923   5.158  1.00  0.00    -0.220 N 
HETATM   13  H   UNL     1      41.914 -12.601   5.630  1.00  0.00     0.178 HD
BRANCH  12  14
HETATM   14  C   UNL     1      43.796 -11.917   5.026  1.00  0.00     0.179 C 
BRANCH  14  15
HETATM   15  C   UNL     1      44.168 -11.310   6.365  1.00  0.00    -0.006 A 
HETATM   16  C   UNL     1      43.179 -10.642   7.117  1.00  0.00     0.078 A 
HETATM   17  C   UNL     1      43.508 -10.034   8.338  1.00  0.00     0.074 A 
HETATM   18  C   UNL     1      44.821 -10.063   8.810  1.00  0.00     0.070 A 
HETATM   19  C   UNL     1      45.803 -10.708   8.061  1.00  0.00     0.037 A 
HETATM   20  C   UNL     1      45.487 -11.316   6.848  1.00  0.00     0.014 A 
BRANCH  16  21
HETATM   21  O   UNL     1      41.922 -10.641   6.564  1.00  0.00    -0.355 OA
HETATM   22  C   UNL     1      40.945  -9.786   7.149  1.00  0.00     0.210 C 
ENDBRANCH  16  21
BRANCH  18  23
HETATM   23  O   UNL     1      45.274  -9.506   9.974  1.00  0.00    -0.356 OA
HETATM   24  C   UNL     1      44.312  -9.249  10.990  1.00  0.00     0.210 C 
ENDBRANCH  18  23
ENDBRANCH  14  15
ENDBRANCH  12  14
ENDBRANCH   3  12
BRANCH   1  25
HETATM   25  N   UNL     1      42.084 -15.082   1.015  1.00  0.00    -0.272 NA
HETATM   26  H   UNL     1      42.595 -15.751   0.444  1.00  0.00     0.129 HD
BRANCH  25  27
HETATM   27  C   UNL     1      40.651 -15.064   0.691  1.00  0.00     0.053 C 
HETATM   28  C   UNL     1      40.156 -13.631   0.497  1.00  0.00     0.026 C 
HETATM   29  C   UNL     1      39.899 -15.726   1.846  1.00  0.00     0.026 C 
ENDBRANCH  25  27
ENDBRANCH   1  25
TORSDOF 7
ENDMDL
MODEL 5
REMARK VINA RESULT:      -7.2      1.812      4.153
REMARK  7 active torsions:
REMARK  status: ('A' for Active; 'I' for Inactive)
REMARK    1  A    between atoms: C_2  and  N_3 
REMARK    2  A    between atoms: N_3  and  C_4 
REMARK    3  A    between atoms: C_6  and  N_7 
REMARK    4  A    between atoms: N_7  and  C_8 
REMARK    5  A    between atoms: C_8  and  C_9 
REMARK    6  A    between atoms: C_10  and  O_11 
REMARK    7  A    between atoms: C_14  and  O_15 
ROOT
HETATM    1  C   UNL     1      43.737 -16.756   4.468  1.00  0.00     0.135 A 
HETATM    2  N   UNL     1      43.383 -15.841   3.549  1.00  0.00    -0.052 NA
HETATM    3  C   UNL     1      43.100 -16.245   2.301  1.00  0.00     0.702 A 
HETATM    4  N   UNL     1      43.152 -17.527   1.947  1.00  0.00    -0.189 N 
HETATM    5  H   UNL     1      42.901 -17.759   0.998  1.00  0.00     0.184 HD
HETATM    6  C   UNL     1      43.472 -18.483   2.825  1.00  0.00     0.062 A 
HETATM    7  C   UNL     1      43.778 -18.129   4.153  1.00  0.00     0.032 A 
HETATM    8  C   UNL     1      43.485 -19.829   2.423  1.00  0.00     0.031 A 
HETATM    9  C   UNL     1      43.792 -20.834   3.340  1.00  0.00     0.002 A 
HETATM   10  C   UNL     1      44.082 -20.503   4.660  1.00  0.00     0.001 A 
HETATM   11  C   UNL     1      44.076 -19.166   5.067  1.00  0.00     0.017 A 
ENDROOT
BRANCH   3  12
HETATM   12  N   UNL     1      42.700 -15.348   1.345  1.00  0.00    -0.220 N 
HETATM   13  H   UNL     1      43.294 -14.614   0.991  1.00  0.00     0.178 HD
BRANCH  12  14
HETATM   14  C   UNL     1      41.276 -15.158   1.079  1.00  0.00     0.179 C 
BRANCH  14  15
HETATM   15  C   UNL     1      40.702 -14.004   1.880  1.00  0.00    -0.006 A 
HETATM   16  C   UNL     1      40.758 -12.700   1.345  1.00  0.00     0.078 A 
HETATM   17  C   UNL     1      40.274 -11.610   2.085  1.00  0.00     0.074 A 
HETATM   18  C   UNL     1      39.753 -11.803   3.366  1.00  0.00     0.070 A 
HETATM   19  C   UNL     1      39.711 -13.088   3.902  1.00  0.00     0.037 A 
HETATM   20  C   UNL     1      40.188 -14.177   3.175  1.00  0.00     0.014 A 
BRANCH  16  21
HETATM   21  O   UNL     1      41.310 -12.602   0.092  1.00  0.00    -0.355 OA
HETATM   22  C   UNL     1      40.491 -12.078  -0.949  1.00  0.00     0.210 C 
ENDBRANCH  16  21
BRANCH  18  23
HETATM   23  O   UNL     1      39.258 -10.831   4.191  1.00  0.00    -0.356 OA
HETATM   24  C   UNL     1      39.765 -10.785   5.519  1.00  0.00     0.210 C 
ENDBRANCH  18  23
ENDBRANCH  14  15
ENDBRANCH  12  14
ENDBRANCH   3  12
BRANCH   1  25
HETATM   25  N   UNL     1      43.999 -16.332   5.773  1.00  0.00    -0.272 NA
HETATM   26  H   UNL     1      44.776 -15.676   5.815  1.00  0.00     0.129 HD
BRANCH  25  27
HETATM   27  C   UNL     1      42.873 -15.903   6.614  1.00  0.00     0.053 C 
HETATM   28  C   UNL     1      41.543 -16.361   6.016  1.00  0.00     0.026 C 
HETATM   29  C   UNL     1      42.908 -14.376   6.704  1.00  0.00     0.026 C 
ENDBRANCH  25  27
ENDBRANCH   1  25
TORSDOF 7
ENDMDL
MODEL 6
REMARK VINA RESULT:      -7.2      3.375      7.083
REMARK  7 active torsions:
REMARK  status: ('A' for Active; 'I' for Inactive)
REMARK    1  A    between atoms: C_2  and  N_3 
REMARK    2  A    between atoms: N_3  and  C_4 
REMARK    3  A    between atoms: C_6  and  N_7 
REMARK    4  A    between atoms: N_7  and  C_8 
REMARK    5  A    between atoms: C_8  and  C_9 
REMARK    6  A    between atoms: C_10  and  O_11 
REMARK    7  A    between atoms: C_14  and  O_15 
ROOT
HETATM    1  C   UNL     1      39.446 -12.534   0.938  1.00  0.00     0.135 A 
HETATM    2  N   UNL     1      40.568 -13.001   1.515  1.00  0.00    -0.052 NA
HETATM    3  C   UNL     1      41.350 -13.848   0.829  1.00  0.00     0.702 A 
HETATM    4  N   UNL     1      41.052 -14.234  -0.410  1.00  0.00    -0.189 N 
HETATM    5  H   UNL     1      41.701 -14.853  -0.874  1.00  0.00     0.184 HD
HETATM    6  C   UNL     1      39.965 -13.782  -1.043  1.00  0.00     0.062 A 
HETATM    7  C   UNL     1      39.102 -12.887  -0.381  1.00  0.00     0.032 A 
HETATM    8  C   UNL     1      39.701 -14.187  -2.361  1.00  0.00     0.031 A 
HETATM    9  C   UNL     1      38.583 -13.698  -3.036  1.00  0.00     0.002 A 
HETATM   10  C   UNL     1      37.727 -12.802  -2.403  1.00  0.00     0.001 A 
HETATM   11  C   UNL     1      37.980 -12.398  -1.090  1.00  0.00     0.017 A 
ENDROOT
BRANCH   3  12
HETATM   12  N   UNL     1      42.519 -14.318   1.366  1.00  0.00    -0.220 N 
HETATM   13  H   UNL     1      43.249 -14.746   0.817  1.00  0.00     0.178 HD
BRANCH  12  14
HETATM   14  C   UNL     1      42.603 -14.586   2.800  1.00  0.00     0.179 C 
BRANCH  14  15
HETATM   15  C   UNL     1      42.948 -16.036   3.083  1.00  0.00    -0.006 A 
HETATM   16  C   UNL     1      43.388 -16.400   4.374  1.00  0.00     0.078 A 
HETATM   17  C   UNL     1      43.755 -17.726   4.648  1.00  0.00     0.074 A 
HETATM   18  C   UNL     1      43.710 -18.693   3.644  1.00  0.00     0.070 A 
HETATM   19  C   UNL     1      43.292 -18.333   2.364  1.00  0.00     0.037 A 
HETATM   20  C   UNL     1      42.924 -17.019   2.081  1.00  0.00     0.014 A 
BRANCH  16  21
HETATM   21  O   UNL     1      43.424 -15.378   5.291  1.00  0.00    -0.355 OA
HETATM   22  C   UNL     1      43.831 -15.699   6.617  1.00  0.00     0.210 C 
ENDBRANCH  16  21
BRANCH  18  23
HETATM   23  O   UNL     1      44.046 -20.013   3.776  1.00  0.00    -0.356 OA
HETATM   24  C   UNL     1      44.387 -20.469   5.079  1.00  0.00     0.210 C 
ENDBRANCH  18  23
ENDBRANCH  14  15
ENDBRANCH  12  14
ENDBRANCH   3  12
BRANCH   1  25
HETATM   25  N   UNL     1      38.654 -11.627   1.647  1.00  0.00    -0.272 NA
HETATM   26  H   UNL     1      38.091 -12.085   2.360  1.00  0.00     0.129 HD
BRANCH  25  27
HETATM   27  C   UNL     1      39.271 -10.391   2.145  1.00  0.00     0.053 C 
HETATM   28  C   UNL     1      38.677  -9.993   3.496  1.00  0.00     0.026 C 
HETATM   29  C   UNL     1      39.016  -9.288   1.117  1.00  0.00     0.026 C 
ENDBRANCH  25  27
ENDBRANCH   1  25
TORSDOF 7
ENDMDL
MODEL 7
REMARK VINA RESULT:      -7.1      3.470      6.144
REMARK  7 active torsions:
REMARK  status: ('A' for Active; 'I' for Inactive)
REMARK    1  A    between atoms: C_2  and  N_3 
REMARK    2  A    between atoms: N_3  and  C_4 
REMARK    3  A    between atoms: C_6  and  N_7 
REMARK    4  A    between atoms: N_7  and  C_8 
REMARK    5  A    between atoms: C_8  and  C_9 
REMARK    6  A    between atoms: C_10  and  O_11 
REMARK    7  A    between atoms: C_14  and  O_15 
ROOT
HETATM    1  C   UNL     1      41.813 -15.215   4.270  1.00  0.00     0.135 A 
HETATM    2  N   UNL     1      40.964 -14.760   3.332  1.00  0.00    -0.052 NA
HETATM    3  C   UNL     1      40.861 -15.422   2.170  1.00  0.00     0.702 A 
HETATM    4  N   UNL     1      41.569 -16.521   1.920  1.00  0.00    -0.189 N 
HETATM    5  H   UNL     1      41.420 -16.980   1.033  1.00  0.00     0.184 HD
HETATM    6  C   UNL     1      42.408 -17.035   2.825  1.00  0.00     0.062 A 
HETATM    7  C   UNL     1      42.562 -16.391   4.068  1.00  0.00     0.032 A 
HETATM    8  C   UNL     1      43.114 -18.214   2.538  1.00  0.00     0.031 A 
HETATM    9  C   UNL     1      43.970 -18.770   3.488  1.00  0.00     0.002 A 
HETATM   10  C   UNL     1      44.123 -18.156   4.727  1.00  0.00     0.001 A 
HETATM   11  C   UNL     1      43.429 -16.980   5.018  1.00  0.00     0.017 A 
ENDROOT
BRANCH   3  12
HETATM   12  N   UNL     1      39.981 -15.011   1.202  1.00  0.00    -0.220 N 
HETATM   13  H   UNL     1      39.004 -15.259   1.201  1.00  0.00     0.178 HD
BRANCH  12  14
HETATM   14  C   UNL     1      40.487 -14.532  -0.082  1.00  0.00     0.179 C 
BRANCH  14  15
HETATM   15  C   UNL     1      39.436 -13.745  -0.843  1.00  0.00    -0.006 A 
HETATM   16  C   UNL     1      38.971 -12.523  -0.312  1.00  0.00     0.078 A 
HETATM   17  C   UNL     1      37.969 -11.800  -0.974  1.00  0.00     0.074 A 
HETATM   18  C   UNL     1      37.404 -12.291  -2.153  1.00  0.00     0.070 A 
HETATM   19  C   UNL     1      37.850 -13.505  -2.671  1.00  0.00     0.037 A 
HETATM   20  C   UNL     1      38.847 -14.232  -2.021  1.00  0.00     0.014 A 
BRANCH  16  21
HETATM   21  O   UNL     1      39.564 -12.131   0.863  1.00  0.00    -0.355 OA
HETATM   22  C   UNL     1      38.712 -11.698   1.918  1.00  0.00     0.210 C 
ENDBRANCH  16  21
BRANCH  18  23
HETATM   23  O   UNL     1      36.420 -11.691  -2.889  1.00  0.00    -0.356 OA
HETATM   24  C   UNL     1      36.598 -10.319  -3.217  1.00  0.00     0.210 C 
ENDBRANCH  18  23
ENDBRANCH  14  15
ENDBRANCH  12  14
ENDBRANCH   3  12
BRANCH   1  25
HETATM   25  N   UNL     1      41.891 -14.540   5.491  1.00  0.00    -0.272 NA
HETATM   26  H   UNL     1      42.027 -15.176   6.273  1.00  0.00     0.129 HD
BRANCH  25  27
HETATM   27  C   UNL     1      42.757 -13.357   5.588  1.00  0.00     0.053 C 
HETATM   28  C   UNL     1      43.736 -13.495   6.754  1.00  0.00     0.026 C 
HETATM   29  C   UNL     1      41.862 -12.135   5.799  1.00  0.00     0.026 C 
ENDBRANCH  25  27
ENDBRANCH   1  25
TORSDOF 7
ENDMDL
MODEL 8
REMARK VINA RESULT:      -7.0      3.109      7.531
REMARK  7 active torsions:
REMARK  status: ('A' for Active; 'I' for Inactive)
REMARK    1  A    between atoms: C_2  and  N_3 
REMARK    2  A    between atoms: N_3  and  C_4 
REMARK    3  A    between atoms: C_6  and  N_7 
REMARK    4  A    between atoms: N_7  and  C_8 
REMARK    5  A    between atoms: C_8  and  C_9 
REMARK    6  A    between atoms: C_10  and  O_11 
REMARK    7  A    between atoms: C_14  and  O_15 
ROOT
HETATM    1  C   UNL     1      42.501 -10.776   6.980  1.00  0.00     0.135 A 
HETATM    2  N   UNL     1      42.479 -11.975   6.371  1.00  0.00    -0.052 NA
HETATM    3  C   UNL     1      43.635 -12.626   6.170  1.00  0.00     0.702 A 
HETATM    4  N   UNL     1      44.803 -12.124   6.563  1.00  0.00    -0.189 N 
HETATM    5  H   UNL     1      45.629 -12.682   6.401  1.00  0.00     0.184 HD
HETATM    6  C   UNL     1      44.884 -10.949   7.197  1.00  0.00     0.062 A 
HETATM    7  C   UNL     1      43.708 -10.214   7.443  1.00  0.00     0.032 A 
HETATM    8  C   UNL     1      46.131 -10.467   7.625  1.00  0.00     0.031 A 
HETATM    9  C   UNL     1      46.218  -9.256   8.311  1.00  0.00     0.002 A 
HETATM   10  C   UNL     1      45.065  -8.523   8.575  1.00  0.00     0.001 A 
HETATM   11  C   UNL     1      43.821  -8.994   8.148  1.00  0.00     0.017 A 
ENDROOT
BRANCH   3  12
HETATM   12  N   UNL     1      43.652 -13.865   5.586  1.00  0.00    -0.220 N 
HETATM   13  H   UNL     1      44.495 -14.402   5.450  1.00  0.00     0.178 HD
BRANCH  12  14
HETATM   14  C   UNL     1      42.518 -14.301   4.775  1.00  0.00     0.179 C 
BRANCH  14  15
HETATM   15  C   UNL     1      42.785 -15.634   4.101  1.00  0.00    -0.006 A 
HETATM   16  C   UNL     1      42.916 -16.793   4.896  1.00  0.00     0.078 A 
HETATM   17  C   UNL     1      43.208 -18.030   4.301  1.00  0.00     0.074 A 
HETATM   18  C   UNL     1      43.393 -18.123   2.920  1.00  0.00     0.070 A 
HETATM   19  C   UNL     1      43.281 -16.977   2.135  1.00  0.00     0.037 A 
HETATM   20  C   UNL     1      42.990 -15.743   2.717  1.00  0.00     0.014 A 
BRANCH  16  21
HETATM   21  O   UNL     1      42.743 -16.602   6.245  1.00  0.00    -0.355 OA
HETATM   22  C   UNL     1      43.688 -17.207   7.122  1.00  0.00     0.210 C 
ENDBRANCH  16  21
BRANCH  18  23
HETATM   23  O   UNL     1      43.687 -19.259   2.219  1.00  0.00    -0.356 OA
HETATM   24  C   UNL     1      43.713 -20.483   2.944  1.00  0.00     0.210 C 
ENDBRANCH  18  23
ENDBRANCH  14  15
ENDBRANCH  12  14
ENDBRANCH   3  12
BRANCH   1  25
HETATM   25  N   UNL     1      41.291 -10.119   7.215  1.00  0.00    -0.272 NA
HETATM   26  H   UNL     1      41.426  -9.135   7.439  1.00  0.00     0.129 HD
BRANCH  25  27
HETATM   27  C   UNL     1      40.184 -10.319   6.269  1.00  0.00     0.053 C 
HETATM   28  C   UNL     1      39.813  -9.006   5.581  1.00  0.00     0.026 C 
HETATM   29  C   UNL     1      38.986 -10.856   7.054  1.00  0.00     0.026 C 
ENDBRANCH  25  27
ENDBRANCH   1  25
TORSDOF 7
ENDMDL
MODEL 9
REMARK VINA RESULT:      -6.9     14.479     16.013
REMARK  7 active torsions:
REMARK  status: ('A' for Active; 'I' for Inactive)
REMARK    1  A    between atoms: C_2  and  N_3 
REMARK    2  A    between atoms: N_3  and  C_4 
REMARK    3  A    between atoms: C_6  and  N_7 
REMARK    4  A    between atoms: N_7  and  C_8 
REMARK    5  A    between atoms: C_8  and  C_9 
REMARK    6  A    between atoms: C_10  and  O_11 
REMARK    7  A    between atoms: C_14  and  O_15 
ROOT
HETATM    1  C   UNL     1      47.187 -28.805   1.716  1.00  0.00     0.135 A 
HETATM    2  N   UNL     1      46.267 -29.200   2.614  1.00  0.00    -0.052 NA
HETATM    3  C   UNL     1      44.988 -29.317   2.228  1.00  0.00     0.702 A 
HETATM    4  N   UNL     1      44.602 -29.059   0.980  1.00  0.00    -0.189 N 
HETATM    5  H   UNL     1      43.627 -29.193   0.756  1.00  0.00     0.184 HD
HETATM    6  C   UNL     1      45.476 -28.688   0.039  1.00  0.00     0.062 A 
HETATM    7  C   UNL     1      46.836 -28.549   0.375  1.00  0.00     0.032 A 
HETATM    8  C   UNL     1      45.036 -28.456  -1.274  1.00  0.00     0.031 A 
HETATM    9  C   UNL     1      45.948 -28.095  -2.266  1.00  0.00     0.002 A 
HETATM   10  C   UNL     1      47.298 -27.967  -1.955  1.00  0.00     0.001 A 
HETATM   11  C   UNL     1      47.742 -28.192  -0.650  1.00  0.00     0.017 A 
ENDROOT
BRANCH   3  12
HETATM   12  N   UNL     1      44.026 -29.752   3.102  1.00  0.00    -0.220 N 
HETATM   13  H   UNL     1      44.175 -30.500   3.762  1.00  0.00     0.178 HD
BRANCH  12  14
HETATM   14  C   UNL     1      42.622 -29.432   2.856  1.00  0.00     0.179 C 
BRANCH  14  15
HETATM   15  C   UNL     1      41.720 -30.628   3.092  1.00  0.00    -0.006 A 
HETATM   16  C   UNL     1      41.610 -31.616   2.091  1.00  0.00     0.078 A 
HETATM   17  C   UNL     1      40.749 -32.710   2.267  1.00  0.00     0.074 A 
HETATM   18  C   UNL     1      39.975 -32.820   3.424  1.00  0.00     0.070 A 
HETATM   19  C   UNL     1      40.070 -31.836   4.407  1.00  0.00     0.037 A 
HETATM   20  C   UNL     1      40.923 -30.747   4.242  1.00  0.00     0.014 A 
BRANCH  16  21
HETATM   21  O   UNL     1      42.388 -31.413   0.978  1.00  0.00    -0.355 OA
HETATM   22  C   UNL     1      43.251 -32.472   0.575  1.00  0.00     0.210 C 
ENDBRANCH  16  21
BRANCH  18  23
HETATM   23  O   UNL     1      39.096 -33.825   3.715  1.00  0.00    -0.356 OA
HETATM   24  C   UNL     1      37.714 -33.489   3.761  1.00  0.00     0.210 C 
ENDBRANCH  18  23
ENDBRANCH  14  15
ENDBRANCH  12  14
ENDBRANCH   3  12
BRANCH   1  25
HETATM   25  N   UNL     1      48.523 -28.717   2.116  1.00  0.00    -0.272 NA
HETATM   26  H   UNL     1      48.686 -27.929   2.739  1.00  0.00     0.129 HD
BRANCH  25  27
HETATM   27  C   UNL     1      49.200 -29.935   2.583  1.00  0.00     0.053 C 
HETATM   28  C   UNL     1      49.717 -29.755   4.011  1.00  0.00     0.026 C 
HETATM   29  C   UNL     1      50.367 -30.217   1.636  1.00  0.00     0.026 C 
ENDBRANCH  25  27
ENDBRANCH   1  25
TORSDOF 7
ENDMDL
MODEL 10
REMARK VINA RESULT:      -6.8     14.581     16.978
REMARK  7 active torsions:
REMARK  status: ('A' for Active; 'I' for Inactive)
REMARK    1  A    between atoms: C_2  and  N_3 
REMARK    2  A    between atoms: N_3  and  C_4 
REMARK    3  A    between atoms: C_6  and  N_7 
REMARK    4  A    between atoms: N_7  and  C_8 
REMARK    5  A    between atoms: C_8  and  C_9 
REMARK    6  A    between atoms: C_10  and  O_11 
REMARK    7  A    between atoms: C_14  and  O_15 
ROOT
HETATM    1  C   UNL     1      49.149 -30.277   1.233  1.00  0.00     0.135 A 
HETATM    2  N   UNL     1      48.187 -29.369   0.989  1.00  0.00    -0.052 NA
HETATM    3  C   UNL     1      48.124 -28.797  -0.223  1.00  0.00     0.702 A 
HETATM    4  N   UNL     1      48.980 -29.105  -1.193  1.00  0.00    -0.189 N 
HETATM    5  H   UNL     1      48.856 -28.652  -2.087  1.00  0.00     0.184 HD
HETATM    6  C   UNL     1      49.940 -30.019  -1.016  1.00  0.00     0.062 A 
HETATM    7  C   UNL     1      50.061 -30.662   0.231  1.00  0.00     0.032 A 
HETATM    8  C   UNL     1      50.806 -30.341  -2.074  1.00  0.00     0.031 A 
HETATM    9  C   UNL     1      51.792 -31.314  -1.904  1.00  0.00     0.002 A 
HETATM   10  C   UNL     1      51.916 -31.969  -0.683  1.00  0.00     0.001 A 
HETATM   11  C   UNL     1      51.062 -31.650   0.376  1.00  0.00     0.017 A 
ENDROOT
BRANCH   3  12
HETATM   12  N   UNL     1      47.137 -27.894  -0.524  1.00  0.00    -0.220 N 
HETATM   13  H   UNL     1      47.284 -26.897  -0.539  1.00  0.00     0.178 HD
BRANCH  12  14
HETATM   14  C   UNL     1      45.735 -28.299  -0.448  1.00  0.00     0.179 C 
BRANCH  14  15
HETATM   15  C   UNL     1      45.205 -28.750  -1.796  1.00  0.00    -0.006 A 
HETATM   16  C   UNL     1      44.446 -29.937  -1.876  1.00  0.00     0.078 A 
HETATM   17  C   UNL     1      43.982 -30.398  -3.117  1.00  0.00     0.074 A 
HETATM   18  C   UNL     1      44.285 -29.700  -4.288  1.00  0.00     0.070 A 
HETATM   19  C   UNL     1      45.048 -28.536  -4.213  1.00  0.00     0.037 A 
HETATM   20  C   UNL     1      45.513 -28.069  -2.985  1.00  0.00     0.014 A 
BRANCH  16  21
HETATM   21  O   UNL     1      44.219 -30.570  -0.679  1.00  0.00    -0.355 OA
HETATM   22  C   UNL     1      44.436 -31.976  -0.626  1.00  0.00     0.210 C 
ENDBRANCH  16  21
BRANCH  18  23
HETATM   23  O   UNL     1      43.903 -30.043  -5.556  1.00  0.00    -0.356 OA
HETATM   24  C   UNL     1      44.396 -31.273  -6.073  1.00  0.00     0.210 C 
ENDBRANCH  18  23
ENDBRANCH  14  15
ENDBRANCH  12  14
ENDBRANCH   3  12
BRANCH   1  25
HETATM   25  N   UNL     1      49.188 -30.893   2.486  1.00  0.00    -0.272 NA
HETATM   26  H   UNL     1      49.845 -31.670   2.511  1.00  0.00     0.129 HD
BRANCH  25  27
HETATM   27  C   UNL     1      49.291 -30.049   3.685  1.00  0.00     0.053 C 
HETATM   28  C   UNL     1      50.509 -30.441   4.522  1.00  0.00     0.026 C 
HETATM   29  C   UNL     1      48.012 -30.235   4.502  1.00  0.00     0.026 C 
ENDBRANCH  25  27
ENDBRANCH   1  25
TORSDOF 7
ENDMDL
