MODEL 1
REMARK VINA RESULT:      -8.8      0.000      0.000
REMARK  6 active torsions:
REMARK  status: ('A' for Active; 'I' for Inactive)
REMARK    1  A    between atoms: C_4  and  C_5 
REMARK    2  A    between atoms: C_9  and  C_10 
REMARK       I    between atoms: C_10  and  N_11 
REMARK    3  A    between atoms: N_11  and  C_12 
REMARK    4  A    between atoms: C_12  and  C_13 
REMARK    5  A    between atoms: C_13  and  N_14 
REMARK    6  A    between atoms: C_13  and  C_18 
ROOT
HETATM    1  C   UNL     1      43.919 -12.577   6.817  1.00  0.00     0.092 A 
HETATM    2  N   UNL     1      44.282 -13.831   7.163  1.00  0.00    -0.246 NA
HETATM    3  C   UNL     1      43.578 -14.874   6.695  1.00  0.00     0.069 A 
HETATM    4  C   UNL     1      42.468 -14.731   5.838  1.00  0.00     0.008 A 
HETATM    5  C   UNL     1      42.153 -13.405   5.452  1.00  0.00     0.046 A 
HETATM    6  C   UNL     1      42.867 -12.320   5.962  1.00  0.00     0.052 A 
HETATM    7  C   UNL     1      43.967 -16.146   7.092  1.00  0.00     0.032 A 
HETATM    8  C   UNL     1      43.278 -17.289   6.686  1.00  0.00     0.002 A 
HETATM    9  C   UNL     1      42.159 -17.164   5.877  1.00  0.00     0.001 A 
HETATM   10  C   UNL     1      41.749 -15.897   5.462  1.00  0.00     0.015 A 
ENDROOT
BRANCH   5  11
HETATM   11  C   UNL     1      41.066 -13.058   4.504  1.00  0.00     0.252 C 
HETATM   12  N   UNL     1      41.434 -12.619   3.253  1.00  0.00    -0.355 N 
HETATM   13  H   UNL     1      42.430 -12.602   3.045  1.00  0.00     0.162 HD
HETATM   14  O   UNL     1      39.896 -13.034   4.871  1.00  0.00    -0.268 OA
BRANCH  12  15
HETATM   15  C   UNL     1      40.535 -12.513   2.096  1.00  0.00     0.161 C 
BRANCH  15  16
HETATM   16  C   UNL     1      40.529 -13.654   1.015  1.00  0.00     0.237 C 
BRANCH  16  17
HETATM   17  N   UNL     1      40.859 -13.116  -0.378  1.00  0.00    -0.069 N 
HETATM   18  H   UNL     1      41.852 -13.397  -0.482  1.00  0.00     0.279 HD
HETATM   19  C   UNL     1      40.094 -13.701  -1.515  1.00  0.00     0.270 C 
HETATM   20  C   UNL     1      40.911 -11.619  -0.445  1.00  0.00     0.270 C 
ENDBRANCH  16  17
BRANCH  16  21
HETATM   21  C   UNL     1      41.345 -14.876   1.408  1.00  0.00    -0.026 A 
HETATM   22  C   UNL     1      42.751 -14.813   1.342  1.00  0.00     0.009 A 
HETATM   23  C   UNL     1      43.538 -15.901   1.722  1.00  0.00     0.001 A 
HETATM   24  C   UNL     1      42.938 -17.073   2.169  1.00  0.00     0.000 A 
HETATM   25  C   UNL     1      41.550 -17.157   2.239  1.00  0.00     0.001 A 
HETATM   26  C   UNL     1      40.758 -16.067   1.867  1.00  0.00     0.009 A 
ENDBRANCH  16  21
ENDBRANCH  15  16
ENDBRANCH  12  15
ENDBRANCH   5  11
BRANCH   1  27
HETATM   27  C   UNL     1      44.720 -11.519   7.417  1.00  0.00     0.104 A 
HETATM   28  O   UNL     1      44.438 -11.192   8.716  1.00  0.00    -0.313 OA
HETATM   29  C   UNL     1      45.294 -10.192   9.077  1.00  0.00     0.050 A 
HETATM   30  C   UNL     1      45.167  -9.670  10.451  1.00  0.00     0.076 C 
HETATM   31  C   UNL     1      46.125  -9.878   8.025  1.00  0.00     0.035 A 
HETATM   32  C   UNL     1      45.752 -10.727   6.956  1.00  0.00     0.042 A 
ENDBRANCH   1  27
TORSDOF 6
ENDMDL
MODEL 2
REMARK VINA RESULT:      -8.4      2.075      6.861
REMARK  6 active torsions:
REMARK  status: ('A' for Active; 'I' for Inactive)
REMARK    1  A    between atoms: C_4  and  C_5 
REMARK    2  A    between atoms: C_9  and  C_10 
REMARK       I    between atoms: C_10  and  N_11 
REMARK    3  A    between atoms: N_11  and  C_12 
REMARK    4  A    between atoms: C_12  and  C_13 
REMARK    5  A    between atoms: C_13  and  N_14 
REMARK    6  A    between atoms: C_13  and  C_18 
ROOT
HETATM    1  C   UNL     1      41.638 -15.394   2.117  1.00  0.00     0.092 A 
HETATM    2  N   UNL     1      42.098 -16.626   1.809  1.00  0.00    -0.246 NA
HETATM    3  C   UNL     1      42.774 -17.328   2.731  1.00  0.00     0.069 A 
HETATM    4  C   UNL     1      43.026 -16.847   4.032  1.00  0.00     0.008 A 
HETATM    5  C   UNL     1      42.480 -15.576   4.337  1.00  0.00     0.046 A 
HETATM    6  C   UNL     1      41.803 -14.835   3.368  1.00  0.00     0.052 A 
HETATM    7  C   UNL     1      43.250 -18.580   2.369  1.00  0.00     0.032 A 
HETATM    8  C   UNL     1      43.992 -19.370   3.247  1.00  0.00     0.002 A 
HETATM    9  C   UNL     1      44.286 -18.895   4.516  1.00  0.00     0.001 A 
HETATM   10  C   UNL     1      43.816 -17.641   4.906  1.00  0.00     0.015 A 
ENDROOT
BRANCH   5  11
HETATM   11  C   UNL     1      42.579 -14.934   5.671  1.00  0.00     0.252 C 
HETATM   12  N   UNL     1      43.593 -14.024   5.861  1.00  0.00    -0.355 N 
HETATM   13  H   UNL     1      44.184 -13.818   5.058  1.00  0.00     0.162 HD
HETATM   14  O   UNL     1      41.870 -15.305   6.600  1.00  0.00    -0.268 OA
BRANCH  12  15
HETATM   15  C   UNL     1      43.681 -13.079   6.982  1.00  0.00     0.161 C 
BRANCH  15  16
HETATM   16  C   UNL     1      43.184 -11.601   6.788  1.00  0.00     0.237 C 
BRANCH  16  17
HETATM   17  N   UNL     1      44.321 -10.592   6.963  1.00  0.00    -0.069 N 
HETATM   18  H   UNL     1      44.301 -10.093   6.055  1.00  0.00     0.279 HD
HETATM   19  C   UNL     1      44.154  -9.584   8.048  1.00  0.00     0.270 C 
HETATM   20  C   UNL     1      45.681 -11.223   6.985  1.00  0.00     0.270 C 
ENDBRANCH  16  17
BRANCH  16  21
HETATM   21  C   UNL     1      42.370 -11.388   5.520  1.00  0.00    -0.026 A 
HETATM   22  C   UNL     1      43.026 -10.980   4.343  1.00  0.00     0.009 A 
HETATM   23  C   UNL     1      42.322 -10.803   3.151  1.00  0.00     0.001 A 
HETATM   24  C   UNL     1      40.950 -11.024   3.113  1.00  0.00     0.000 A 
HETATM   25  C   UNL     1      40.281 -11.426   4.267  1.00  0.00     0.001 A 
HETATM   26  C   UNL     1      40.984 -11.612   5.460  1.00  0.00     0.009 A 
ENDBRANCH  16  21
ENDBRANCH  15  16
ENDBRANCH  12  15
ENDBRANCH   5  11
BRANCH   1  27
HETATM   27  C   UNL     1      40.960 -14.701   1.031  1.00  0.00     0.104 A 
HETATM   28  O   UNL     1      41.391 -13.434   0.742  1.00  0.00    -0.313 OA
HETATM   29  C   UNL     1      40.632 -12.975  -0.295  1.00  0.00     0.050 A 
HETATM   30  C   UNL     1      40.919 -11.610  -0.777  1.00  0.00     0.076 C 
HETATM   31  C   UNL     1      39.722 -13.935  -0.678  1.00  0.00     0.035 A 
HETATM   32  C   UNL     1      39.930 -15.043   0.178  1.00  0.00     0.042 A 
ENDBRANCH   1  27
TORSDOF 6
ENDMDL
MODEL 3
REMARK VINA RESULT:      -8.2      1.966      7.500
REMARK  6 active torsions:
REMARK  status: ('A' for Active; 'I' for Inactive)
REMARK    1  A    between atoms: C_4  and  C_5 
REMARK    2  A    between atoms: C_9  and  C_10 
REMARK       I    between atoms: C_10  and  N_11 
REMARK    3  A    between atoms: N_11  and  C_12 
REMARK    4  A    between atoms: C_12  and  C_13 
REMARK    5  A    between atoms: C_13  and  N_14 
REMARK    6  A    between atoms: C_13  and  C_18 
ROOT
HETATM    1  C   UNL     1      41.552 -15.277   2.015  1.00  0.00     0.092 A 
HETATM    2  N   UNL     1      42.037 -16.511   1.756  1.00  0.00    -0.246 NA
HETATM    3  C   UNL     1      42.702 -17.173   2.715  1.00  0.00     0.069 A 
HETATM    4  C   UNL     1      42.916 -16.649   4.006  1.00  0.00     0.008 A 
HETATM    5  C   UNL     1      42.344 -15.378   4.259  1.00  0.00     0.046 A 
HETATM    6  C   UNL     1      41.678 -14.678   3.251  1.00  0.00     0.052 A 
HETATM    7  C   UNL     1      43.206 -18.428   2.403  1.00  0.00     0.032 A 
HETATM    8  C   UNL     1      43.939 -19.180   3.322  1.00  0.00     0.002 A 
HETATM    9  C   UNL     1      44.196 -18.661   4.582  1.00  0.00     0.001 A 
HETATM   10  C   UNL     1      43.698 -17.403   4.922  1.00  0.00     0.015 A 
ENDROOT
BRANCH   5  11
HETATM   11  C   UNL     1      42.402 -14.693   5.573  1.00  0.00     0.252 C 
HETATM   12  N   UNL     1      43.567 -14.037   5.894  1.00  0.00    -0.355 N 
HETATM   13  H   UNL     1      44.300 -14.027   5.187  1.00  0.00     0.162 HD
HETATM   14  O   UNL     1      41.498 -14.828   6.391  1.00  0.00    -0.268 OA
BRANCH  12  15
HETATM   15  C   UNL     1      43.719 -13.070   6.989  1.00  0.00     0.161 C 
BRANCH  15  16
HETATM   16  C   UNL     1      44.157 -11.596   6.664  1.00  0.00     0.237 C 
BRANCH  16  17
HETATM   17  N   UNL     1      43.112 -10.868   5.817  1.00  0.00    -0.069 N 
HETATM   18  H   UNL     1      43.328  -9.876   6.024  1.00  0.00     0.279 HD
HETATM   19  C   UNL     1      43.200 -11.060   4.342  1.00  0.00     0.270 C 
HETATM   20  C   UNL     1      41.711 -11.034   6.324  1.00  0.00     0.270 C 
ENDBRANCH  16  17
BRANCH  16  21
HETATM   21  C   UNL     1      44.613 -10.807   7.883  1.00  0.00    -0.026 A 
HETATM   22  C   UNL     1      45.667  -9.883   7.747  1.00  0.00     0.009 A 
HETATM   23  C   UNL     1      46.096  -9.117   8.832  1.00  0.00     0.001 A 
HETATM   24  C   UNL     1      45.486  -9.264  10.073  1.00  0.00     0.000 A 
HETATM   25  C   UNL     1      44.445 -10.175  10.229  1.00  0.00     0.001 A 
HETATM   26  C   UNL     1      44.006 -10.938   9.143  1.00  0.00     0.009 A 
ENDBRANCH  16  21
ENDBRANCH  15  16
ENDBRANCH  12  15
ENDBRANCH   5  11
BRANCH   1  27
HETATM   27  C   UNL     1      40.889 -14.629   0.892  1.00  0.00     0.104 A 
HETATM   28  O   UNL     1      41.282 -13.351   0.598  1.00  0.00    -0.313 OA
HETATM   29  C   UNL     1      40.545 -12.938  -0.474  1.00  0.00     0.050 A 
HETATM   30  C   UNL     1      40.797 -11.571  -0.969  1.00  0.00     0.076 C 
HETATM   31  C   UNL     1      39.688 -13.939  -0.874  1.00  0.00     0.035 A 
HETATM   32  C   UNL     1      39.906 -15.024   0.009  1.00  0.00     0.042 A 
ENDBRANCH   1  27
TORSDOF 6
ENDMDL
MODEL 4
REMARK VINA RESULT:      -7.9      2.458      8.076
REMARK  6 active torsions:
REMARK  status: ('A' for Active; 'I' for Inactive)
REMARK    1  A    between atoms: C_4  and  C_5 
REMARK    2  A    between atoms: C_9  and  C_10 
REMARK       I    between atoms: C_10  and  N_11 
REMARK    3  A    between atoms: N_11  and  C_12 
REMARK    4  A    between atoms: C_12  and  C_13 
REMARK    5  A    between atoms: C_13  and  N_14 
REMARK    6  A    between atoms: C_13  and  C_18 
ROOT
HETATM    1  C   UNL     1      42.691 -15.602   2.669  1.00  0.00     0.092 A 
HETATM    2  N   UNL     1      41.824 -15.625   1.634  1.00  0.00    -0.246 NA
HETATM    3  C   UNL     1      41.268 -14.479   1.213  1.00  0.00     0.069 A 
HETATM    4  C   UNL     1      41.554 -13.226   1.793  1.00  0.00     0.008 A 
HETATM    5  C   UNL     1      42.512 -13.234   2.837  1.00  0.00     0.046 A 
HETATM    6  C   UNL     1      43.066 -14.430   3.294  1.00  0.00     0.052 A 
HETATM    7  C   UNL     1      40.364 -14.547   0.163  1.00  0.00     0.032 A 
HETATM    8  C   UNL     1      39.710 -13.414  -0.324  1.00  0.00     0.002 A 
HETATM    9  C   UNL     1      39.947 -12.181   0.263  1.00  0.00     0.001 A 
HETATM   10  C   UNL     1      40.854 -12.085   1.318  1.00  0.00     0.015 A 
ENDROOT
BRANCH   5  11
HETATM   11  C   UNL     1      42.994 -12.010   3.523  1.00  0.00     0.252 C 
HETATM   12  N   UNL     1      42.293 -11.587   4.629  1.00  0.00    -0.355 N 
HETATM   13  H   UNL     1      41.513 -12.168   4.930  1.00  0.00     0.162 HD
HETATM   14  O   UNL     1      43.895 -11.333   3.040  1.00  0.00    -0.268 OA
BRANCH  12  15
HETATM   15  C   UNL     1      42.769 -10.595   5.603  1.00  0.00     0.161 C 
BRANCH  15  16
HETATM   16  C   UNL     1      43.121 -11.055   7.064  1.00  0.00     0.237 C 
BRANCH  16  17
HETATM   17  N   UNL     1      44.325 -11.999   7.086  1.00  0.00    -0.069 N 
HETATM   18  H   UNL     1      44.634 -11.921   8.072  1.00  0.00     0.279 HD
HETATM   19  C   UNL     1      44.049 -13.435   6.801  1.00  0.00     0.270 C 
HETATM   20  C   UNL     1      45.501 -11.486   6.310  1.00  0.00     0.270 C 
ENDBRANCH  16  17
BRANCH  16  21
HETATM   21  C   UNL     1      43.224  -9.909   8.060  1.00  0.00    -0.026 A 
HETATM   22  C   UNL     1      43.792 -10.151   9.327  1.00  0.00     0.009 A 
HETATM   23  C   UNL     1      43.933  -9.122  10.259  1.00  0.00     0.001 A 
HETATM   24  C   UNL     1      43.505  -7.836   9.947  1.00  0.00     0.000 A 
HETATM   25  C   UNL     1      42.938  -7.577   8.702  1.00  0.00     0.001 A 
HETATM   26  C   UNL     1      42.803  -8.603   7.762  1.00  0.00     0.009 A 
ENDBRANCH  16  21
ENDBRANCH  15  16
ENDBRANCH  12  15
ENDBRANCH   5  11
BRANCH   1  27
HETATM   27  C   UNL     1      43.198 -16.905   3.075  1.00  0.00     0.104 A 
HETATM   28  O   UNL     1      43.071 -17.926   2.172  1.00  0.00    -0.313 OA
HETATM   29  C   UNL     1      43.603 -19.043   2.746  1.00  0.00     0.050 A 
HETATM   30  C   UNL     1      43.569 -20.284   1.947  1.00  0.00     0.076 C 
HETATM   31  C   UNL     1      44.075 -18.750   4.006  1.00  0.00     0.035 A 
HETATM   32  C   UNL     1      43.809 -17.376   4.220  1.00  0.00     0.042 A 
ENDBRANCH   1  27
TORSDOF 6
ENDMDL
MODEL 5
REMARK VINA RESULT:      -7.9      2.368      7.767
REMARK  6 active torsions:
REMARK  status: ('A' for Active; 'I' for Inactive)
REMARK    1  A    between atoms: C_4  and  C_5 
REMARK    2  A    between atoms: C_9  and  C_10 
REMARK       I    between atoms: C_10  and  N_11 
REMARK    3  A    between atoms: N_11  and  C_12 
REMARK    4  A    between atoms: C_12  and  C_13 
REMARK    5  A    between atoms: C_13  and  N_14 
REMARK    6  A    between atoms: C_13  and  C_18 
ROOT
HETATM    1  C   UNL     1      42.408 -17.102   3.160  1.00  0.00     0.092 A 
HETATM    2  N   UNL     1      41.885 -16.654   1.998  1.00  0.00    -0.246 NA
HETATM    3  C   UNL     1      41.282 -15.456   1.963  1.00  0.00     0.069 A 
HETATM    4  C   UNL     1      41.173 -14.616   3.091  1.00  0.00     0.008 A 
HETATM    5  C   UNL     1      41.784 -15.094   4.277  1.00  0.00     0.046 A 
HETATM    6  C   UNL     1      42.383 -16.353   4.318  1.00  0.00     0.052 A 
HETATM    7  C   UNL     1      40.736 -15.041   0.757  1.00  0.00     0.032 A 
HETATM    8  C   UNL     1      40.062 -13.827   0.629  1.00  0.00     0.002 A 
HETATM    9  C   UNL     1      39.908 -13.008   1.738  1.00  0.00     0.001 A 
HETATM   10  C   UNL     1      40.450 -13.401   2.962  1.00  0.00     0.015 A 
ENDROOT
BRANCH   5  11
HETATM   11  C   UNL     1      41.835 -14.326   5.545  1.00  0.00     0.252 C 
HETATM   12  N   UNL     1      43.065 -13.874   5.962  1.00  0.00    -0.355 N 
HETATM   13  H   UNL     1      43.856 -14.059   5.348  1.00  0.00     0.162 HD
HETATM   14  O   UNL     1      40.841 -14.221   6.256  1.00  0.00    -0.268 OA
BRANCH  12  15
HETATM   15  C   UNL     1      43.285 -12.864   7.006  1.00  0.00     0.161 C 
BRANCH  15  16
HETATM   16  C   UNL     1      43.863 -11.457   6.611  1.00  0.00     0.237 C 
BRANCH  16  17
HETATM   17  N   UNL     1      42.848 -10.630   5.821  1.00  0.00    -0.069 N 
HETATM   18  H   UNL     1      43.160  -9.663   6.026  1.00  0.00     0.279 HD
HETATM   19  C   UNL     1      42.852 -10.810   4.341  1.00  0.00     0.270 C 
HETATM   20  C   UNL     1      41.462 -10.679   6.391  1.00  0.00     0.270 C 
ENDBRANCH  16  17
BRANCH  16  21
HETATM   21  C   UNL     1      44.493 -10.703   7.774  1.00  0.00    -0.026 A 
HETATM   22  C   UNL     1      45.639  -9.918   7.542  1.00  0.00     0.009 A 
HETATM   23  C   UNL     1      46.230  -9.187   8.573  1.00  0.00     0.001 A 
HETATM   24  C   UNL     1      45.692  -9.231   9.855  1.00  0.00     0.000 A 
HETATM   25  C   UNL     1      44.562 -10.003  10.106  1.00  0.00     0.001 A 
HETATM   26  C   UNL     1      43.962 -10.730   9.074  1.00  0.00     0.009 A 
ENDBRANCH  16  21
ENDBRANCH  15  16
ENDBRANCH  12  15
ENDBRANCH   5  11
BRANCH   1  27
HETATM   27  C   UNL     1      42.996 -18.432   3.097  1.00  0.00     0.104 A 
HETATM   28  O   UNL     1      43.497 -18.942   4.265  1.00  0.00    -0.313 OA
HETATM   29  C   UNL     1      43.992 -20.182   3.985  1.00  0.00     0.050 A 
HETATM   30  C   UNL     1      44.596 -20.926   5.108  1.00  0.00     0.076 C 
HETATM   31  C   UNL     1      43.811 -20.476   2.652  1.00  0.00     0.035 A 
HETATM   32  C   UNL     1      43.175 -19.348   2.080  1.00  0.00     0.042 A 
ENDBRANCH   1  27
TORSDOF 6
ENDMDL
MODEL 6
REMARK VINA RESULT:      -7.9      2.614      4.218
REMARK  6 active torsions:
REMARK  status: ('A' for Active; 'I' for Inactive)
REMARK    1  A    between atoms: C_4  and  C_5 
REMARK    2  A    between atoms: C_9  and  C_10 
REMARK       I    between atoms: C_10  and  N_11 
REMARK    3  A    between atoms: N_11  and  C_12 
REMARK    4  A    between atoms: C_12  and  C_13 
REMARK    5  A    between atoms: C_13  and  N_14 
REMARK    6  A    between atoms: C_13  and  C_18 
ROOT
HETATM    1  C   UNL     1      42.913 -10.097   7.575  1.00  0.00     0.092 A 
HETATM    2  N   UNL     1      41.670  -9.570   7.626  1.00  0.00    -0.246 NA
HETATM    3  C   UNL     1      40.858  -9.693   6.565  1.00  0.00     0.069 A 
HETATM    4  C   UNL     1      41.232 -10.363   5.382  1.00  0.00     0.008 A 
HETATM    5  C   UNL     1      42.521 -10.951   5.387  1.00  0.00     0.046 A 
HETATM    6  C   UNL     1      43.375 -10.798   6.480  1.00  0.00     0.052 A 
HETATM    7  C   UNL     1      39.598  -9.117   6.646  1.00  0.00     0.032 A 
HETATM    8  C   UNL     1      38.695  -9.162   5.584  1.00  0.00     0.002 A 
HETATM    9  C   UNL     1      39.062  -9.780   4.398  1.00  0.00     0.001 A 
HETATM   10  C   UNL     1      40.322 -10.369   4.291  1.00  0.00     0.015 A 
ENDROOT
BRANCH   5  11
HETATM   11  C   UNL     1      43.065 -11.754   4.265  1.00  0.00     0.252 C 
HETATM   12  N   UNL     1      42.890 -13.118   4.319  1.00  0.00    -0.355 N 
HETATM   13  H   UNL     1      42.358 -13.483   5.107  1.00  0.00     0.162 HD
HETATM   14  O   UNL     1      43.761 -11.233   3.400  1.00  0.00    -0.268 OA
BRANCH  12  15
HETATM   15  C   UNL     1      43.084 -14.040   3.193  1.00  0.00     0.161 C 
BRANCH  15  16
HETATM   16  C   UNL     1      42.154 -15.300   3.056  1.00  0.00     0.237 C 
BRANCH  16  17
HETATM   17  N   UNL     1      41.329 -15.258   1.770  1.00  0.00    -0.069 N 
HETATM   18  H   UNL     1      41.825 -15.950   1.179  1.00  0.00     0.279 HD
HETATM   19  C   UNL     1      39.904 -15.683   1.879  1.00  0.00     0.270 C 
HETATM   20  C   UNL     1      41.476 -13.975   1.006  1.00  0.00     0.270 C 
ENDBRANCH  16  17
BRANCH  16  21
HETATM   21  C   UNL     1      42.875 -16.622   3.277  1.00  0.00    -0.026 A 
HETATM   22  C   UNL     1      43.432 -16.897   4.541  1.00  0.00     0.009 A 
HETATM   23  C   UNL     1      44.074 -18.110   4.796  1.00  0.00     0.001 A 
HETATM   24  C   UNL     1      44.177 -19.067   3.792  1.00  0.00     0.000 A 
HETATM   25  C   UNL     1      43.637 -18.813   2.534  1.00  0.00     0.001 A 
HETATM   26  C   UNL     1      42.985 -17.604   2.278  1.00  0.00     0.009 A 
ENDBRANCH  16  21
ENDBRANCH  15  16
ENDBRANCH  12  15
ENDBRANCH   5  11
BRANCH   1  27
HETATM   27  C   UNL     1      43.727  -9.867   8.761  1.00  0.00     0.104 A 
HETATM   28  O   UNL     1      43.109  -9.271   9.827  1.00  0.00    -0.313 OA
HETATM   29  C   UNL     1      44.039  -9.151  10.818  1.00  0.00     0.050 A 
HETATM   30  C   UNL     1      43.593  -8.523  12.077  1.00  0.00     0.076 C 
HETATM   31  C   UNL     1      45.245  -9.669  10.402  1.00  0.00     0.035 A 
HETATM   32  C   UNL     1      45.045 -10.124   9.076  1.00  0.00     0.042 A 
ENDBRANCH   1  27
TORSDOF 6
ENDMDL
MODEL 7
REMARK VINA RESULT:      -7.7      2.651      7.196
REMARK  6 active torsions:
REMARK  status: ('A' for Active; 'I' for Inactive)
REMARK    1  A    between atoms: C_4  and  C_5 
REMARK    2  A    between atoms: C_9  and  C_10 
REMARK       I    between atoms: C_10  and  N_11 
REMARK    3  A    between atoms: N_11  and  C_12 
REMARK    4  A    between atoms: C_12  and  C_13 
REMARK    5  A    between atoms: C_13  and  N_14 
REMARK    6  A    between atoms: C_13  and  C_18 
ROOT
HETATM    1  C   UNL     1      42.001 -15.106   2.086  1.00  0.00     0.092 A 
HETATM    2  N   UNL     1      41.235 -15.395   1.012  1.00  0.00    -0.246 NA
HETATM    3  C   UNL     1      40.552 -14.412   0.405  1.00  0.00     0.069 A 
HETATM    4  C   UNL     1      40.601 -13.067   0.826  1.00  0.00     0.008 A 
HETATM    5  C   UNL     1      41.460 -12.793   1.919  1.00  0.00     0.046 A 
HETATM    6  C   UNL     1      42.145 -13.821   2.568  1.00  0.00     0.052 A 
HETATM    7  C   UNL     1      39.757 -14.753  -0.680  1.00  0.00     0.032 A 
HETATM    8  C   UNL     1      38.984 -13.807  -1.356  1.00  0.00     0.002 A 
HETATM    9  C   UNL     1      38.987 -12.488  -0.929  1.00  0.00     0.001 A 
HETATM   10  C   UNL     1      39.781 -12.119   0.158  1.00  0.00     0.015 A 
ENDROOT
BRANCH   5  11
HETATM   11  C   UNL     1      41.697 -11.433   2.460  1.00  0.00     0.252 C 
HETATM   12  N   UNL     1      40.896 -11.016   3.498  1.00  0.00    -0.355 N 
HETATM   13  H   UNL     1      40.219 -11.688   3.856  1.00  0.00     0.162 HD
HETATM   14  O   UNL     1      42.482 -10.667   1.911  1.00  0.00    -0.268 OA
BRANCH  12  15
HETATM   15  C   UNL     1      41.158  -9.851   4.353  1.00  0.00     0.161 C 
BRANCH  15  16
HETATM   16  C   UNL     1      41.583 -10.071   5.850  1.00  0.00     0.237 C 
BRANCH  16  17
HETATM   17  N   UNL     1      40.411  -9.863   6.809  1.00  0.00    -0.069 N 
HETATM   18  H   UNL     1      40.047 -10.828   6.909  1.00  0.00     0.279 HD
HETATM   19  C   UNL     1      40.746  -9.354   8.169  1.00  0.00     0.270 C 
HETATM   20  C   UNL     1      39.262  -9.118   6.197  1.00  0.00     0.270 C 
ENDBRANCH  16  17
BRANCH  16  21
HETATM   21  C   UNL     1      42.345 -11.367   6.088  1.00  0.00    -0.026 A 
HETATM   22  C   UNL     1      43.730 -11.313   6.338  1.00  0.00     0.009 A 
HETATM   23  C   UNL     1      44.461 -12.475   6.591  1.00  0.00     0.001 A 
HETATM   24  C   UNL     1      43.824 -13.711   6.593  1.00  0.00     0.000 A 
HETATM   25  C   UNL     1      42.456 -13.787   6.345  1.00  0.00     0.001 A 
HETATM   26  C   UNL     1      41.719 -12.625   6.099  1.00  0.00     0.009 A 
ENDBRANCH  16  21
ENDBRANCH  15  16
ENDBRANCH  12  15
ENDBRANCH   5  11
BRANCH   1  27
HETATM   27  C   UNL     1      42.660 -16.252   2.697  1.00  0.00     0.104 A 
HETATM   28  O   UNL     1      42.620 -17.430   2.001  1.00  0.00    -0.313 OA
HETATM   29  C   UNL     1      43.289 -18.360   2.742  1.00  0.00     0.050 A 
HETATM   30  C   UNL     1      43.370 -19.724   2.183  1.00  0.00     0.076 C 
HETATM   31  C   UNL     1      43.762 -17.791   3.903  1.00  0.00     0.035 A 
HETATM   32  C   UNL     1      43.353 -16.436   3.876  1.00  0.00     0.042 A 
ENDBRANCH   1  27
TORSDOF 6
ENDMDL
MODEL 8
REMARK VINA RESULT:      -7.6      1.687      2.534
REMARK  6 active torsions:
REMARK  status: ('A' for Active; 'I' for Inactive)
REMARK    1  A    between atoms: C_4  and  C_5 
REMARK    2  A    between atoms: C_9  and  C_10 
REMARK       I    between atoms: C_10  and  N_11 
REMARK    3  A    between atoms: N_11  and  C_12 
REMARK    4  A    between atoms: C_12  and  C_13 
REMARK    5  A    between atoms: C_13  and  N_14 
REMARK    6  A    between atoms: C_13  and  C_18 
ROOT
HETATM    1  C   UNL     1      43.844 -12.639   6.807  1.00  0.00     0.092 A 
HETATM    2  N   UNL     1      44.396 -13.870   6.763  1.00  0.00    -0.246 NA
HETATM    3  C   UNL     1      43.671 -14.903   6.305  1.00  0.00     0.069 A 
HETATM    4  C   UNL     1      42.344 -14.769   5.850  1.00  0.00     0.008 A 
HETATM    5  C   UNL     1      41.818 -13.454   5.858  1.00  0.00     0.046 A 
HETATM    6  C   UNL     1      42.563 -12.386   6.361  1.00  0.00     0.052 A 
HETATM    7  C   UNL     1      44.266 -16.157   6.297  1.00  0.00     0.032 A 
HETATM    8  C   UNL     1      43.582 -17.296   5.872  1.00  0.00     0.002 A 
HETATM    9  C   UNL     1      42.263 -17.190   5.461  1.00  0.00     0.001 A 
HETATM   10  C   UNL     1      41.643 -15.940   5.457  1.00  0.00     0.015 A 
ENDROOT
BRANCH   5  11
HETATM   11  C   UNL     1      40.468 -13.102   5.354  1.00  0.00     0.252 C 
HETATM   12  N   UNL     1      40.386 -12.554   4.094  1.00  0.00    -0.355 N 
HETATM   13  H   UNL     1      41.256 -12.466   3.573  1.00  0.00     0.162 HD
HETATM   14  O   UNL     1      39.487 -13.171   6.086  1.00  0.00    -0.268 OA
BRANCH  12  15
HETATM   15  C   UNL     1      39.151 -12.416   3.311  1.00  0.00     0.161 C 
BRANCH  15  16
HETATM   16  C   UNL     1      39.194 -11.679   1.924  1.00  0.00     0.237 C 
BRANCH  16  17
HETATM   17  N   UNL     1      40.253 -10.576   1.901  1.00  0.00    -0.069 N 
HETATM   18  H   UNL     1      40.487 -10.488   2.907  1.00  0.00     0.279 HD
HETATM   19  C   UNL     1      41.510 -10.877   1.159  1.00  0.00     0.270 C 
HETATM   20  C   UNL     1      39.703  -9.225   1.552  1.00  0.00     0.270 C 
ENDBRANCH  16  17
BRANCH  16  21
HETATM   21  C   UNL     1      39.266 -12.620   0.730  1.00  0.00    -0.026 A 
HETATM   22  C   UNL     1      38.665 -12.235  -0.484  1.00  0.00     0.009 A 
HETATM   23  C   UNL     1      38.733 -13.054  -1.612  1.00  0.00     0.001 A 
HETATM   24  C   UNL     1      39.397 -14.274  -1.547  1.00  0.00     0.000 A 
HETATM   25  C   UNL     1      39.995 -14.675  -0.356  1.00  0.00     0.001 A 
HETATM   26  C   UNL     1      39.936 -13.854   0.774  1.00  0.00     0.009 A 
ENDBRANCH  16  21
ENDBRANCH  15  16
ENDBRANCH  12  15
ENDBRANCH   5  11
BRANCH   1  27
HETATM   27  C   UNL     1      44.700 -11.601   7.364  1.00  0.00     0.104 A 
HETATM   28  O   UNL     1      44.459 -11.229   8.659  1.00  0.00    -0.313 OA
HETATM   29  C   UNL     1      45.363 -10.258   8.977  1.00  0.00     0.050 A 
HETATM   30  C   UNL     1      45.285  -9.696  10.340  1.00  0.00     0.076 C 
HETATM   31  C   UNL     1      46.185 -10.006   7.901  1.00  0.00     0.035 A 
HETATM   32  C   UNL     1      45.755 -10.866   6.863  1.00  0.00     0.042 A 
ENDBRANCH   1  27
TORSDOF 6
ENDMDL
MODEL 9
REMARK VINA RESULT:      -7.6      2.725      8.252
REMARK  6 active torsions:
REMARK  status: ('A' for Active; 'I' for Inactive)
REMARK    1  A    between atoms: C_4  and  C_5 
REMARK    2  A    between atoms: C_9  and  C_10 
REMARK       I    between atoms: C_10  and  N_11 
REMARK    3  A    between atoms: N_11  and  C_12 
REMARK    4  A    between atoms: C_12  and  C_13 
REMARK    5  A    between atoms: C_13  and  N_14 
REMARK    6  A    between atoms: C_13  and  C_18 
ROOT
HETATM    1  C   UNL     1      42.769 -15.336   4.320  1.00  0.00     0.092 A 
HETATM    2  N   UNL     1      41.623 -15.212   3.615  1.00  0.00    -0.246 NA
HETATM    3  C   UNL     1      40.983 -14.033   3.599  1.00  0.00     0.069 A 
HETATM    4  C   UNL     1      41.454 -12.892   4.280  1.00  0.00     0.008 A 
HETATM    5  C   UNL     1      42.687 -13.045   4.961  1.00  0.00     0.046 A 
HETATM    6  C   UNL     1      43.336 -14.279   5.001  1.00  0.00     0.052 A 
HETATM    7  C   UNL     1      39.797 -13.951   2.882  1.00  0.00     0.032 A 
HETATM    8  C   UNL     1      39.043 -12.779   2.833  1.00  0.00     0.002 A 
HETATM    9  C   UNL     1      39.468 -11.660   3.533  1.00  0.00     0.001 A 
HETATM   10  C   UNL     1      40.659 -11.715   4.258  1.00  0.00     0.015 A 
ENDROOT
BRANCH   5  11
HETATM   11  C   UNL     1      43.376 -11.943   5.677  1.00  0.00     0.252 C 
HETATM   12  N   UNL     1      43.015 -11.715   6.984  1.00  0.00    -0.355 N 
HETATM   13  H   UNL     1      42.328 -12.347   7.390  1.00  0.00     0.162 HD
HETATM   14  O   UNL     1      44.133 -11.184   5.080  1.00  0.00    -0.268 OA
BRANCH  12  15
HETATM   15  C   UNL     1      43.769 -10.889   7.937  1.00  0.00     0.161 C 
BRANCH  15  16
HETATM   16  C   UNL     1      43.239  -9.457   8.307  1.00  0.00     0.237 C 
BRANCH  16  17
HETATM   17  N   UNL     1      41.943  -9.123   7.565  1.00  0.00    -0.069 N 
HETATM   18  H   UNL     1      41.972  -9.798   6.779  1.00  0.00     0.279 HD
HETATM   19  C   UNL     1      40.673  -9.340   8.314  1.00  0.00     0.270 C 
HETATM   20  C   UNL     1      41.973  -7.789   6.882  1.00  0.00     0.270 C 
ENDBRANCH  16  17
BRANCH  16  21
HETATM   21  C   UNL     1      43.170  -9.195   9.805  1.00  0.00    -0.026 A 
HETATM   22  C   UNL     1      43.187 -10.288  10.694  1.00  0.00     0.009 A 
HETATM   23  C   UNL     1      43.157 -10.091  12.075  1.00  0.00     0.001 A 
HETATM   24  C   UNL     1      43.101  -8.802  12.594  1.00  0.00     0.000 A 
HETATM   25  C   UNL     1      43.079  -7.709  11.733  1.00  0.00     0.001 A 
HETATM   26  C   UNL     1      43.119  -7.901  10.349  1.00  0.00     0.009 A 
ENDBRANCH  16  21
ENDBRANCH  15  16
ENDBRANCH  12  15
ENDBRANCH   5  11
BRANCH   1  27
HETATM   27  C   UNL     1      43.356 -16.669   4.308  1.00  0.00     0.104 A 
HETATM   28  O   UNL     1      43.086 -17.452   3.219  1.00  0.00    -0.313 OA
HETATM   29  C   UNL     1      43.725 -18.643   3.408  1.00  0.00     0.050 A 
HETATM   30  C   UNL     1      43.569 -19.659   2.349  1.00  0.00     0.076 C 
HETATM   31  C   UNL     1      44.406 -18.630   4.605  1.00  0.00     0.035 A 
HETATM   32  C   UNL     1      44.163 -17.362   5.186  1.00  0.00     0.042 A 
ENDBRANCH   1  27
TORSDOF 6
ENDMDL
MODEL 10
REMARK VINA RESULT:      -7.5      1.741      3.077
REMARK  6 active torsions:
REMARK  status: ('A' for Active; 'I' for Inactive)
REMARK    1  A    between atoms: C_4  and  C_5 
REMARK    2  A    between atoms: C_9  and  C_10 
REMARK       I    between atoms: C_10  and  N_11 
REMARK    3  A    between atoms: N_11  and  C_12 
REMARK    4  A    between atoms: C_12  and  C_13 
REMARK    5  A    between atoms: C_13  and  N_14 
REMARK    6  A    between atoms: C_13  and  C_18 
ROOT
HETATM    1  C   UNL     1      43.345 -13.178   6.115  1.00  0.00     0.092 A 
HETATM    2  N   UNL     1      43.568 -14.254   6.900  1.00  0.00    -0.246 NA
HETATM    3  C   UNL     1      43.490 -15.485   6.370  1.00  0.00     0.069 A 
HETATM    4  C   UNL     1      43.194 -15.721   5.012  1.00  0.00     0.008 A 
HETATM    5  C   UNL     1      43.023 -14.567   4.208  1.00  0.00     0.046 A 
HETATM    6  C   UNL     1      43.075 -13.290   4.766  1.00  0.00     0.052 A 
HETATM    7  C   UNL     1      43.702 -16.566   7.214  1.00  0.00     0.032 A 
HETATM    8  C   UNL     1      43.610 -17.883   6.765  1.00  0.00     0.002 A 
HETATM    9  C   UNL     1      43.278 -18.135   5.442  1.00  0.00     0.001 A 
HETATM   10  C   UNL     1      43.062 -17.065   4.573  1.00  0.00     0.015 A 
ENDROOT
BRANCH   5  11
HETATM   11  C   UNL     1      42.775 -14.610   2.746  1.00  0.00     0.252 C 
HETATM   12  N   UNL     1      41.478 -14.802   2.330  1.00  0.00    -0.355 N 
HETATM   13  H   UNL     1      40.765 -14.859   3.055  1.00  0.00     0.162 HD
HETATM   14  O   UNL     1      43.709 -14.613   1.951  1.00  0.00    -0.268 OA
BRANCH  12  15
HETATM   15  C   UNL     1      40.987 -14.582   0.963  1.00  0.00     0.161 C 
BRANCH  15  16
HETATM   16  C   UNL     1      40.810 -13.113   0.433  1.00  0.00     0.237 C 
BRANCH  16  17
HETATM   17  N   UNL     1      39.787 -13.040  -0.702  1.00  0.00    -0.069 N 
HETATM   18  H   UNL     1      38.939 -12.719  -0.200  1.00  0.00     0.279 HD
HETATM   19  C   UNL     1      40.074 -12.066  -1.793  1.00  0.00     0.270 C 
HETATM   20  C   UNL     1      39.390 -14.383  -1.237  1.00  0.00     0.270 C 
ENDBRANCH  16  17
BRANCH  16  21
HETATM   21  C   UNL     1      40.577 -12.087   1.533  1.00  0.00    -0.026 A 
HETATM   22  C   UNL     1      41.626 -11.222   1.897  1.00  0.00     0.009 A 
HETATM   23  C   UNL     1      41.446 -10.246   2.879  1.00  0.00     0.001 A 
HETATM   24  C   UNL     1      40.218 -10.122   3.519  1.00  0.00     0.000 A 
HETATM   25  C   UNL     1      39.168 -10.970   3.177  1.00  0.00     0.001 A 
HETATM   26  C   UNL     1      39.342 -11.942   2.188  1.00  0.00     0.009 A 
ENDBRANCH  16  21
ENDBRANCH  15  16
ENDBRANCH  12  15
ENDBRANCH   5  11
BRANCH   1  27
HETATM   27  C   UNL     1      43.408 -11.894   6.799  1.00  0.00     0.104 A 
HETATM   28  O   UNL     1      44.241 -11.813   7.882  1.00  0.00    -0.313 OA
HETATM   29  C   UNL     1      44.151 -10.541   8.368  1.00  0.00     0.050 A 
HETATM   30  C   UNL     1      44.969 -10.221   9.554  1.00  0.00     0.076 C 
HETATM   31  C   UNL     1      43.273  -9.804   7.605  1.00  0.00     0.035 A 
HETATM   32  C   UNL     1      42.791 -10.676   6.600  1.00  0.00     0.042 A 
ENDBRANCH   1  27
TORSDOF 6
ENDMDL
