MODEL 1
REMARK VINA RESULT:      -6.7      0.000      0.000
REMARK  4 active torsions:
REMARK  status: ('A' for Active; 'I' for Inactive)
REMARK    1  A    between atoms: C_11  and  N_12 
REMARK    2  A    between atoms: N_12  and  C_13 
REMARK    3  A    between atoms: C_13  and  C_14 
REMARK    4  A    between atoms: C_15  and  C_16 
ROOT
HETATM    1  N   UNL     1      42.895 -12.679   3.576  1.00  0.00     0.092 N 
HETATM    2  H   UNL     1      42.400 -13.296   4.216  1.00  0.00     0.316 HD
ENDROOT
BRANCH   1   3
HETATM    3  C   UNL     1      43.099 -11.336   4.108  1.00  0.00     0.225 C 
HETATM    4  C   UNL     1      44.189 -11.321   5.189  1.00  0.00     0.073 C 
HETATM    5  C   UNL     1      43.791 -11.887   6.560  1.00  0.00     0.121 C 
HETATM    6  N   UNL     1      42.462 -11.296   6.991  1.00  0.00    -0.059 N 
HETATM    7  C   UNL     1      43.746 -13.416   6.623  1.00  0.00     0.046 C 
HETATM    8  C   UNL     1      44.814 -11.419   7.619  1.00  0.00     0.046 C 
HETATM    9  C   UNL     1      41.314 -11.199   6.012  1.00  0.00     0.121 C 
HETATM   10  H   UNL     1      42.656 -10.341   7.324  1.00  0.00     0.279 HD
HETATM   11  H   UNL     1      42.140 -11.796   7.832  1.00  0.00     0.279 HD
HETATM   12  C   UNL     1      40.554 -12.530   5.964  1.00  0.00     0.046 C 
HETATM   13  C   UNL     1      40.345 -10.146   6.592  1.00  0.00     0.046 C 
HETATM   14  C   UNL     1      41.814 -10.698   4.646  1.00  0.00     0.073 C 
ENDBRANCH   1   3
BRANCH   1  15
HETATM   15  C   UNL     1      42.105 -12.684   2.333  1.00  0.00     0.312 C 
BRANCH  15  16
HETATM   16  C   UNL     1      41.122 -13.800   2.444  1.00  0.00     0.014 A 
HETATM   17  C   UNL     1      41.300 -15.224   2.528  1.00  0.00     0.071 A 
HETATM   18  N   UNL     1      40.109 -15.837   2.618  1.00  0.00    -0.178 NA
HETATM   19  N   UNL     1      39.203 -14.859   2.608  1.00  0.00    -0.288 N 
HETATM   20  H   UNL     1      38.222 -15.112   2.686  1.00  0.00     0.188 HD
HETATM   21  C   UNL     1      39.750 -13.625   2.493  1.00  0.00     0.120 A 
BRANCH  17  22
HETATM   22  C   UNL     1      42.554 -16.104   2.579  1.00  0.00    -0.004 C 
HETATM   23  C   UNL     1      43.190 -15.998   3.979  1.00  0.00     0.021 C 
HETATM   24  C   UNL     1      42.198 -17.593   2.327  1.00  0.00     0.021 C 
HETATM   25  C   UNL     1      43.606 -15.727   1.519  1.00  0.00     0.021 C 
ENDBRANCH  17  22
ENDBRANCH  15  16
ENDBRANCH   1  15
TORSDOF 4
ENDMDL
MODEL 2
REMARK VINA RESULT:      -6.5      3.125      5.712
REMARK  4 active torsions:
REMARK  status: ('A' for Active; 'I' for Inactive)
REMARK    1  A    between atoms: C_11  and  N_12 
REMARK    2  A    between atoms: N_12  and  C_13 
REMARK    3  A    between atoms: C_13  and  C_14 
REMARK    4  A    between atoms: C_15  and  C_16 
ROOT
HETATM    1  N   UNL     1      41.945 -14.524   0.924  1.00  0.00     0.092 N 
HETATM    2  H   UNL     1      42.112 -13.644   0.443  1.00  0.00     0.316 HD
ENDROOT
BRANCH   1   3
HETATM    3  C   UNL     1      40.529 -14.820   1.116  1.00  0.00     0.225 C 
HETATM    4  C   UNL     1      39.788 -14.904  -0.226  1.00  0.00     0.073 C 
HETATM    5  C   UNL     1      39.493 -13.569  -0.923  1.00  0.00     0.121 C 
HETATM    6  N   UNL     1      38.893 -12.594   0.074  1.00  0.00    -0.059 N 
HETATM    7  C   UNL     1      40.702 -12.943  -1.626  1.00  0.00     0.046 C 
HETATM    8  C   UNL     1      38.404 -13.785  -1.997  1.00  0.00     0.046 C 
HETATM    9  C   UNL     1      39.490 -12.446   1.455  1.00  0.00     0.121 C 
HETATM   10  H   UNL     1      37.907 -12.867   0.198  1.00  0.00     0.279 HD
HETATM   11  H   UNL     1      38.843 -11.665  -0.368  1.00  0.00     0.279 HD
HETATM   12  C   UNL     1      40.669 -11.468   1.413  1.00  0.00     0.046 C 
HETATM   13  C   UNL     1      38.394 -11.796   2.327  1.00  0.00     0.046 C 
HETATM   14  C   UNL     1      39.825 -13.827   2.045  1.00  0.00     0.073 C 
ENDBRANCH   1   3
BRANCH   1  15
HETATM   15  C   UNL     1      42.681 -14.424   2.196  1.00  0.00     0.312 C 
BRANCH  15  16
HETATM   16  C   UNL     1      42.966 -15.816   2.647  1.00  0.00     0.014 A 
HETATM   17  C   UNL     1      42.848 -16.445   3.935  1.00  0.00     0.071 A 
HETATM   18  N   UNL     1      43.221 -17.732   3.859  1.00  0.00    -0.178 NA
HETATM   19  N   UNL     1      43.550 -17.934   2.583  1.00  0.00    -0.288 N 
HETATM   20  H   UNL     1      43.849 -18.865   2.305  1.00  0.00     0.188 HD
HETATM   21  C   UNL     1      43.430 -16.823   1.818  1.00  0.00     0.120 A 
BRANCH  17  22
HETATM   22  C   UNL     1      42.349 -15.931   5.290  1.00  0.00    -0.004 C 
HETATM   23  C   UNL     1      40.815 -15.791   5.243  1.00  0.00     0.021 C 
HETATM   24  C   UNL     1      42.704 -16.927   6.426  1.00  0.00     0.021 C 
HETATM   25  C   UNL     1      42.966 -14.579   5.694  1.00  0.00     0.021 C 
ENDBRANCH  17  22
ENDBRANCH  15  16
ENDBRANCH   1  15
TORSDOF 4
ENDMDL
MODEL 3
REMARK VINA RESULT:      -6.5      1.511      5.685
REMARK  4 active torsions:
REMARK  status: ('A' for Active; 'I' for Inactive)
REMARK    1  A    between atoms: C_11  and  N_12 
REMARK    2  A    between atoms: N_12  and  C_13 
REMARK    3  A    between atoms: C_13  and  C_14 
REMARK    4  A    between atoms: C_15  and  C_16 
ROOT
HETATM    1  N   UNL     1      42.705 -12.625   2.782  1.00  0.00     0.092 N 
HETATM    2  H   UNL     1      41.838 -12.361   3.243  1.00  0.00     0.316 HD
ENDROOT
BRANCH   1   3
HETATM    3  C   UNL     1      42.919 -14.067   2.734  1.00  0.00     0.225 C 
HETATM    4  C   UNL     1      41.999 -14.737   1.703  1.00  0.00     0.073 C 
HETATM    5  C   UNL     1      40.527 -14.891   2.108  1.00  0.00     0.121 C 
HETATM    6  N   UNL     1      40.441 -15.472   3.507  1.00  0.00    -0.059 N 
HETATM    7  C   UNL     1      39.705 -13.602   2.010  1.00  0.00     0.046 C 
HETATM    8  C   UNL     1      39.852 -15.931   1.186  1.00  0.00     0.046 C 
HETATM    9  C   UNL     1      41.328 -14.945   4.612  1.00  0.00     0.121 C 
HETATM   10  H   UNL     1      40.632 -16.481   3.422  1.00  0.00     0.279 HD
HETATM   11  H   UNL     1      39.460 -15.428   3.819  1.00  0.00     0.279 HD
HETATM   12  C   UNL     1      40.697 -13.695   5.238  1.00  0.00     0.046 C 
HETATM   13  C   UNL     1      41.347 -16.036   5.704  1.00  0.00     0.046 C 
HETATM   14  C   UNL     1      42.764 -14.747   4.098  1.00  0.00     0.073 C 
ENDBRANCH   1   3
BRANCH   1  15
HETATM   15  C   UNL     1      43.771 -11.917   3.511  1.00  0.00     0.312 C 
BRANCH  15  16
HETATM   16  C   UNL     1      43.104 -11.026   4.504  1.00  0.00     0.014 A 
HETATM   17  C   UNL     1      43.269 -10.891   5.926  1.00  0.00     0.071 A 
HETATM   18  N   UNL     1      42.444  -9.944   6.401  1.00  0.00    -0.178 NA
HETATM   19  N   UNL     1      41.787  -9.478   5.338  1.00  0.00    -0.288 N 
HETATM   20  H   UNL     1      41.114  -8.729   5.480  1.00  0.00     0.188 HD
HETATM   21  C   UNL     1      42.131 -10.096   4.184  1.00  0.00     0.120 A 
BRANCH  17  22
HETATM   22  C   UNL     1      44.211 -11.573   6.923  1.00  0.00    -0.004 C 
HETATM   23  C   UNL     1      45.668 -11.349   6.476  1.00  0.00     0.021 C 
HETATM   24  C   UNL     1      44.047 -10.970   8.344  1.00  0.00     0.021 C 
HETATM   25  C   UNL     1      43.955 -13.085   7.066  1.00  0.00     0.021 C 
ENDBRANCH  17  22
ENDBRANCH  15  16
ENDBRANCH   1  15
TORSDOF 4
ENDMDL
MODEL 4
REMARK VINA RESULT:      -6.5      1.973      5.456
REMARK  4 active torsions:
REMARK  status: ('A' for Active; 'I' for Inactive)
REMARK    1  A    between atoms: C_11  and  N_12 
REMARK    2  A    between atoms: N_12  and  C_13 
REMARK    3  A    between atoms: C_13  and  C_14 
REMARK    4  A    between atoms: C_15  and  C_16 
ROOT
HETATM    1  N   UNL     1      40.547 -13.237   3.706  1.00  0.00     0.092 N 
HETATM    2  H   UNL     1      40.002 -12.434   3.404  1.00  0.00     0.316 HD
ENDROOT
BRANCH   1   3
HETATM    3  C   UNL     1      40.151 -14.483   3.060  1.00  0.00     0.225 C 
HETATM    4  C   UNL     1      41.312 -15.487   3.017  1.00  0.00     0.073 C 
HETATM    5  C   UNL     1      42.410 -15.209   1.981  1.00  0.00     0.121 C 
HETATM    6  N   UNL     1      41.778 -14.912   0.634  1.00  0.00    -0.059 N 
HETATM    7  C   UNL     1      43.384 -14.094   2.376  1.00  0.00     0.046 C 
HETATM    8  C   UNL     1      43.248 -16.490   1.771  1.00  0.00     0.046 C 
HETATM    9  C   UNL     1      40.591 -13.981   0.533  1.00  0.00     0.121 C 
HETATM   10  H   UNL     1      41.487 -15.817   0.236  1.00  0.00     0.279 HD
HETATM   11  H   UNL     1      42.514 -14.582  -0.007  1.00  0.00     0.279 HD
HETATM   12  C   UNL     1      41.070 -12.526   0.477  1.00  0.00     0.046 C 
HETATM   13  C   UNL     1      39.920 -14.288  -0.824  1.00  0.00     0.046 C 
HETATM   14  C   UNL     1      39.579 -14.279   1.653  1.00  0.00     0.073 C 
ENDBRANCH   1   3
BRANCH   1  15
HETATM   15  C   UNL     1      40.398 -13.286   5.170  1.00  0.00     0.312 C 
BRANCH  15  16
HETATM   16  C   UNL     1      41.746 -13.032   5.756  1.00  0.00     0.014 A 
HETATM   17  C   UNL     1      42.681 -13.905   6.413  1.00  0.00     0.071 A 
HETATM   18  N   UNL     1      43.780 -13.223   6.773  1.00  0.00    -0.178 NA
HETATM   19  N   UNL     1      43.575 -11.972   6.358  1.00  0.00    -0.288 N 
HETATM   20  H   UNL     1      44.308 -11.286   6.520  1.00  0.00     0.188 HD
HETATM   21  C   UNL     1      42.374 -11.799   5.757  1.00  0.00     0.120 A 
BRANCH  17  22
HETATM   22  C   UNL     1      42.654 -15.409   6.707  1.00  0.00    -0.004 C 
HETATM   23  C   UNL     1      43.580 -16.136   5.713  1.00  0.00     0.021 C 
HETATM   24  C   UNL     1      43.167 -15.703   8.142  1.00  0.00     0.021 C 
HETATM   25  C   UNL     1      41.243 -16.021   6.620  1.00  0.00     0.021 C 
ENDBRANCH  17  22
ENDBRANCH  15  16
ENDBRANCH   1  15
TORSDOF 4
ENDMDL
MODEL 5
REMARK VINA RESULT:      -6.5      2.792      5.514
REMARK  4 active torsions:
REMARK  status: ('A' for Active; 'I' for Inactive)
REMARK    1  A    between atoms: C_11  and  N_12 
REMARK    2  A    between atoms: N_12  and  C_13 
REMARK    3  A    between atoms: C_13  and  C_14 
REMARK    4  A    between atoms: C_15  and  C_16 
ROOT
HETATM    1  N   UNL     1      40.739 -14.380   2.985  1.00  0.00     0.092 N 
HETATM    2  H   UNL     1      41.541 -14.305   2.363  1.00  0.00     0.316 HD
ENDROOT
BRANCH   1   3
HETATM    3  C   UNL     1      40.464 -15.746   3.414  1.00  0.00     0.225 C 
HETATM    4  C   UNL     1      40.842 -15.958   4.887  1.00  0.00     0.073 C 
HETATM    5  C   UNL     1      42.341 -16.084   5.190  1.00  0.00     0.121 C 
HETATM    6  N   UNL     1      42.978 -17.066   4.224  1.00  0.00    -0.059 N 
HETATM    7  C   UNL     1      43.101 -14.754   5.183  1.00  0.00     0.046 C 
HETATM    8  C   UNL     1      42.526 -16.705   6.592  1.00  0.00     0.046 C 
HETATM    9  C   UNL     1      42.654 -17.007   2.748  1.00  0.00     0.121 C 
HETATM   10  H   UNL     1      42.726 -18.010   4.551  1.00  0.00     0.279 HD
HETATM   11  H   UNL     1      44.000 -17.024   4.342  1.00  0.00     0.279 HD
HETATM   12  C   UNL     1      43.540 -15.963   2.059  1.00  0.00     0.046 C 
HETATM   13  C   UNL     1      43.045 -18.384   2.169  1.00  0.00     0.046 C 
HETATM   14  C   UNL     1      41.144 -16.803   2.538  1.00  0.00     0.073 C 
ENDBRANCH   1   3
BRANCH   1  15
HETATM   15  C   UNL     1      39.614 -13.778   2.250  1.00  0.00     0.312 C 
BRANCH  15  16
HETATM   16  C   UNL     1      40.112 -13.444   0.884  1.00  0.00     0.014 A 
HETATM   17  C   UNL     1      40.680 -12.238   0.344  1.00  0.00     0.071 A 
HETATM   18  N   UNL     1      40.988 -12.409  -0.952  1.00  0.00    -0.178 NA
HETATM   19  N   UNL     1      40.650 -13.668  -1.235  1.00  0.00    -0.288 N 
HETATM   20  H   UNL     1      40.820 -14.011  -2.177  1.00  0.00     0.188 HD
HETATM   21  C   UNL     1      40.111 -14.326  -0.182  1.00  0.00     0.120 A 
BRANCH  17  22
HETATM   22  C   UNL     1      41.019 -10.885   0.978  1.00  0.00    -0.004 C 
HETATM   23  C   UNL     1      41.578  -9.943  -0.106  1.00  0.00     0.021 C 
HETATM   24  C   UNL     1      39.753 -10.222   1.582  1.00  0.00     0.021 C 
HETATM   25  C   UNL     1      42.040 -10.989   2.127  1.00  0.00     0.021 C 
ENDBRANCH  17  22
ENDBRANCH  15  16
ENDBRANCH   1  15
TORSDOF 4
ENDMDL
MODEL 6
REMARK VINA RESULT:      -6.5      3.070      5.759
REMARK  4 active torsions:
REMARK  status: ('A' for Active; 'I' for Inactive)
REMARK    1  A    between atoms: C_11  and  N_12 
REMARK    2  A    between atoms: N_12  and  C_13 
REMARK    3  A    between atoms: C_13  and  C_14 
REMARK    4  A    between atoms: C_15  and  C_16 
ROOT
HETATM    1  N   UNL     1      40.593 -14.400   2.435  1.00  0.00     0.092 N 
HETATM    2  H   UNL     1      41.556 -14.084   2.520  1.00  0.00     0.316 HD
ENDROOT
BRANCH   1   3
HETATM    3  C   UNL     1      40.366 -15.726   2.998  1.00  0.00     0.225 C 
HETATM    4  C   UNL     1      40.670 -15.756   4.503  1.00  0.00     0.073 C 
HETATM    5  C   UNL     1      42.154 -15.758   4.895  1.00  0.00     0.121 C 
HETATM    6  N   UNL     1      42.896 -16.799   4.077  1.00  0.00    -0.059 N 
HETATM    7  C   UNL     1      42.840 -14.394   4.780  1.00  0.00     0.046 C 
HETATM    8  C   UNL     1      42.291 -16.213   6.365  1.00  0.00     0.046 C 
HETATM    9  C   UNL     1      42.656 -16.919   2.590  1.00  0.00     0.121 C 
HETATM   10  H   UNL     1      42.677 -17.715   4.494  1.00  0.00     0.279 HD
HETATM   11  H   UNL     1      43.907 -16.683   4.242  1.00  0.00     0.279 HD
HETATM   12  C   UNL     1      43.523 -15.903   1.836  1.00  0.00     0.046 C 
HETATM   13  C   UNL     1      43.153 -18.324   2.188  1.00  0.00     0.046 C 
HETATM   14  C   UNL     1      41.151 -16.829   2.281  1.00  0.00     0.073 C 
ENDBRANCH   1   3
BRANCH   1  15
HETATM   15  C   UNL     1      40.282 -14.333   0.997  1.00  0.00     0.312 C 
BRANCH  15  16
HETATM   16  C   UNL     1      40.626 -12.956   0.539  1.00  0.00     0.014 A 
HETATM   17  C   UNL     1      40.357 -12.264  -0.693  1.00  0.00     0.071 A 
HETATM   18  N   UNL     1      40.864 -11.023  -0.650  1.00  0.00    -0.178 NA
HETATM   19  N   UNL     1      41.423 -10.907   0.556  1.00  0.00    -0.288 N 
HETATM   20  H   UNL     1      41.856 -10.022   0.802  1.00  0.00     0.188 HD
HETATM   21  C   UNL     1      41.322 -12.034   1.301  1.00  0.00     0.120 A 
BRANCH  17  22
HETATM   22  C   UNL     1      39.587 -12.671  -1.955  1.00  0.00    -0.004 C 
HETATM   23  C   UNL     1      39.659 -11.524  -2.982  1.00  0.00     0.021 C 
HETATM   24  C   UNL     1      40.212 -13.934  -2.603  1.00  0.00     0.021 C 
HETATM   25  C   UNL     1      38.110 -13.012  -1.684  1.00  0.00     0.021 C 
ENDBRANCH  17  22
ENDBRANCH  15  16
ENDBRANCH   1  15
TORSDOF 4
ENDMDL
MODEL 7
REMARK VINA RESULT:      -6.4     16.131     18.266
REMARK  4 active torsions:
REMARK  status: ('A' for Active; 'I' for Inactive)
REMARK    1  A    between atoms: C_11  and  N_12 
REMARK    2  A    between atoms: N_12  and  C_13 
REMARK    3  A    between atoms: C_13  and  C_14 
REMARK    4  A    between atoms: C_15  and  C_16 
ROOT
HETATM    1  N   UNL     1      46.022 -28.145  -0.022  1.00  0.00     0.092 N 
HETATM    2  H   UNL     1      45.545 -29.040   0.055  1.00  0.00     0.316 HD
ENDROOT
BRANCH   1   3
HETATM    3  C   UNL     1      46.779 -27.997  -1.260  1.00  0.00     0.225 C 
HETATM    4  C   UNL     1      45.859 -28.041  -2.488  1.00  0.00     0.073 C 
HETATM    5  C   UNL     1      45.328 -29.424  -2.888  1.00  0.00     0.121 C 
HETATM    6  N   UNL     1      46.471 -30.421  -2.916  1.00  0.00    -0.059 N 
HETATM    7  C   UNL     1      44.185 -29.941  -2.009  1.00  0.00     0.046 C 
HETATM    8  C   UNL     1      44.795 -29.365  -4.337  1.00  0.00     0.046 C 
HETATM    9  C   UNL     1      47.486 -30.455  -1.796  1.00  0.00     0.121 C 
HETATM   10  H   UNL     1      46.991 -30.253  -3.790  1.00  0.00     0.279 HD
HETATM   11  H   UNL     1      46.078 -31.366  -3.037  1.00  0.00     0.279 HD
HETATM   12  C   UNL     1      46.954 -31.302  -0.634  1.00  0.00     0.046 C 
HETATM   13  C   UNL     1      48.722 -31.188  -2.360  1.00  0.00     0.046 C 
HETATM   14  C   UNL     1      47.904 -29.026  -1.407  1.00  0.00     0.073 C 
ENDBRANCH   1   3
BRANCH   1  15
HETATM   15  C   UNL     1      46.871 -28.048   1.178  1.00  0.00     0.312 C 
BRANCH  15  16
HETATM   16  C   UNL     1      46.340 -29.026   2.170  1.00  0.00     0.014 A 
HETATM   17  C   UNL     1      47.005 -29.908   3.091  1.00  0.00     0.071 A 
HETATM   18  N   UNL     1      46.103 -30.610   3.796  1.00  0.00    -0.178 NA
HETATM   19  N   UNL     1      44.912 -30.194   3.365  1.00  0.00    -0.288 N 
HETATM   20  H   UNL     1      44.080 -30.595   3.790  1.00  0.00     0.188 HD
HETATM   21  C   UNL     1      44.993 -29.261   2.387  1.00  0.00     0.120 A 
BRANCH  17  22
HETATM   22  C   UNL     1      48.486 -30.129   3.417  1.00  0.00    -0.004 C 
HETATM   23  C   UNL     1      49.109 -28.795   3.872  1.00  0.00     0.021 C 
HETATM   24  C   UNL     1      48.653 -31.153   4.572  1.00  0.00     0.021 C 
HETATM   25  C   UNL     1      49.295 -30.684   2.230  1.00  0.00     0.021 C 
ENDBRANCH  17  22
ENDBRANCH  15  16
ENDBRANCH   1  15
TORSDOF 4
ENDMDL
MODEL 8
REMARK VINA RESULT:      -6.4      2.801      5.849
REMARK  4 active torsions:
REMARK  status: ('A' for Active; 'I' for Inactive)
REMARK    1  A    between atoms: C_11  and  N_12 
REMARK    2  A    between atoms: N_12  and  C_13 
REMARK    3  A    between atoms: C_13  and  C_14 
REMARK    4  A    between atoms: C_15  and  C_16 
ROOT
HETATM    1  N   UNL     1      41.810 -13.861   0.847  1.00  0.00     0.092 N 
HETATM    2  H   UNL     1      41.943 -12.896   1.140  1.00  0.00     0.316 HD
ENDROOT
BRANCH   1   3
HETATM    3  C   UNL     1      40.441 -14.335   1.021  1.00  0.00     0.225 C 
HETATM    4  C   UNL     1      39.826 -14.773  -0.317  1.00  0.00     0.073 C 
HETATM    5  C   UNL     1      39.397 -13.646  -1.266  1.00  0.00     0.121 C 
HETATM    6  N   UNL     1      38.587 -12.615  -0.503  1.00  0.00    -0.059 N 
HETATM    7  C   UNL     1      40.553 -12.976  -2.014  1.00  0.00     0.046 C 
HETATM    8  C   UNL     1      38.437 -14.218  -2.333  1.00  0.00     0.046 C 
HETATM    9  C   UNL     1      39.047 -12.130   0.853  1.00  0.00     0.121 C 
HETATM   10  H   UNL     1      37.644 -13.010  -0.378  1.00  0.00     0.279 HD
HETATM   11  H   UNL     1      38.438 -11.799  -1.114  1.00  0.00     0.279 HD
HETATM   12  C   UNL     1      40.073 -11.003   0.686  1.00  0.00     0.046 C 
HETATM   13  C   UNL     1      37.805 -11.513   1.532  1.00  0.00     0.046 C 
HETATM   14  C   UNL     1      39.531 -13.314   1.710  1.00  0.00     0.073 C 
ENDBRANCH   1   3
BRANCH   1  15
HETATM   15  C   UNL     1      42.785 -14.647   1.622  1.00  0.00     0.312 C 
BRANCH  15  16
HETATM   16  C   UNL     1      42.889 -14.011   2.967  1.00  0.00     0.014 A 
HETATM   17  C   UNL     1      42.600 -14.510   4.284  1.00  0.00     0.071 A 
HETATM   18  N   UNL     1      42.852 -13.566   5.205  1.00  0.00    -0.178 NA
HETATM   19  N   UNL     1      43.296 -12.511   4.521  1.00  0.00    -0.288 N 
HETATM   20  H   UNL     1      43.564 -11.680   5.041  1.00  0.00     0.188 HD
HETATM   21  C   UNL     1      43.326 -12.715   3.183  1.00  0.00     0.120 A 
BRANCH  17  22
HETATM   22  C   UNL     1      42.128 -15.879   4.785  1.00  0.00    -0.004 C 
HETATM   23  C   UNL     1      40.727 -16.171   4.215  1.00  0.00     0.021 C 
HETATM   24  C   UNL     1      43.083 -17.005   4.307  1.00  0.00     0.021 C 
HETATM   25  C   UNL     1      42.076 -15.981   6.321  1.00  0.00     0.021 C 
ENDBRANCH  17  22
ENDBRANCH  15  16
ENDBRANCH   1  15
TORSDOF 4
ENDMDL
MODEL 9
REMARK VINA RESULT:      -6.4      2.295      5.100
REMARK  4 active torsions:
REMARK  status: ('A' for Active; 'I' for Inactive)
REMARK    1  A    between atoms: C_11  and  N_12 
REMARK    2  A    between atoms: N_12  and  C_13 
REMARK    3  A    between atoms: C_13  and  C_14 
REMARK    4  A    between atoms: C_15  and  C_16 
ROOT
HETATM    1  N   UNL     1      41.048 -14.043   5.103  1.00  0.00     0.092 N 
HETATM    2  H   UNL     1      42.005 -13.862   4.808  1.00  0.00     0.316 HD
ENDROOT
BRANCH   1   3
HETATM    3  C   UNL     1      40.704 -15.461   5.112  1.00  0.00     0.225 C 
HETATM    4  C   UNL     1      41.435 -16.208   6.237  1.00  0.00     0.073 C 
HETATM    5  C   UNL     1      42.925 -16.493   6.004  1.00  0.00     0.121 C 
HETATM    6  N   UNL     1      43.123 -17.080   4.619  1.00  0.00    -0.059 N 
HETATM    7  C   UNL     1      43.839 -15.281   6.210  1.00  0.00     0.046 C 
HETATM    8  C   UNL     1      43.393 -17.587   6.989  1.00  0.00     0.046 C 
HETATM    9  C   UNL     1      42.421 -16.478   3.424  1.00  0.00     0.121 C 
HETATM   10  H   UNL     1      42.835 -18.068   4.672  1.00  0.00     0.279 HD
HETATM   11  H   UNL     1      44.134 -17.123   4.424  1.00  0.00     0.279 HD
HETATM   12  C   UNL     1      43.228 -15.289   2.888  1.00  0.00     0.046 C 
HETATM   13  C   UNL     1      42.434 -17.564   2.327  1.00  0.00     0.046 C 
HETATM   14  C   UNL     1      40.957 -16.153   3.769  1.00  0.00     0.073 C 
ENDBRANCH   1   3
BRANCH   1  15
HETATM   15  C   UNL     1      40.200 -13.259   4.190  1.00  0.00     0.312 C 
BRANCH  15  16
HETATM   16  C   UNL     1      41.098 -12.328   3.449  1.00  0.00     0.014 A 
HETATM   17  C   UNL     1      41.211 -12.021   2.048  1.00  0.00     0.071 A 
HETATM   18  N   UNL     1      42.172 -11.106   1.848  1.00  0.00    -0.178 NA
HETATM   19  N   UNL     1      42.651 -10.821   3.060  1.00  0.00    -0.288 N 
HETATM   20  H   UNL     1      43.388 -10.125   3.134  1.00  0.00     0.188 HD
HETATM   21  C   UNL     1      42.056 -11.529   4.049  1.00  0.00     0.120 A 
BRANCH  17  22
HETATM   22  C   UNL     1      40.426 -12.503   0.823  1.00  0.00    -0.004 C 
HETATM   23  C   UNL     1      38.968 -12.016   0.934  1.00  0.00     0.021 C 
HETATM   24  C   UNL     1      41.027 -11.921  -0.485  1.00  0.00     0.021 C 
HETATM   25  C   UNL     1      40.434 -14.034   0.657  1.00  0.00     0.021 C 
ENDBRANCH  17  22
ENDBRANCH  15  16
ENDBRANCH   1  15
TORSDOF 4
ENDMDL
MODEL 10
REMARK VINA RESULT:      -6.4      6.093      9.906
REMARK  4 active torsions:
REMARK  status: ('A' for Active; 'I' for Inactive)
REMARK    1  A    between atoms: C_11  and  N_12 
REMARK    2  A    between atoms: N_12  and  C_13 
REMARK    3  A    between atoms: C_13  and  C_14 
REMARK    4  A    between atoms: C_15  and  C_16 
ROOT
HETATM    1  N   UNL     1      42.950 -10.409  11.226  1.00  0.00     0.092 N 
HETATM    2  H   UNL     1      43.316 -11.343  11.057  1.00  0.00     0.316 HD
ENDROOT
BRANCH   1   3
HETATM    3  C   UNL     1      43.932  -9.354  11.003  1.00  0.00     0.225 C 
HETATM    4  C   UNL     1      43.279  -8.097  10.410  1.00  0.00     0.073 C 
HETATM    5  C   UNL     1      42.902  -8.167   8.923  1.00  0.00     0.121 C 
HETATM    6  N   UNL     1      44.072  -8.712   8.125  1.00  0.00    -0.059 N 
HETATM    7  C   UNL     1      41.631  -8.970   8.631  1.00  0.00     0.046 C 
HETATM    8  C   UNL     1      42.668  -6.736   8.390  1.00  0.00     0.046 C 
HETATM    9  C   UNL     1      44.842  -9.915   8.619  1.00  0.00     0.121 C 
HETATM   10  H   UNL     1      44.748  -7.941   8.025  1.00  0.00     0.279 HD
HETATM   11  H   UNL     1      43.754  -8.893   7.162  1.00  0.00     0.279 HD
HETATM   12  C   UNL     1      44.128 -11.204   8.195  1.00  0.00     0.046 C 
HETATM   13  C   UNL     1      46.199  -9.887   7.881  1.00  0.00     0.046 C 
HETATM   14  C   UNL     1      45.109  -9.799  10.130  1.00  0.00     0.073 C 
ENDBRANCH   1   3
BRANCH   1  15
HETATM   15  C   UNL     1      42.442 -10.429  12.608  1.00  0.00     0.312 C 
BRANCH  15  16
HETATM   16  C   UNL     1      41.164  -9.661  12.616  1.00  0.00     0.014 A 
HETATM   17  C   UNL     1      40.763  -8.481  13.334  1.00  0.00     0.071 A 
HETATM   18  N   UNL     1      39.503  -8.148  13.015  1.00  0.00    -0.178 NA
HETATM   19  N   UNL     1      39.109  -9.057  12.122  1.00  0.00    -0.288 N 
HETATM   20  H   UNL     1      38.174  -8.974  11.733  1.00  0.00     0.188 HD
HETATM   21  C   UNL     1      40.054  -9.990  11.858  1.00  0.00     0.120 A 
BRANCH  17  22
HETATM   22  C   UNL     1      41.512  -7.566  14.310  1.00  0.00    -0.004 C 
HETATM   23  C   UNL     1      40.839  -6.180  14.319  1.00  0.00     0.021 C 
HETATM   24  C   UNL     1      41.459  -8.133  15.754  1.00  0.00     0.021 C 
HETATM   25  C   UNL     1      43.004  -7.399  13.967  1.00  0.00     0.021 C 
ENDBRANCH  17  22
ENDBRANCH  15  16
ENDBRANCH   1  15
TORSDOF 4
ENDMDL
