MODEL 1
REMARK VINA RESULT:      -8.6      0.000      0.000
REMARK  9 active torsions:
REMARK  status: ('A' for Active; 'I' for Inactive)
REMARK    1  A    between atoms: C_2  and  N_3 
REMARK    2  A    between atoms: C_4  and  S_5 
REMARK    3  A    between atoms: S_5  and  C_6 
REMARK    4  A    between atoms: C_6  and  C_7 
REMARK       I    between atoms: C_7  and  N_8 
REMARK    5  A    between atoms: N_8  and  C_9 
REMARK    6  A    between atoms: C_11  and  O_12 
REMARK    7  A    between atoms: C_19  and  C_20 
REMARK    8  A    between atoms: C_23  and  S_24 
REMARK    9  A    between atoms: S_24  and  N_25 
ROOT
HETATM    1  N   UNL     1      42.225 -12.659   4.457  1.00  0.00    -0.308 N 
HETATM    2  C   UNL     1      42.237 -12.580   3.089  1.00  0.00     0.192 A 
HETATM    3  N   UNL     1      42.920 -11.535   2.702  1.00  0.00    -0.122 NA
HETATM    4  N   UNL     1      43.293 -10.854   3.825  1.00  0.00    -0.128 NA
HETATM    5  C   UNL     1      42.859 -11.508   4.891  1.00  0.00     0.164 A 
ENDROOT
BRANCH   5   6
HETATM    6  C   UNL     1      42.970 -10.980   6.253  1.00  0.00     0.012 A 
HETATM    7  C   UNL     1      42.055  -9.989   6.649  1.00  0.00     0.017 A 
HETATM    8  C   UNL     1      42.120  -9.407   7.915  1.00  0.00     0.026 A 
HETATM    9  C   UNL     1      43.104  -9.828   8.810  1.00  0.00     0.074 A 
HETATM   10  C   UNL     1      44.040 -10.794   8.431  1.00  0.00     0.026 A 
HETATM   11  C   UNL     1      43.975 -11.361   7.151  1.00  0.00     0.017 A 
BRANCH   9  12
HETATM   12  S   UNL     1      43.230  -9.065  10.400  1.00  0.00     0.243 S 
HETATM   13  O   UNL     1      44.541  -9.335  10.943  1.00  0.00    -0.206 OA
HETATM   14  O   UNL     1      42.717  -7.714  10.329  1.00  0.00    -0.206 OA
BRANCH  12  15
HETATM   15  N   UNL     1      42.100  -9.937  11.354  1.00  0.00    -0.203 NA
HETATM   16  C   UNL     1      40.671  -9.499  11.264  1.00  0.00     0.135 C 
HETATM   17  C   UNL     1      40.374  -8.228  12.088  1.00  0.00     0.250 C 
HETATM   18  N   UNL     1      40.868  -8.371  13.525  1.00  0.00    -0.073 N 
HETATM   19  H   UNL     1      40.308  -9.107  13.972  1.00  0.00     0.279 HD
HETATM   20  C   UNL     1      40.644  -7.106  14.308  1.00  0.00     0.269 C 
HETATM   21  C   UNL     1      42.331  -8.811  13.590  1.00  0.00     0.250 C 
HETATM   22  C   UNL     1      42.527 -10.104  12.782  1.00  0.00     0.135 C 
ENDBRANCH  12  15
ENDBRANCH   9  12
ENDBRANCH   5   6
BRANCH   1  23
HETATM   23  C   UNL     1      41.604 -13.692   5.258  1.00  0.00     0.128 C 
HETATM   24  C   UNL     1      42.619 -14.657   5.851  1.00  0.00     0.027 C 
ENDBRANCH   1  23
BRANCH   2  25
HETATM   25  S   UNL     1      41.438 -13.653   2.000  1.00  0.00    -0.081 SA
BRANCH  25  26
HETATM   26  C   UNL     1      42.711 -14.919   1.739  1.00  0.00     0.185 C 
BRANCH  26  27
HETATM   27  C   UNL     1      42.497 -16.254   2.441  1.00  0.00     0.231 C 
HETATM   28  N   UNL     1      43.645 -16.879   2.883  1.00  0.00    -0.326 N 
HETATM   29  H   UNL     1      44.516 -16.545   2.478  1.00  0.00     0.169 HD
HETATM   30  O   UNL     1      41.347 -16.654   2.621  1.00  0.00    -0.272 OA
BRANCH  28  31
HETATM   31  C   UNL     1      43.743 -18.082   3.613  1.00  0.00     0.037 A 
HETATM   32  C   UNL     1      43.874 -19.342   3.024  1.00  0.00     0.066 A 
HETATM   33  C   UNL     1      43.964 -20.476   3.831  1.00  0.00     0.067 A 
HETATM   34  C   UNL     1      43.925 -20.379   5.215  1.00  0.00     0.036 A 
HETATM   35  C   UNL     1      43.785 -19.128   5.809  1.00  0.00     0.005 A 
HETATM   36  C   UNL     1      43.692 -17.985   5.010  1.00  0.00     0.029 A 
BRANCH  33  37
HETATM   37  O   UNL     1      44.093 -21.722   3.287  1.00  0.00    -0.361 OA
HETATM   38  H   UNL     1      45.011 -21.829   2.985  1.00  0.00     0.217 HD
ENDBRANCH  33  37
ENDBRANCH  28  31
ENDBRANCH  26  27
ENDBRANCH  25  26
ENDBRANCH   2  25
TORSDOF 9
ENDMDL
MODEL 2
REMARK VINA RESULT:      -8.2      1.452      1.689
REMARK  9 active torsions:
REMARK  status: ('A' for Active; 'I' for Inactive)
REMARK    1  A    between atoms: C_2  and  N_3 
REMARK    2  A    between atoms: C_4  and  S_5 
REMARK    3  A    between atoms: S_5  and  C_6 
REMARK    4  A    between atoms: C_6  and  C_7 
REMARK       I    between atoms: C_7  and  N_8 
REMARK    5  A    between atoms: N_8  and  C_9 
REMARK    6  A    between atoms: C_11  and  O_12 
REMARK    7  A    between atoms: C_19  and  C_20 
REMARK    8  A    between atoms: C_23  and  S_24 
REMARK    9  A    between atoms: S_24  and  N_25 
ROOT
HETATM    1  N   UNL     1      41.143 -12.350   3.729  1.00  0.00    -0.308 N 
HETATM    2  C   UNL     1      41.128 -12.297   2.360  1.00  0.00     0.192 A 
HETATM    3  N   UNL     1      42.238 -11.771   1.914  1.00  0.00    -0.122 NA
HETATM    4  N   UNL     1      42.969 -11.383   3.000  1.00  0.00    -0.128 NA
HETATM    5  C   UNL     1      42.309 -11.704   4.101  1.00  0.00     0.164 A 
ENDROOT
BRANCH   5   6
HETATM    6  C   UNL     1      42.749 -11.308   5.442  1.00  0.00     0.012 A 
HETATM    7  C   UNL     1      42.326 -10.058   5.928  1.00  0.00     0.017 A 
HETATM    8  C   UNL     1      42.735  -9.590   7.177  1.00  0.00     0.026 A 
HETATM    9  C   UNL     1      43.568 -10.386   7.964  1.00  0.00     0.074 A 
HETATM   10  C   UNL     1      44.022 -11.620   7.492  1.00  0.00     0.026 A 
HETATM   11  C   UNL     1      43.618 -12.074   6.230  1.00  0.00     0.017 A 
BRANCH   9  12
HETATM   12  S   UNL     1      44.134  -9.786   9.528  1.00  0.00     0.243 S 
HETATM   13  O   UNL     1      45.202 -10.638   9.994  1.00  0.00    -0.206 OA
HETATM   14  O   UNL     1      44.301  -8.349   9.462  1.00  0.00    -0.206 OA
BRANCH  12  15
HETATM   15  N   UNL     1      42.792 -10.044  10.567  1.00  0.00    -0.203 NA
HETATM   16  C   UNL     1      41.551  -9.263  10.262  1.00  0.00     0.135 C 
HETATM   17  C   UNL     1      41.627  -7.796  10.739  1.00  0.00     0.250 C 
HETATM   18  N   UNL     1      42.047  -7.710  12.204  1.00  0.00    -0.073 N 
HETATM   19  H   UNL     1      41.294  -8.128  12.765  1.00  0.00     0.279 HD
HETATM   20  C   UNL     1      42.191  -6.280  12.648  1.00  0.00     0.269 C 
HETATM   21  C   UNL     1      43.319  -8.509  12.487  1.00  0.00     0.250 C 
HETATM   22  C   UNL     1      43.140  -9.965  12.023  1.00  0.00     0.135 C 
ENDBRANCH  12  15
ENDBRANCH   9  12
ENDBRANCH   5   6
BRANCH   1  23
HETATM   23  C   UNL     1      40.113 -12.896   4.585  1.00  0.00     0.128 C 
HETATM   24  C   UNL     1      40.576 -14.133   5.338  1.00  0.00     0.027 C 
ENDBRANCH   1  23
BRANCH   2  25
HETATM   25  S   UNL     1      39.830 -12.791   1.336  1.00  0.00    -0.081 SA
BRANCH  25  26
HETATM   26  C   UNL     1      40.478 -14.343   0.655  1.00  0.00     0.185 C 
BRANCH  26  27
HETATM   27  C   UNL     1      40.863 -15.420   1.662  1.00  0.00     0.231 C 
HETATM   28  N   UNL     1      42.207 -15.730   1.710  1.00  0.00    -0.326 N 
HETATM   29  H   UNL     1      42.761 -15.424   0.914  1.00  0.00     0.169 HD
HETATM   30  O   UNL     1      39.991 -15.892   2.391  1.00  0.00    -0.272 OA
BRANCH  28  31
HETATM   31  C   UNL     1      42.851 -16.634   2.581  1.00  0.00     0.037 A 
HETATM   32  C   UNL     1      43.065 -17.982   2.286  1.00  0.00     0.066 A 
HETATM   33  C   UNL     1      43.713 -18.798   3.212  1.00  0.00     0.067 A 
HETATM   34  C   UNL     1      44.150 -18.297   4.431  1.00  0.00     0.036 A 
HETATM   35  C   UNL     1      43.932 -16.956   4.736  1.00  0.00     0.005 A 
HETATM   36  C   UNL     1      43.283 -16.129   3.816  1.00  0.00     0.029 A 
BRANCH  33  37
HETATM   37  O   UNL     1      43.939 -20.120   2.954  1.00  0.00    -0.361 OA
HETATM   38  H   UNL     1      43.903 -20.253   1.992  1.00  0.00     0.217 HD
ENDBRANCH  33  37
ENDBRANCH  28  31
ENDBRANCH  26  27
ENDBRANCH  25  26
ENDBRANCH   2  25
TORSDOF 9
ENDMDL
MODEL 3
REMARK VINA RESULT:      -8.0      3.043      4.957
REMARK  9 active torsions:
REMARK  status: ('A' for Active; 'I' for Inactive)
REMARK    1  A    between atoms: C_2  and  N_3 
REMARK    2  A    between atoms: C_4  and  S_5 
REMARK    3  A    between atoms: S_5  and  C_6 
REMARK    4  A    between atoms: C_6  and  C_7 
REMARK       I    between atoms: C_7  and  N_8 
REMARK    5  A    between atoms: N_8  and  C_9 
REMARK    6  A    between atoms: C_11  and  O_12 
REMARK    7  A    between atoms: C_19  and  C_20 
REMARK    8  A    between atoms: C_23  and  S_24 
REMARK    9  A    between atoms: S_24  and  N_25 
ROOT
HETATM    1  N   UNL     1      42.969 -14.079   4.682  1.00  0.00    -0.308 N 
HETATM    2  C   UNL     1      42.824 -14.505   3.387  1.00  0.00     0.192 A 
HETATM    3  N   UNL     1      43.208 -13.571   2.557  1.00  0.00    -0.122 NA
HETATM    4  N   UNL     1      43.529 -12.472   3.302  1.00  0.00    -0.128 NA
HETATM    5  C   UNL     1      43.366 -12.757   4.584  1.00  0.00     0.164 A 
ENDROOT
BRANCH   5   6
HETATM    6  C   UNL     1      43.493 -11.757   5.647  1.00  0.00     0.012 A 
HETATM    7  C   UNL     1      44.724 -11.669   6.321  1.00  0.00     0.017 A 
HETATM    8  C   UNL     1      44.911 -10.771   7.373  1.00  0.00     0.026 A 
HETATM    9  C   UNL     1      43.860  -9.936   7.753  1.00  0.00     0.074 A 
HETATM   10  C   UNL     1      42.620 -10.023   7.115  1.00  0.00     0.026 A 
HETATM   11  C   UNL     1      42.437 -10.938   6.070  1.00  0.00     0.017 A 
BRANCH   9  12
HETATM   12  S   UNL     1      44.067  -8.828   9.115  1.00  0.00     0.243 S 
HETATM   13  O   UNL     1      44.940  -9.443  10.086  1.00  0.00    -0.206 OA
HETATM   14  O   UNL     1      44.328  -7.494   8.617  1.00  0.00    -0.206 OA
BRANCH  12  15
HETATM   15  N   UNL     1      42.501  -8.758   9.817  1.00  0.00    -0.203 NA
HETATM   16  C   UNL     1      41.989  -7.397  10.172  1.00  0.00     0.135 C 
HETATM   17  C   UNL     1      42.591  -6.847  11.483  1.00  0.00     0.250 C 
HETATM   18  N   UNL     1      42.458  -7.855  12.621  1.00  0.00    -0.073 N 
HETATM   19  H   UNL     1      41.456  -7.963  12.821  1.00  0.00     0.279 HD
HETATM   20  C   UNL     1      43.109  -7.348  13.879  1.00  0.00     0.269 C 
HETATM   21  C   UNL     1      42.995  -9.234  12.236  1.00  0.00     0.250 C 
HETATM   22  C   UNL     1      42.311  -9.723  10.948  1.00  0.00     0.135 C 
ENDBRANCH  12  15
ENDBRANCH   9  12
ENDBRANCH   5   6
BRANCH   1  23
HETATM   23  C   UNL     1      42.683 -14.839   5.880  1.00  0.00     0.128 C 
HETATM   24  C   UNL     1      41.260 -14.632   6.374  1.00  0.00     0.027 C 
ENDBRANCH   1  23
BRANCH   2  25
HETATM   25  S   UNL     1      42.181 -16.024   2.881  1.00  0.00    -0.081 SA
BRANCH  25  26
HETATM   26  C   UNL     1      40.410 -15.647   2.767  1.00  0.00     0.185 C 
BRANCH  26  27
HETATM   27  C   UNL     1      40.000 -14.611   1.729  1.00  0.00     0.231 C 
HETATM   28  N   UNL     1      40.379 -14.891   0.432  1.00  0.00    -0.326 N 
HETATM   29  H   UNL     1      41.105 -15.595   0.325  1.00  0.00     0.169 HD
HETATM   30  O   UNL     1      39.324 -13.645   2.087  1.00  0.00    -0.272 OA
BRANCH  28  31
HETATM   31  C   UNL     1      40.083 -14.148  -0.730  1.00  0.00     0.037 A 
HETATM   32  C   UNL     1      39.309 -14.632  -1.787  1.00  0.00     0.066 A 
HETATM   33  C   UNL     1      39.071 -13.821  -2.897  1.00  0.00     0.067 A 
HETATM   34  C   UNL     1      39.592 -12.536  -2.975  1.00  0.00     0.036 A 
HETATM   35  C   UNL     1      40.372 -12.051  -1.930  1.00  0.00     0.005 A 
HETATM   36  C   UNL     1      40.618 -12.855  -0.813  1.00  0.00     0.029 A 
BRANCH  33  37
HETATM   37  O   UNL     1      38.317 -14.263  -3.947  1.00  0.00    -0.361 OA
HETATM   38  H   UNL     1      37.384 -14.079  -3.751  1.00  0.00     0.217 HD
ENDBRANCH  33  37
ENDBRANCH  28  31
ENDBRANCH  26  27
ENDBRANCH  25  26
ENDBRANCH   2  25
TORSDOF 9
ENDMDL
MODEL 4
REMARK VINA RESULT:      -7.8      2.984      9.665
REMARK  9 active torsions:
REMARK  status: ('A' for Active; 'I' for Inactive)
REMARK    1  A    between atoms: C_2  and  N_3 
REMARK    2  A    between atoms: C_4  and  S_5 
REMARK    3  A    between atoms: S_5  and  C_6 
REMARK    4  A    between atoms: C_6  and  C_7 
REMARK       I    between atoms: C_7  and  N_8 
REMARK    5  A    between atoms: N_8  and  C_9 
REMARK    6  A    between atoms: C_11  and  O_12 
REMARK    7  A    between atoms: C_19  and  C_20 
REMARK    8  A    between atoms: C_23  and  S_24 
REMARK    9  A    between atoms: S_24  and  N_25 
ROOT
HETATM    1  N   UNL     1      40.073  -9.232   5.828  1.00  0.00    -0.308 N 
HETATM    2  C   UNL     1      40.478  -7.941   5.611  1.00  0.00     0.192 A 
HETATM    3  N   UNL     1      41.418  -7.908   4.704  1.00  0.00    -0.122 NA
HETATM    4  N   UNL     1      41.712  -9.200   4.375  1.00  0.00    -0.128 NA
HETATM    5  C   UNL     1      40.924 -10.010   5.064  1.00  0.00     0.164 A 
ENDROOT
BRANCH   5   6
HETATM    6  C   UNL     1      41.069 -11.468   5.050  1.00  0.00     0.012 A 
HETATM    7  C   UNL     1      42.013 -12.042   5.921  1.00  0.00     0.017 A 
HETATM    8  C   UNL     1      42.239 -13.418   5.939  1.00  0.00     0.026 A 
HETATM    9  C   UNL     1      41.504 -14.242   5.086  1.00  0.00     0.074 A 
HETATM   10  C   UNL     1      40.579 -13.693   4.195  1.00  0.00     0.026 A 
HETATM   11  C   UNL     1      40.370 -12.308   4.173  1.00  0.00     0.017 A 
BRANCH   9  12
HETATM   12  S   UNL     1      41.815 -15.982   5.063  1.00  0.00     0.243 S 
HETATM   13  O   UNL     1      41.943 -16.451   6.422  1.00  0.00    -0.206 OA
HETATM   14  O   UNL     1      40.906 -16.622   4.136  1.00  0.00    -0.206 OA
BRANCH  12  15
HETATM   15  N   UNL     1      43.368 -16.103   4.340  1.00  0.00    -0.203 NA
HETATM   16  C   UNL     1      43.402 -16.219   2.847  1.00  0.00     0.135 C 
HETATM   17  C   UNL     1      43.066 -17.638   2.342  1.00  0.00     0.250 C 
HETATM   18  N   UNL     1      43.915 -18.694   3.046  1.00  0.00    -0.073 N 
HETATM   19  H   UNL     1      44.891 -18.542   2.764  1.00  0.00     0.279 HD
HETATM   20  C   UNL     1      43.536 -20.081   2.606  1.00  0.00     0.269 C 
HETATM   21  C   UNL     1      43.857 -18.559   4.568  1.00  0.00     0.250 C 
HETATM   22  C   UNL     1      44.248 -17.131   4.985  1.00  0.00     0.135 C 
ENDBRANCH  12  15
ENDBRANCH   9  12
ENDBRANCH   5   6
BRANCH   1  23
HETATM   23  C   UNL     1      39.031  -9.672   6.730  1.00  0.00     0.128 C 
HETATM   24  C   UNL     1      39.528  -9.834   8.158  1.00  0.00     0.027 C 
ENDBRANCH   1  23
BRANCH   2  25
HETATM   25  S   UNL     1      39.895  -6.540   6.431  1.00  0.00    -0.081 SA
BRANCH  25  26
HETATM   26  C   UNL     1      41.441  -5.805   7.033  1.00  0.00     0.185 C 
BRANCH  26  27
HETATM   27  C   UNL     1      42.162  -6.554   8.147  1.00  0.00     0.231 C 
HETATM   28  N   UNL     1      42.784  -7.724   7.765  1.00  0.00    -0.326 N 
HETATM   29  H   UNL     1      42.491  -8.111   6.872  1.00  0.00     0.169 HD
HETATM   30  O   UNL     1      42.196  -6.056   9.273  1.00  0.00    -0.272 OA
BRANCH  28  31
HETATM   31  C   UNL     1      43.571  -8.580   8.564  1.00  0.00     0.037 A 
HETATM   32  C   UNL     1      43.045  -9.579   9.386  1.00  0.00     0.066 A 
HETATM   33  C   UNL     1      43.905 -10.378  10.140  1.00  0.00     0.067 A 
HETATM   34  C   UNL     1      45.281 -10.199  10.092  1.00  0.00     0.036 A 
HETATM   35  C   UNL     1      45.812  -9.200   9.281  1.00  0.00     0.005 A 
HETATM   36  C   UNL     1      44.960  -8.392   8.523  1.00  0.00     0.029 A 
BRANCH  33  37
HETATM   37  O   UNL     1      43.423 -11.364  10.953  1.00  0.00    -0.361 OA
HETATM   38  H   UNL     1      42.851 -11.943  10.423  1.00  0.00     0.217 HD
ENDBRANCH  33  37
ENDBRANCH  28  31
ENDBRANCH  26  27
ENDBRANCH  25  26
ENDBRANCH   2  25
TORSDOF 9
ENDMDL
MODEL 5
REMARK VINA RESULT:      -7.7      1.634      2.040
REMARK  9 active torsions:
REMARK  status: ('A' for Active; 'I' for Inactive)
REMARK    1  A    between atoms: C_2  and  N_3 
REMARK    2  A    between atoms: C_4  and  S_5 
REMARK    3  A    between atoms: S_5  and  C_6 
REMARK    4  A    between atoms: C_6  and  C_7 
REMARK       I    between atoms: C_7  and  N_8 
REMARK    5  A    between atoms: N_8  and  C_9 
REMARK    6  A    between atoms: C_11  and  O_12 
REMARK    7  A    between atoms: C_19  and  C_20 
REMARK    8  A    between atoms: C_23  and  S_24 
REMARK    9  A    between atoms: S_24  and  N_25 
ROOT
HETATM    1  N   UNL     1      40.773 -12.429   4.490  1.00  0.00    -0.308 N 
HETATM    2  C   UNL     1      40.220 -12.552   3.243  1.00  0.00     0.192 A 
HETATM    3  N   UNL     1      39.835 -11.383   2.800  1.00  0.00    -0.122 NA
HETATM    4  N   UNL     1      40.051 -10.479   3.801  1.00  0.00    -0.128 NA
HETATM    5  C   UNL     1      40.594 -11.100   4.835  1.00  0.00     0.164 A 
ENDROOT
BRANCH   5   6
HETATM    6  C   UNL     1      40.828 -10.450   6.127  1.00  0.00     0.012 A 
HETATM    7  C   UNL     1      42.159 -10.209   6.508  1.00  0.00     0.017 A 
HETATM    8  C   UNL     1      42.467  -9.631   7.741  1.00  0.00     0.026 A 
HETATM    9  C   UNL     1      41.431  -9.272   8.603  1.00  0.00     0.074 A 
HETATM   10  C   UNL     1      40.101  -9.524   8.257  1.00  0.00     0.026 A 
HETATM   11  C   UNL     1      39.804 -10.119   7.024  1.00  0.00     0.017 A 
BRANCH   9  12
HETATM   12  S   UNL     1      41.807  -8.584  10.188  1.00  0.00     0.243 S 
HETATM   13  O   UNL     1      42.705  -9.476  10.882  1.00  0.00    -0.206 OA
HETATM   14  O   UNL     1      42.118  -7.178  10.042  1.00  0.00    -0.206 OA
BRANCH  12  15
HETATM   15  N   UNL     1      40.303  -8.638  11.016  1.00  0.00    -0.203 NA
HETATM   16  C   UNL     1      39.892  -7.392  11.736  1.00  0.00     0.135 C 
HETATM   17  C   UNL     1      40.618  -7.204  13.085  1.00  0.00     0.250 C 
HETATM   18  N   UNL     1      40.516  -8.459  13.949  1.00  0.00    -0.073 N 
HETATM   19  H   UNL     1      39.527  -8.580  14.201  1.00  0.00     0.279 HD
HETATM   20  C   UNL     1      41.285  -8.302  15.233  1.00  0.00     0.269 C 
HETATM   21  C   UNL     1      40.948  -9.716  13.194  1.00  0.00     0.250 C 
HETATM   22  C   UNL     1      40.146  -9.847  11.889  1.00  0.00     0.135 C 
ENDBRANCH  12  15
ENDBRANCH   9  12
ENDBRANCH   5   6
BRANCH   1  23
HETATM   23  C   UNL     1      41.344 -13.489   5.292  1.00  0.00     0.128 C 
HETATM   24  C   UNL     1      40.320 -14.142   6.207  1.00  0.00     0.027 C 
ENDBRANCH   1  23
BRANCH   2  25
HETATM   25  S   UNL     1      39.995 -14.022   2.369  1.00  0.00    -0.081 SA
BRANCH  25  26
HETATM   26  C   UNL     1      41.531 -14.110   1.408  1.00  0.00     0.185 C 
BRANCH  26  27
HETATM   27  C   UNL     1      42.561 -15.136   1.864  1.00  0.00     0.231 C 
HETATM   28  N   UNL     1      42.047 -16.246   2.501  1.00  0.00    -0.326 N 
HETATM   29  H   UNL     1      41.093 -16.160   2.842  1.00  0.00     0.169 HD
HETATM   30  O   UNL     1      43.748 -14.949   1.592  1.00  0.00    -0.272 OA
BRANCH  28  31
HETATM   31  C   UNL     1      42.754 -17.375   2.969  1.00  0.00     0.037 A 
HETATM   32  C   UNL     1      42.966 -18.529   2.212  1.00  0.00     0.066 A 
HETATM   33  C   UNL     1      43.678 -19.595   2.761  1.00  0.00     0.067 A 
HETATM   34  C   UNL     1      44.183 -19.532   4.054  1.00  0.00     0.036 A 
HETATM   35  C   UNL     1      43.969 -18.389   4.817  1.00  0.00     0.005 A 
HETATM   36  C   UNL     1      43.255 -17.315   4.277  1.00  0.00     0.029 A 
BRANCH  33  37
HETATM   37  O   UNL     1      43.904 -20.737   2.048  1.00  0.00    -0.361 OA
HETATM   38  H   UNL     1      44.383 -20.500   1.237  1.00  0.00     0.217 HD
ENDBRANCH  33  37
ENDBRANCH  28  31
ENDBRANCH  26  27
ENDBRANCH  25  26
ENDBRANCH   2  25
TORSDOF 9
ENDMDL
MODEL 6
REMARK VINA RESULT:      -7.7      3.167     11.533
REMARK  9 active torsions:
REMARK  status: ('A' for Active; 'I' for Inactive)
REMARK    1  A    between atoms: C_2  and  N_3 
REMARK    2  A    between atoms: C_4  and  S_5 
REMARK    3  A    between atoms: S_5  and  C_6 
REMARK    4  A    between atoms: C_6  and  C_7 
REMARK       I    between atoms: C_7  and  N_8 
REMARK    5  A    between atoms: N_8  and  C_9 
REMARK    6  A    between atoms: C_11  and  O_12 
REMARK    7  A    between atoms: C_19  and  C_20 
REMARK    8  A    between atoms: C_23  and  S_24 
REMARK    9  A    between atoms: S_24  and  N_25 
ROOT
HETATM    1  N   UNL     1      43.366 -10.115   8.545  1.00  0.00    -0.308 N 
HETATM    2  C   UNL     1      44.095  -9.845   9.673  1.00  0.00     0.192 A 
HETATM    3  N   UNL     1      45.242 -10.469   9.632  1.00  0.00    -0.122 NA
HETATM    4  N   UNL     1      45.245 -11.240   8.504  1.00  0.00    -0.128 NA
HETATM    5  C   UNL     1      44.109 -11.055   7.852  1.00  0.00     0.164 A 
ENDROOT
BRANCH   5   6
HETATM    6  C   UNL     1      43.730 -11.833   6.670  1.00  0.00     0.012 A 
HETATM    7  C   UNL     1      43.372 -13.180   6.859  1.00  0.00     0.017 A 
HETATM    8  C   UNL     1      43.038 -13.999   5.779  1.00  0.00     0.026 A 
HETATM    9  C   UNL     1      43.046 -13.466   4.490  1.00  0.00     0.074 A 
HETATM   10  C   UNL     1      43.423 -12.138   4.275  1.00  0.00     0.026 A 
HETATM   11  C   UNL     1      43.771 -11.328   5.364  1.00  0.00     0.017 A 
BRANCH   9  12
HETATM   12  S   UNL     1      42.673 -14.504   3.108  1.00  0.00     0.243 S 
HETATM   13  O   UNL     1      42.936 -13.772   1.892  1.00  0.00    -0.206 OA
HETATM   14  O   UNL     1      43.241 -15.818   3.325  1.00  0.00    -0.206 OA
BRANCH  12  15
HETATM   15  N   UNL     1      40.972 -14.716   3.213  1.00  0.00    -0.203 NA
HETATM   16  C   UNL     1      40.365 -15.717   2.279  1.00  0.00     0.135 C 
HETATM   17  C   UNL     1      40.202 -15.181   0.840  1.00  0.00     0.250 C 
HETATM   18  N   UNL     1      39.482 -13.835   0.828  1.00  0.00    -0.073 N 
HETATM   19  H   UNL     1      38.522 -13.996   1.157  1.00  0.00     0.279 HD
HETATM   20  C   UNL     1      39.388 -13.279  -0.567  1.00  0.00     0.269 C 
HETATM   21  C   UNL     1      40.126 -12.829   1.783  1.00  0.00     0.250 C 
HETATM   22  C   UNL     1      40.208 -13.426   3.198  1.00  0.00     0.135 C 
ENDBRANCH  12  15
ENDBRANCH   9  12
ENDBRANCH   5   6
BRANCH   1  23
HETATM   23  C   UNL     1      42.063  -9.584   8.208  1.00  0.00     0.128 C 
HETATM   24  C   UNL     1      42.142  -8.433   7.217  1.00  0.00     0.027 C 
ENDBRANCH   1  23
BRANCH   2  25
HETATM   25  S   UNL     1      43.588  -8.871  11.003  1.00  0.00    -0.081 SA
BRANCH  25  26
HETATM   26  C   UNL     1      42.859 -10.114  12.105  1.00  0.00     0.185 C 
BRANCH  26  27
HETATM   27  C   UNL     1      41.790  -9.624  13.073  1.00  0.00     0.231 C 
HETATM   28  N   UNL     1      42.121  -8.499  13.799  1.00  0.00    -0.326 N 
HETATM   29  H   UNL     1      43.111  -8.265  13.827  1.00  0.00     0.169 HD
HETATM   30  O   UNL     1      40.705 -10.206  13.105  1.00  0.00    -0.272 OA
BRANCH  28  31
HETATM   31  C   UNL     1      41.310  -7.795  14.714  1.00  0.00     0.037 A 
HETATM   32  C   UNL     1      41.371  -7.963  16.099  1.00  0.00     0.066 A 
HETATM   33  C   UNL     1      40.526  -7.220  16.923  1.00  0.00     0.067 A 
HETATM   34  C   UNL     1      39.619  -6.312  16.393  1.00  0.00     0.036 A 
HETATM   35  C   UNL     1      39.546  -6.146  15.013  1.00  0.00     0.005 A 
HETATM   36  C   UNL     1      40.387  -6.886  14.177  1.00  0.00     0.029 A 
BRANCH  33  37
HETATM   37  O   UNL     1      40.561  -7.359  18.281  1.00  0.00    -0.361 OA
HETATM   38  H   UNL     1      40.927  -6.543  18.662  1.00  0.00     0.217 HD
ENDBRANCH  33  37
ENDBRANCH  28  31
ENDBRANCH  26  27
ENDBRANCH  25  26
ENDBRANCH   2  25
TORSDOF 9
ENDMDL
MODEL 7
REMARK VINA RESULT:      -7.7      1.589      2.115
REMARK  9 active torsions:
REMARK  status: ('A' for Active; 'I' for Inactive)
REMARK    1  A    between atoms: C_2  and  N_3 
REMARK    2  A    between atoms: C_4  and  S_5 
REMARK    3  A    between atoms: S_5  and  C_6 
REMARK    4  A    between atoms: C_6  and  C_7 
REMARK       I    between atoms: C_7  and  N_8 
REMARK    5  A    between atoms: N_8  and  C_9 
REMARK    6  A    between atoms: C_11  and  O_12 
REMARK    7  A    between atoms: C_19  and  C_20 
REMARK    8  A    between atoms: C_23  and  S_24 
REMARK    9  A    between atoms: S_24  and  N_25 
ROOT
HETATM    1  N   UNL     1      41.673 -12.458   4.167  1.00  0.00    -0.308 N 
HETATM    2  C   UNL     1      42.046 -12.498   2.849  1.00  0.00     0.192 A 
HETATM    3  N   UNL     1      42.689 -11.407   2.526  1.00  0.00    -0.122 NA
HETATM    4  N   UNL     1      42.668 -10.585   3.617  1.00  0.00    -0.128 NA
HETATM    5  C   UNL     1      42.037 -11.197   4.606  1.00  0.00     0.164 A 
ENDROOT
BRANCH   5   6
HETATM    6  C   UNL     1      41.718 -10.541   5.877  1.00  0.00     0.012 A 
HETATM    7  C   UNL     1      42.785 -10.220   6.735  1.00  0.00     0.017 A 
HETATM    8  C   UNL     1      42.561  -9.633   7.981  1.00  0.00     0.026 A 
HETATM    9  C   UNL     1      41.254  -9.346   8.375  1.00  0.00     0.074 A 
HETATM   10  C   UNL     1      40.176  -9.678   7.550  1.00  0.00     0.026 A 
HETATM   11  C   UNL     1      40.410 -10.282   6.308  1.00  0.00     0.017 A 
BRANCH   9  12
HETATM   12  S   UNL     1      40.950  -8.647   9.970  1.00  0.00     0.243 S 
HETATM   13  O   UNL     1      40.698  -7.234   9.819  1.00  0.00    -0.206 OA
HETATM   14  O   UNL     1      40.032  -9.494  10.702  1.00  0.00    -0.206 OA
BRANCH  12  15
HETATM   15  N   UNL     1      42.460  -8.807  10.773  1.00  0.00    -0.203 NA
HETATM   16  C   UNL     1      42.638 -10.025  11.626  1.00  0.00     0.135 C 
HETATM   17  C   UNL     1      41.932  -9.913  12.994  1.00  0.00     0.250 C 
HETATM   18  N   UNL     1      42.310  -8.618  13.709  1.00  0.00    -0.073 N 
HETATM   19  H   UNL     1      43.311  -8.673  13.936  1.00  0.00     0.279 HD
HETATM   20  C   UNL     1      41.567  -8.476  15.009  1.00  0.00     0.269 C 
HETATM   21  C   UNL     1      42.113  -7.390  12.820  1.00  0.00     0.250 C 
HETATM   22  C   UNL     1      42.884  -7.567  11.501  1.00  0.00     0.135 C 
ENDBRANCH  12  15
ENDBRANCH   9  12
ENDBRANCH   5   6
BRANCH   1  23
HETATM   23  C   UNL     1      40.976 -13.491   4.901  1.00  0.00     0.128 C 
HETATM   24  C   UNL     1      41.885 -14.227   5.874  1.00  0.00     0.027 C 
ENDBRANCH   1  23
BRANCH   2  25
HETATM   25  S   UNL     1      41.692 -13.762   1.729  1.00  0.00    -0.081 SA
BRANCH  25  26
HETATM   26  C   UNL     1      43.056 -14.916   2.043  1.00  0.00     0.185 C 
BRANCH  26  27
HETATM   27  C   UNL     1      42.714 -16.180   2.822  1.00  0.00     0.231 C 
HETATM   28  N   UNL     1      43.794 -16.876   3.322  1.00  0.00    -0.326 N 
HETATM   29  H   UNL     1      44.697 -16.647   2.914  1.00  0.00     0.169 HD
HETATM   30  O   UNL     1      41.529 -16.463   3.004  1.00  0.00    -0.272 OA
BRANCH  28  31
HETATM   31  C   UNL     1      43.773 -18.035   4.127  1.00  0.00     0.037 A 
HETATM   32  C   UNL     1      43.542 -18.022   5.504  1.00  0.00     0.066 A 
HETATM   33  C   UNL     1      43.540 -19.222   6.216  1.00  0.00     0.067 A 
HETATM   34  C   UNL     1      43.766 -20.436   5.581  1.00  0.00     0.036 A 
HETATM   35  C   UNL     1      44.006 -20.455   4.210  1.00  0.00     0.005 A 
HETATM   36  C   UNL     1      44.012 -19.259   3.487  1.00  0.00     0.029 A 
BRANCH  33  37
HETATM   37  O   UNL     1      43.317 -19.245   7.563  1.00  0.00    -0.361 OA
HETATM   38  H   UNL     1      42.482 -19.715   7.726  1.00  0.00     0.217 HD
ENDBRANCH  33  37
ENDBRANCH  28  31
ENDBRANCH  26  27
ENDBRANCH  25  26
ENDBRANCH   2  25
TORSDOF 9
ENDMDL
MODEL 8
REMARK VINA RESULT:      -7.6      2.805      4.370
REMARK  9 active torsions:
REMARK  status: ('A' for Active; 'I' for Inactive)
REMARK    1  A    between atoms: C_2  and  N_3 
REMARK    2  A    between atoms: C_4  and  S_5 
REMARK    3  A    between atoms: S_5  and  C_6 
REMARK    4  A    between atoms: C_6  and  C_7 
REMARK       I    between atoms: C_7  and  N_8 
REMARK    5  A    between atoms: N_8  and  C_9 
REMARK    6  A    between atoms: C_11  and  O_12 
REMARK    7  A    between atoms: C_19  and  C_20 
REMARK    8  A    between atoms: C_23  and  S_24 
REMARK    9  A    between atoms: S_24  and  N_25 
ROOT
HETATM    1  N   UNL     1      40.596 -10.192   6.882  1.00  0.00    -0.308 N 
HETATM    2  C   UNL     1      40.195 -11.302   6.187  1.00  0.00     0.192 A 
HETATM    3  N   UNL     1      39.015 -11.689   6.593  1.00  0.00    -0.122 NA
HETATM    4  N   UNL     1      38.659 -10.883   7.636  1.00  0.00    -0.128 NA
HETATM    5  C   UNL     1      39.615  -9.990   7.837  1.00  0.00     0.164 A 
ENDROOT
BRANCH   5   6
HETATM    6  C   UNL     1      39.614  -9.059   8.968  1.00  0.00     0.012 A 
HETATM    7  C   UNL     1      39.822  -9.588  10.254  1.00  0.00     0.017 A 
HETATM    8  C   UNL     1      39.794  -8.772  11.386  1.00  0.00     0.026 A 
HETATM    9  C   UNL     1      39.571  -7.403  11.236  1.00  0.00     0.074 A 
HETATM   10  C   UNL     1      39.337  -6.858   9.971  1.00  0.00     0.026 A 
HETATM   11  C   UNL     1      39.352  -7.688   8.842  1.00  0.00     0.017 A 
BRANCH   9  12
HETATM   12  S   UNL     1      39.484  -6.366  12.664  1.00  0.00     0.243 S 
HETATM   13  O   UNL     1      38.686  -5.205  12.349  1.00  0.00    -0.206 OA
HETATM   14  O   UNL     1      39.197  -7.173  13.831  1.00  0.00    -0.206 OA
BRANCH  12  15
HETATM   15  N   UNL     1      41.102  -5.826  12.867  1.00  0.00    -0.203 NA
HETATM   16  C   UNL     1      42.043  -6.775  13.543  1.00  0.00     0.135 C 
HETATM   17  C   UNL     1      41.871  -6.808  15.077  1.00  0.00     0.250 C 
HETATM   18  N   UNL     1      41.907  -5.402  15.670  1.00  0.00    -0.073 N 
HETATM   19  H   UNL     1      42.853  -5.029  15.522  1.00  0.00     0.279 HD
HETATM   20  C   UNL     1      41.666  -5.429  17.155  1.00  0.00     0.269 C 
HETATM   21  C   UNL     1      40.932  -4.455  14.968  1.00  0.00     0.250 C 
HETATM   22  C   UNL     1      41.203  -4.450  13.454  1.00  0.00     0.135 C 
ENDBRANCH  12  15
ENDBRANCH   9  12
ENDBRANCH   5   6
BRANCH   1  23
HETATM   23  C   UNL     1      41.826  -9.452   6.696  1.00  0.00     0.128 C 
HETATM   24  C   UNL     1      42.962  -9.987   7.554  1.00  0.00     0.027 C 
ENDBRANCH   1  23
BRANCH   2  25
HETATM   25  S   UNL     1      41.107 -12.133   4.981  1.00  0.00    -0.081 SA
BRANCH  25  26
HETATM   26  C   UNL     1      41.931 -13.413   5.968  1.00  0.00     0.185 C 
BRANCH  26  27
HETATM   27  C   UNL     1      41.885 -14.832   5.416  1.00  0.00     0.231 C 
HETATM   28  N   UNL     1      43.006 -15.232   4.719  1.00  0.00    -0.326 N 
HETATM   29  H   UNL     1      43.625 -14.487   4.411  1.00  0.00     0.169 HD
HETATM   30  O   UNL     1      40.906 -15.537   5.669  1.00  0.00    -0.272 OA
BRANCH  28  31
HETATM   31  C   UNL     1      43.263 -16.501   4.158  1.00  0.00     0.037 A 
HETATM   32  C   UNL     1      43.846 -17.559   4.860  1.00  0.00     0.066 A 
HETATM   33  C   UNL     1      44.061 -18.778   4.218  1.00  0.00     0.067 A 
HETATM   34  C   UNL     1      43.708 -18.964   2.888  1.00  0.00     0.036 A 
HETATM   35  C   UNL     1      43.135 -17.911   2.180  1.00  0.00     0.005 A 
HETATM   36  C   UNL     1      42.917 -16.684   2.812  1.00  0.00     0.029 A 
BRANCH  33  37
HETATM   37  O   UNL     1      44.627 -19.833   4.875  1.00  0.00    -0.361 OA
HETATM   38  H   UNL     1      44.576 -19.660   5.830  1.00  0.00     0.217 HD
ENDBRANCH  33  37
ENDBRANCH  28  31
ENDBRANCH  26  27
ENDBRANCH  25  26
ENDBRANCH   2  25
TORSDOF 9
ENDMDL
MODEL 9
REMARK VINA RESULT:      -7.5      2.325      3.540
REMARK  9 active torsions:
REMARK  status: ('A' for Active; 'I' for Inactive)
REMARK    1  A    between atoms: C_2  and  N_3 
REMARK    2  A    between atoms: C_4  and  S_5 
REMARK    3  A    between atoms: S_5  and  C_6 
REMARK    4  A    between atoms: C_6  and  C_7 
REMARK       I    between atoms: C_7  and  N_8 
REMARK    5  A    between atoms: N_8  and  C_9 
REMARK    6  A    between atoms: C_11  and  O_12 
REMARK    7  A    between atoms: C_19  and  C_20 
REMARK    8  A    between atoms: C_23  and  S_24 
REMARK    9  A    between atoms: S_24  and  N_25 
ROOT
HETATM    1  N   UNL     1      43.019 -10.621   7.291  1.00  0.00    -0.308 N 
HETATM    2  C   UNL     1      43.803 -11.366   6.450  1.00  0.00     0.192 A 
HETATM    3  N   UNL     1      44.900 -11.732   7.059  1.00  0.00    -0.122 NA
HETATM    4  N   UNL     1      44.894 -11.149   8.294  1.00  0.00    -0.128 NA
HETATM    5  C   UNL     1      43.776 -10.455   8.438  1.00  0.00     0.164 A 
ENDROOT
BRANCH   5   6
HETATM    6  C   UNL     1      43.512  -9.595   9.594  1.00  0.00     0.012 A 
HETATM    7  C   UNL     1      43.214 -10.217  10.820  1.00  0.00     0.017 A 
HETATM    8  C   UNL     1      42.910  -9.467  11.957  1.00  0.00     0.026 A 
HETATM    9  C   UNL     1      42.918  -8.075  11.879  1.00  0.00     0.074 A 
HETATM   10  C   UNL     1      43.187  -7.435  10.666  1.00  0.00     0.026 A 
HETATM   11  C   UNL     1      43.475  -8.196   9.526  1.00  0.00     0.017 A 
BRANCH   9  12
HETATM   12  S   UNL     1      42.488  -7.113  13.299  1.00  0.00     0.243 S 
HETATM   13  O   UNL     1      43.566  -7.188  14.256  1.00  0.00    -0.206 OA
HETATM   14  O   UNL     1      41.957  -5.836  12.873  1.00  0.00    -0.206 OA
BRANCH  12  15
HETATM   15  N   UNL     1      41.156  -7.963  13.971  1.00  0.00    -0.203 NA
HETATM   16  C   UNL     1      39.794  -7.545  13.509  1.00  0.00     0.135 C 
HETATM   17  C   UNL     1      39.298  -6.249  14.184  1.00  0.00     0.250 C 
HETATM   18  N   UNL     1      39.416  -6.334  15.704  1.00  0.00    -0.073 N 
HETATM   19  H   UNL     1      38.763  -7.061  16.023  1.00  0.00     0.279 HD
HETATM   20  C   UNL     1      39.000  -5.045  16.358  1.00  0.00     0.269 C 
HETATM   21  C   UNL     1      40.817  -6.756  16.150  1.00  0.00     0.250 C 
HETATM   22  C   UNL     1      41.212  -8.075  15.465  1.00  0.00     0.135 C 
ENDBRANCH  12  15
ENDBRANCH   9  12
ENDBRANCH   5   6
BRANCH   1  23
HETATM   23  C   UNL     1      41.716 -10.065   6.995  1.00  0.00     0.128 C 
HETATM   24  C   UNL     1      41.803  -8.698   6.334  1.00  0.00     0.027 C 
ENDBRANCH   1  23
BRANCH   2  25
HETATM   25  S   UNL     1      43.455 -11.745   4.803  1.00  0.00    -0.081 SA
BRANCH  25  26
HETATM   26  C   UNL     1      41.987 -12.796   4.976  1.00  0.00     0.185 C 
BRANCH  26  27
HETATM   27  C   UNL     1      42.079 -14.197   4.384  1.00  0.00     0.231 C 
HETATM   28  N   UNL     1      43.066 -15.000   4.917  1.00  0.00    -0.326 N 
HETATM   29  H   UNL     1      43.793 -14.519   5.441  1.00  0.00     0.169 HD
HETATM   30  O   UNL     1      41.255 -14.539   3.536  1.00  0.00    -0.272 OA
BRANCH  28  31
HETATM   31  C   UNL     1      43.338 -16.349   4.609  1.00  0.00     0.037 A 
HETATM   32  C   UNL     1      43.151 -16.912   3.344  1.00  0.00     0.066 A 
HETATM   33  C   UNL     1      43.449 -18.258   3.135  1.00  0.00     0.067 A 
HETATM   34  C   UNL     1      43.928 -19.057   4.165  1.00  0.00     0.036 A 
HETATM   35  C   UNL     1      44.108 -18.506   5.430  1.00  0.00     0.005 A 
HETATM   36  C   UNL     1      43.812 -17.158   5.651  1.00  0.00     0.029 A 
BRANCH  33  37
HETATM   37  O   UNL     1      43.278 -18.839   1.911  1.00  0.00    -0.361 OA
HETATM   38  H   UNL     1      42.325 -18.908   1.737  1.00  0.00     0.217 HD
ENDBRANCH  33  37
ENDBRANCH  28  31
ENDBRANCH  26  27
ENDBRANCH  25  26
ENDBRANCH   2  25
TORSDOF 9
ENDMDL
MODEL 10
REMARK VINA RESULT:      -7.4      1.928      2.743
REMARK  9 active torsions:
REMARK  status: ('A' for Active; 'I' for Inactive)
REMARK    1  A    between atoms: C_2  and  N_3 
REMARK    2  A    between atoms: C_4  and  S_5 
REMARK    3  A    between atoms: S_5  and  C_6 
REMARK    4  A    between atoms: C_6  and  C_7 
REMARK       I    between atoms: C_7  and  N_8 
REMARK    5  A    between atoms: N_8  and  C_9 
REMARK    6  A    between atoms: C_11  and  O_12 
REMARK    7  A    between atoms: C_19  and  C_20 
REMARK    8  A    between atoms: C_23  and  S_24 
REMARK    9  A    between atoms: S_24  and  N_25 
ROOT
HETATM    1  N   UNL     1      40.406 -12.165   3.554  1.00  0.00    -0.308 N 
HETATM    2  C   UNL     1      40.194 -13.432   3.076  1.00  0.00     0.192 A 
HETATM    3  N   UNL     1      40.250 -14.300   4.052  1.00  0.00    -0.122 NA
HETATM    4  N   UNL     1      40.595 -13.617   5.184  1.00  0.00    -0.128 NA
HETATM    5  C   UNL     1      40.716 -12.332   4.892  1.00  0.00     0.164 A 
ENDROOT
BRANCH   5   6
HETATM    6  C   UNL     1      41.209 -11.339   5.850  1.00  0.00     0.012 A 
HETATM    7  C   UNL     1      42.583 -11.344   6.151  1.00  0.00     0.017 A 
HETATM    8  C   UNL     1      43.123 -10.457   7.084  1.00  0.00     0.026 A 
HETATM    9  C   UNL     1      42.286  -9.538   7.716  1.00  0.00     0.074 A 
HETATM   10  C   UNL     1      40.914  -9.530   7.451  1.00  0.00     0.026 A 
HETATM   11  C   UNL     1      40.378 -10.435   6.525  1.00  0.00     0.017 A 
BRANCH   9  12
HETATM   12  S   UNL     1      42.947  -8.441   8.935  1.00  0.00     0.243 S 
HETATM   13  O   UNL     1      43.879  -9.171   9.761  1.00  0.00    -0.206 OA
HETATM   14  O   UNL     1      43.327  -7.194   8.307  1.00  0.00    -0.206 OA
BRANCH  12  15
HETATM   15  N   UNL     1      41.589  -8.066   9.917  1.00  0.00    -0.203 NA
HETATM   16  C   UNL     1      41.510  -6.666  10.442  1.00  0.00     0.135 C 
HETATM   17  C   UNL     1      42.441  -6.419  11.649  1.00  0.00     0.250 C 
HETATM   18  N   UNL     1      42.239  -7.478  12.730  1.00  0.00    -0.073 N 
HETATM   19  H   UNL     1      41.290  -7.359  13.104  1.00  0.00     0.279 HD
HETATM   20  C   UNL     1      43.196  -7.279  13.873  1.00  0.00     0.269 C 
HETATM   21  C   UNL     1      42.332  -8.898  12.170  1.00  0.00     0.250 C 
HETATM   22  C   UNL     1      41.343  -9.069  11.004  1.00  0.00     0.135 C 
ENDBRANCH  12  15
ENDBRANCH   9  12
ENDBRANCH   5   6
BRANCH   1  23
HETATM   23  C   UNL     1      40.387 -10.937   2.789  1.00  0.00     0.128 C 
HETATM   24  C   UNL     1      41.753 -10.585   2.220  1.00  0.00     0.027 C 
ENDBRANCH   1  23
BRANCH   2  25
HETATM   25  S   UNL     1      39.938 -13.868   1.427  1.00  0.00    -0.081 SA
BRANCH  25  26
HETATM   26  C   UNL     1      41.642 -14.088   0.843  1.00  0.00     0.185 C 
BRANCH  26  27
HETATM   27  C   UNL     1      42.574 -14.884   1.748  1.00  0.00     0.231 C 
HETATM   28  N   UNL     1      42.099 -16.114   2.152  1.00  0.00    -0.326 N 
HETATM   29  H   UNL     1      41.098 -16.261   2.041  1.00  0.00     0.169 HD
HETATM   30  O   UNL     1      43.687 -14.423   2.008  1.00  0.00    -0.272 OA
BRANCH  28  31
HETATM   31  C   UNL     1      42.767 -17.081   2.932  1.00  0.00     0.037 A 
HETATM   32  C   UNL     1      43.037 -16.931   4.294  1.00  0.00     0.066 A 
HETATM   33  C   UNL     1      43.704 -17.945   4.983  1.00  0.00     0.067 A 
HETATM   34  C   UNL     1      44.109 -19.106   4.338  1.00  0.00     0.036 A 
HETATM   35  C   UNL     1      43.851 -19.258   2.979  1.00  0.00     0.005 A 
HETATM   36  C   UNL     1      43.185 -18.249   2.279  1.00  0.00     0.029 A 
BRANCH  33  37
HETATM   37  O   UNL     1      43.982 -17.830   6.315  1.00  0.00    -0.361 OA
HETATM   38  H   UNL     1      44.305 -18.689   6.633  1.00  0.00     0.217 HD
ENDBRANCH  33  37
ENDBRANCH  28  31
ENDBRANCH  26  27
ENDBRANCH  25  26
ENDBRANCH   2  25
TORSDOF 9
ENDMDL
