MODEL 1
REMARK VINA RESULT:      -8.6      0.000      0.000
REMARK  5 active torsions:
REMARK  status: ('A' for Active; 'I' for Inactive)
REMARK    1  A    between atoms: C_9  and  C_10 
REMARK       I    between atoms: C_10  and  N_11 
REMARK    2  A    between atoms: N_11  and  C_12 
REMARK    3  A    between atoms: C_15  and  C_16 
REMARK    4  A    between atoms: C_16  and  C_17 
REMARK       I    between atoms: C_17  and  N_18 
REMARK    5  A    between atoms: N_18  and  C_19 
ROOT
HETATM    1  C   UNL     1      43.152 -12.273   3.536  1.00  0.00     0.277 C 
HETATM    2  N   UNL     1      43.367 -12.585   4.867  1.00  0.00    -0.322 N 
HETATM    3  O   UNL     1      43.240 -11.162   3.027  1.00  0.00    -0.266 OA
HETATM    4  H   UNL     1      43.214 -13.571   5.070  1.00  0.00     0.169 HD
ENDROOT
BRANCH   2   5
HETATM    5  C   UNL     1      43.942 -11.789   5.869  1.00  0.00     0.035 A 
HETATM    6  C   UNL     1      45.309 -11.743   6.143  1.00  0.00     0.030 A 
HETATM    7  C   UNL     1      45.787 -11.039   7.257  1.00  0.00     0.010 A 
HETATM    8  C   UNL     1      44.903 -10.371   8.112  1.00  0.00    -0.049 A 
HETATM    9  C   UNL     1      43.539 -10.361   7.795  1.00  0.00     0.010 A 
HETATM   10  C   UNL     1      43.065 -11.062   6.682  1.00  0.00     0.030 A 
BRANCH   8  11
HETATM   11  C   UNL     1      45.394  -9.739   9.393  1.00  0.00     0.141 C 
BRANCH  11  12
HETATM   12  C   UNL     1      44.595  -9.991  10.657  1.00  0.00     0.222 C 
HETATM   13  N   UNL     1      43.895  -8.922  11.169  1.00  0.00    -0.357 N 
HETATM   14  H   UNL     1      44.028  -8.013  10.745  1.00  0.00     0.162 HD
HETATM   15  O   UNL     1      44.522 -11.126  11.126  1.00  0.00    -0.273 OA
BRANCH  13  16
HETATM   16  C   UNL     1      42.971  -9.012  12.295  1.00  0.00     0.076 C 
HETATM   17  C   UNL     1      43.149  -7.849  13.269  1.00  0.00     0.032 C 
HETATM   18  C   UNL     1      41.516  -9.159  11.857  1.00  0.00     0.032 C 
ENDBRANCH  13  16
ENDBRANCH  11  12
ENDBRANCH   8  11
ENDBRANCH   2   5
BRANCH   1  19
HETATM   19  C   UNL     1      42.837 -13.481   2.746  1.00  0.00     0.157 A 
HETATM   20  C   UNL     1      43.022 -14.843   3.128  1.00  0.00     0.029 A 
HETATM   21  C   UNL     1      43.549 -15.525   4.244  1.00  0.00     0.023 A 
HETATM   22  C   UNL     1      42.493 -15.587   2.081  1.00  0.00     0.063 A 
HETATM   23  C   UNL     1      43.521 -16.930   4.275  1.00  0.00    -0.061 A 
HETATM   24  C   UNL     1      44.072 -17.677   5.455  1.00  0.00     0.048 C 
HETATM   25  C   UNL     1      42.973 -17.639   3.199  1.00  0.00     0.009 A 
HETATM   26  C   UNL     1      42.450 -16.984   2.078  1.00  0.00     0.032 A 
HETATM   27  N   UNL     1      42.067 -14.668   1.164  1.00  0.00    -0.277 N 
HETATM   28  H   UNL     1      41.625 -14.855   0.270  1.00  0.00     0.189 HD
HETATM   29  N   UNL     1      42.249 -13.386   1.530  1.00  0.00    -0.168 NA
ENDBRANCH   1  19
TORSDOF 5
ENDMDL
MODEL 2
REMARK VINA RESULT:      -8.4      1.415      1.517
REMARK  5 active torsions:
REMARK  status: ('A' for Active; 'I' for Inactive)
REMARK    1  A    between atoms: C_9  and  C_10 
REMARK       I    between atoms: C_10  and  N_11 
REMARK    2  A    between atoms: N_11  and  C_12 
REMARK    3  A    between atoms: C_15  and  C_16 
REMARK    4  A    between atoms: C_16  and  C_17 
REMARK       I    between atoms: C_17  and  N_18 
REMARK    5  A    between atoms: N_18  and  C_19 
ROOT
HETATM    1  C   UNL     1      43.009 -13.876   5.656  1.00  0.00     0.277 C 
HETATM    2  N   UNL     1      43.757 -12.734   5.431  1.00  0.00    -0.322 N 
HETATM    3  O   UNL     1      42.696 -14.336   6.749  1.00  0.00    -0.266 OA
HETATM    4  H   UNL     1      43.914 -12.556   4.441  1.00  0.00     0.169 HD
ENDROOT
BRANCH   2   5
HETATM    5  C   UNL     1      44.124 -11.735   6.346  1.00  0.00     0.035 A 
HETATM    6  C   UNL     1      45.411 -11.583   6.862  1.00  0.00     0.030 A 
HETATM    7  C   UNL     1      45.661 -10.657   7.884  1.00  0.00     0.010 A 
HETATM    8  C   UNL     1      44.626  -9.869   8.402  1.00  0.00    -0.049 A 
HETATM    9  C   UNL     1      43.351  -9.975   7.834  1.00  0.00     0.010 A 
HETATM   10  C   UNL     1      43.105 -10.898   6.813  1.00  0.00     0.030 A 
BRANCH   8  11
HETATM   11  C   UNL     1      44.857  -8.980   9.601  1.00  0.00     0.141 C 
BRANCH  11  12
HETATM   12  C   UNL     1      44.293  -9.431  10.935  1.00  0.00     0.222 C 
HETATM   13  N   UNL     1      43.644  -8.478  11.686  1.00  0.00    -0.357 N 
HETATM   14  H   UNL     1      43.665  -7.517  11.366  1.00  0.00     0.162 HD
HETATM   15  O   UNL     1      44.348 -10.617  11.260  1.00  0.00    -0.273 OA
BRANCH  13  16
HETATM   16  C   UNL     1      42.927  -8.760  12.924  1.00  0.00     0.076 C 
HETATM   17  C   UNL     1      42.975  -7.576  13.890  1.00  0.00     0.032 C 
HETATM   18  C   UNL     1      41.494  -9.231  12.686  1.00  0.00     0.032 C 
ENDBRANCH  13  16
ENDBRANCH  11  12
ENDBRANCH   8  11
ENDBRANCH   2   5
BRANCH   1  19
HETATM   19  C   UNL     1      42.567 -14.487   4.386  1.00  0.00     0.157 A 
HETATM   20  C   UNL     1      42.853 -15.799   3.905  1.00  0.00     0.029 A 
HETATM   21  C   UNL     1      43.608 -16.904   4.350  1.00  0.00     0.023 A 
HETATM   22  C   UNL     1      42.139 -15.913   2.719  1.00  0.00     0.063 A 
HETATM   23  C   UNL     1      43.616 -18.088   3.592  1.00  0.00    -0.061 A 
HETATM   24  C   UNL     1      44.409 -19.278   4.048  1.00  0.00     0.048 C 
HETATM   25  C   UNL     1      42.876 -18.160   2.405  1.00  0.00     0.009 A 
HETATM   26  C   UNL     1      42.124 -17.074   1.942  1.00  0.00     0.032 A 
HETATM   27  N   UNL     1      41.517 -14.707   2.554  1.00  0.00    -0.277 N 
HETATM   28  H   UNL     1      40.908 -14.433   1.791  1.00  0.00     0.189 HD
HETATM   29  N   UNL     1      41.743 -13.821   3.542  1.00  0.00    -0.168 NA
ENDBRANCH   1  19
TORSDOF 5
ENDMDL
MODEL 3
REMARK VINA RESULT:      -8.4      3.183      9.636
REMARK  5 active torsions:
REMARK  status: ('A' for Active; 'I' for Inactive)
REMARK    1  A    between atoms: C_9  and  C_10 
REMARK       I    between atoms: C_10  and  N_11 
REMARK    2  A    between atoms: N_11  and  C_12 
REMARK    3  A    between atoms: C_15  and  C_16 
REMARK    4  A    between atoms: C_16  and  C_17 
REMARK       I    between atoms: C_17  and  N_18 
REMARK    5  A    between atoms: N_18  and  C_19 
ROOT
HETATM    1  C   UNL     1      43.606 -12.786   6.411  1.00  0.00     0.277 C 
HETATM    2  N   UNL     1      43.093 -12.453   5.170  1.00  0.00    -0.322 N 
HETATM    3  O   UNL     1      43.363 -13.805   7.048  1.00  0.00    -0.266 OA
HETATM    4  H   UNL     1      43.417 -11.545   4.841  1.00  0.00     0.169 HD
ENDROOT
BRANCH   2   5
HETATM    5  C   UNL     1      42.386 -13.265   4.269  1.00  0.00     0.035 A 
HETATM    6  C   UNL     1      42.964 -14.293   3.524  1.00  0.00     0.030 A 
HETATM    7  C   UNL     1      42.223 -14.957   2.537  1.00  0.00     0.010 A 
HETATM    8  C   UNL     1      40.893 -14.602   2.283  1.00  0.00    -0.049 A 
HETATM    9  C   UNL     1      40.296 -13.618   3.080  1.00  0.00     0.010 A 
HETATM   10  C   UNL     1      41.036 -12.959   4.065  1.00  0.00     0.030 A 
BRANCH   8  11
HETATM   11  C   UNL     1      40.138 -15.209   1.124  1.00  0.00     0.141 C 
BRANCH  11  12
HETATM   12  C   UNL     1      40.025 -14.394  -0.150  1.00  0.00     0.222 C 
HETATM   13  N   UNL     1      39.033 -14.760  -1.032  1.00  0.00    -0.357 N 
HETATM   14  H   UNL     1      38.506 -15.602  -0.839  1.00  0.00     0.162 HD
HETATM   15  O   UNL     1      40.737 -13.404  -0.316  1.00  0.00    -0.273 OA
BRANCH  13  16
HETATM   16  C   UNL     1      38.692 -14.011  -2.236  1.00  0.00     0.076 C 
HETATM   17  C   UNL     1      38.341 -14.937  -3.400  1.00  0.00     0.032 C 
HETATM   18  C   UNL     1      37.599 -12.971  -1.999  1.00  0.00     0.032 C 
ENDBRANCH  13  16
ENDBRANCH  11  12
ENDBRANCH   8  11
ENDBRANCH   2   5
BRANCH   1  19
HETATM   19  C   UNL     1      44.559 -11.764   6.890  1.00  0.00     0.157 A 
HETATM   20  C   UNL     1      44.518 -11.044   8.121  1.00  0.00     0.029 A 
HETATM   21  C   UNL     1      43.653 -10.977   9.232  1.00  0.00     0.023 A 
HETATM   22  C   UNL     1      45.676 -10.278   8.130  1.00  0.00     0.063 A 
HETATM   23  C   UNL     1      43.981 -10.147  10.317  1.00  0.00    -0.061 A 
HETATM   24  C   UNL     1      43.077 -10.062  11.512  1.00  0.00     0.048 C 
HETATM   25  C   UNL     1      45.162  -9.395  10.286  1.00  0.00     0.009 A 
HETATM   26  C   UNL     1      46.033  -9.442   9.191  1.00  0.00     0.032 A 
HETATM   27  N   UNL     1      46.300 -10.551   6.945  1.00  0.00    -0.277 N 
HETATM   28  H   UNL     1      47.177 -10.165   6.613  1.00  0.00     0.189 HD
HETATM   29  N   UNL     1      45.662 -11.448   6.171  1.00  0.00    -0.168 NA
ENDBRANCH   1  19
TORSDOF 5
ENDMDL
MODEL 4
REMARK VINA RESULT:      -8.3      6.204      8.826
REMARK  5 active torsions:
REMARK  status: ('A' for Active; 'I' for Inactive)
REMARK    1  A    between atoms: C_9  and  C_10 
REMARK       I    between atoms: C_10  and  N_11 
REMARK    2  A    between atoms: N_11  and  C_12 
REMARK    3  A    between atoms: C_15  and  C_16 
REMARK    4  A    between atoms: C_16  and  C_17 
REMARK       I    between atoms: C_17  and  N_18 
REMARK    5  A    between atoms: N_18  and  C_19 
ROOT
HETATM    1  C   UNL     1      42.578 -14.893   2.449  1.00  0.00     0.277 C 
HETATM    2  N   UNL     1      41.268 -15.118   2.068  1.00  0.00    -0.322 N 
HETATM    3  O   UNL     1      43.335 -14.046   1.987  1.00  0.00    -0.266 OA
HETATM    4  H   UNL     1      40.838 -15.891   2.574  1.00  0.00     0.169 HD
ENDROOT
BRANCH   2   5
HETATM    5  C   UNL     1      40.442 -14.319   1.262  1.00  0.00     0.035 A 
HETATM    6  C   UNL     1      40.185 -14.570  -0.086  1.00  0.00     0.030 A 
HETATM    7  C   UNL     1      39.472 -13.642  -0.858  1.00  0.00     0.010 A 
HETATM    8  C   UNL     1      39.005 -12.451  -0.290  1.00  0.00    -0.049 A 
HETATM    9  C   UNL     1      39.204 -12.235   1.079  1.00  0.00     0.010 A 
HETATM   10  C   UNL     1      39.913 -13.163   1.847  1.00  0.00     0.030 A 
BRANCH   8  11
HETATM   11  C   UNL     1      38.369 -11.382  -1.148  1.00  0.00     0.141 C 
BRANCH  11  12
HETATM   12  C   UNL     1      39.269 -10.602  -2.087  1.00  0.00     0.222 C 
HETATM   13  N   UNL     1      40.129  -9.697  -1.509  1.00  0.00    -0.357 N 
HETATM   14  H   UNL     1      40.049  -9.525  -0.514  1.00  0.00     0.162 HD
HETATM   15  O   UNL     1      39.272 -10.854  -3.292  1.00  0.00    -0.273 OA
BRANCH  13  16
HETATM   16  C   UNL     1      41.155  -8.960  -2.240  1.00  0.00     0.076 C 
HETATM   17  C   UNL     1      40.612  -7.653  -2.816  1.00  0.00     0.032 C 
HETATM   18  C   UNL     1      42.419  -8.727  -1.416  1.00  0.00     0.032 C 
ENDBRANCH  13  16
ENDBRANCH  11  12
ENDBRANCH   8  11
ENDBRANCH   2   5
BRANCH   1  19
HETATM   19  C   UNL     1      42.977 -15.787   3.556  1.00  0.00     0.157 A 
HETATM   20  C   UNL     1      43.270 -17.181   3.486  1.00  0.00     0.029 A 
HETATM   21  C   UNL     1      43.265 -18.173   2.484  1.00  0.00     0.023 A 
HETATM   22  C   UNL     1      43.674 -17.530   4.768  1.00  0.00     0.063 A 
HETATM   23  C   UNL     1      43.671 -19.481   2.800  1.00  0.00    -0.061 A 
HETATM   24  C   UNL     1      43.678 -20.552   1.749  1.00  0.00     0.048 C 
HETATM   25  C   UNL     1      44.076 -19.787   4.106  1.00  0.00     0.009 A 
HETATM   26  C   UNL     1      44.084 -18.820   5.117  1.00  0.00     0.032 A 
HETATM   27  N   UNL     1      43.578 -16.382   5.503  1.00  0.00    -0.277 N 
HETATM   28  H   UNL     1      43.794 -16.266   6.486  1.00  0.00     0.189 HD
HETATM   29  N   UNL     1      43.167 -15.305   4.807  1.00  0.00    -0.168 NA
ENDBRANCH   1  19
TORSDOF 5
ENDMDL
MODEL 5
REMARK VINA RESULT:      -8.2      1.921      2.121
REMARK  5 active torsions:
REMARK  status: ('A' for Active; 'I' for Inactive)
REMARK    1  A    between atoms: C_9  and  C_10 
REMARK       I    between atoms: C_10  and  N_11 
REMARK    2  A    between atoms: N_11  and  C_12 
REMARK    3  A    between atoms: C_15  and  C_16 
REMARK    4  A    between atoms: C_16  and  C_17 
REMARK       I    between atoms: C_17  and  N_18 
REMARK    5  A    between atoms: N_18  and  C_19 
ROOT
HETATM    1  C   UNL     1      40.902 -12.824   5.408  1.00  0.00     0.277 C 
HETATM    2  N   UNL     1      42.251 -12.546   5.272  1.00  0.00    -0.322 N 
HETATM    3  O   UNL     1      40.211 -12.606   6.396  1.00  0.00    -0.266 OA
HETATM    4  H   UNL     1      42.624 -12.834   4.370  1.00  0.00     0.169 HD
ENDROOT
BRANCH   2   5
HETATM    5  C   UNL     1      43.071 -11.768   6.105  1.00  0.00     0.035 A 
HETATM    6  C   UNL     1      44.338 -12.158   6.539  1.00  0.00     0.030 A 
HETATM    7  C   UNL     1      45.030 -11.393   7.488  1.00  0.00     0.010 A 
HETATM    8  C   UNL     1      44.462 -10.226   8.015  1.00  0.00    -0.049 A 
HETATM    9  C   UNL     1      43.222  -9.801   7.526  1.00  0.00     0.010 A 
HETATM   10  C   UNL     1      42.535 -10.565   6.577  1.00  0.00     0.030 A 
BRANCH   8  11
HETATM   11  C   UNL     1      45.134  -9.481   9.145  1.00  0.00     0.141 C 
BRANCH  11  12
HETATM   12  C   UNL     1      44.679  -9.783  10.560  1.00  0.00     0.222 C 
HETATM   13  N   UNL     1      43.844  -8.862  11.150  1.00  0.00    -0.357 N 
HETATM   14  H   UNL     1      43.662  -7.995  10.660  1.00  0.00     0.162 HD
HETATM   15  O   UNL     1      44.983 -10.850  11.093  1.00  0.00    -0.273 OA
BRANCH  13  16
HETATM   16  C   UNL     1      43.204  -9.050  12.447  1.00  0.00     0.076 C 
HETATM   17  C   UNL     1      43.169  -7.755  13.256  1.00  0.00     0.032 C 
HETATM   18  C   UNL     1      41.817  -9.680  12.338  1.00  0.00     0.032 C 
ENDBRANCH  13  16
ENDBRANCH  11  12
ENDBRANCH   8  11
ENDBRANCH   2   5
BRANCH   1  19
HETATM   19  C   UNL     1      40.344 -13.392   4.163  1.00  0.00     0.157 A 
HETATM   20  C   UNL     1      40.801 -14.539   3.449  1.00  0.00     0.029 A 
HETATM   21  C   UNL     1      41.856 -15.466   3.579  1.00  0.00     0.023 A 
HETATM   22  C   UNL     1      39.894 -14.702   2.410  1.00  0.00     0.063 A 
HETATM   23  C   UNL     1      41.961 -16.529   2.666  1.00  0.00    -0.061 A 
HETATM   24  C   UNL     1      43.073 -17.530   2.787  1.00  0.00     0.048 C 
HETATM   25  C   UNL     1      41.020 -16.658   1.636  1.00  0.00     0.009 A 
HETATM   26  C   UNL     1      39.969 -15.747   1.485  1.00  0.00     0.032 A 
HETATM   27  N   UNL     1      39.003 -13.674   2.542  1.00  0.00    -0.277 N 
HETATM   28  H   UNL     1      38.202 -13.480   1.952  1.00  0.00     0.189 HD
HETATM   29  N   UNL     1      39.236 -12.864   3.592  1.00  0.00    -0.168 NA
ENDBRANCH   1  19
TORSDOF 5
ENDMDL
MODEL 6
REMARK VINA RESULT:      -8.2      6.557     10.058
REMARK  5 active torsions:
REMARK  status: ('A' for Active; 'I' for Inactive)
REMARK    1  A    between atoms: C_9  and  C_10 
REMARK       I    between atoms: C_10  and  N_11 
REMARK    2  A    between atoms: N_11  and  C_12 
REMARK    3  A    between atoms: C_15  and  C_16 
REMARK    4  A    between atoms: C_16  and  C_17 
REMARK       I    between atoms: C_17  and  N_18 
REMARK    5  A    between atoms: N_18  and  C_19 
ROOT
HETATM    1  C   UNL     1      40.478 -15.344   2.474  1.00  0.00     0.277 C 
HETATM    2  N   UNL     1      40.747 -14.186   1.766  1.00  0.00    -0.322 N 
HETATM    3  O   UNL     1      39.457 -16.019   2.402  1.00  0.00    -0.266 OA
HETATM    4  H   UNL     1      41.650 -13.780   2.003  1.00  0.00     0.169 HD
ENDROOT
BRANCH   2   5
HETATM    5  C   UNL     1      40.054 -13.651   0.669  1.00  0.00     0.035 A 
HETATM    6  C   UNL     1      39.443 -12.397   0.666  1.00  0.00     0.030 A 
HETATM    7  C   UNL     1      38.644 -11.999  -0.414  1.00  0.00     0.010 A 
HETATM    8  C   UNL     1      38.446 -12.850  -1.507  1.00  0.00    -0.049 A 
HETATM    9  C   UNL     1      39.117 -14.079  -1.533  1.00  0.00     0.010 A 
HETATM   10  C   UNL     1      39.915 -14.472  -0.456  1.00  0.00     0.030 A 
BRANCH   8  11
HETATM   11  C   UNL     1      37.469 -12.490  -2.602  1.00  0.00     0.141 C 
BRANCH  11  12
HETATM   12  C   UNL     1      37.221 -11.018  -2.872  1.00  0.00     0.222 C 
HETATM   13  N   UNL     1      38.101 -10.390  -3.723  1.00  0.00    -0.357 N 
HETATM   14  H   UNL     1      38.913 -10.904  -4.040  1.00  0.00     0.162 HD
HETATM   15  O   UNL     1      36.223 -10.465  -2.412  1.00  0.00    -0.273 OA
BRANCH  13  16
HETATM   16  C   UNL     1      37.941  -9.021  -4.201  1.00  0.00     0.076 C 
HETATM   17  C   UNL     1      39.284  -8.302  -4.321  1.00  0.00     0.032 C 
HETATM   18  C   UNL     1      37.140  -8.934  -5.498  1.00  0.00     0.032 C 
ENDBRANCH  13  16
ENDBRANCH  11  12
ENDBRANCH   8  11
ENDBRANCH   2   5
BRANCH   1  19
HETATM   19  C   UNL     1      41.620 -15.728   3.329  1.00  0.00     0.157 A 
HETATM   20  C   UNL     1      42.416 -16.908   3.239  1.00  0.00     0.029 A 
HETATM   21  C   UNL     1      42.428 -18.069   2.439  1.00  0.00     0.023 A 
HETATM   22  C   UNL     1      43.404 -16.751   4.203  1.00  0.00     0.063 A 
HETATM   23  C   UNL     1      43.435 -19.031   2.630  1.00  0.00    -0.061 A 
HETATM   24  C   UNL     1      43.471 -20.273   1.787  1.00  0.00     0.048 C 
HETATM   25  C   UNL     1      44.415 -18.829   3.610  1.00  0.00     0.009 A 
HETATM   26  C   UNL     1      44.419 -17.687   4.419  1.00  0.00     0.032 A 
HETATM   27  N   UNL     1      43.136 -15.552   4.803  1.00  0.00    -0.277 N 
HETATM   28  H   UNL     1      43.657 -15.116   5.556  1.00  0.00     0.189 HD
HETATM   29  N   UNL     1      42.072 -14.900   4.300  1.00  0.00    -0.168 NA
ENDBRANCH   1  19
TORSDOF 5
ENDMDL
MODEL 7
REMARK VINA RESULT:      -8.1      2.471      3.150
REMARK  5 active torsions:
REMARK  status: ('A' for Active; 'I' for Inactive)
REMARK    1  A    between atoms: C_9  and  C_10 
REMARK       I    between atoms: C_10  and  N_11 
REMARK    2  A    between atoms: N_11  and  C_12 
REMARK    3  A    between atoms: C_15  and  C_16 
REMARK    4  A    between atoms: C_16  and  C_17 
REMARK       I    between atoms: C_17  and  N_18 
REMARK    5  A    between atoms: N_18  and  C_19 
ROOT
HETATM    1  C   UNL     1      43.547 -14.725   6.747  1.00  0.00     0.277 C 
HETATM    2  N   UNL     1      44.147 -13.585   6.243  1.00  0.00    -0.322 N 
HETATM    3  O   UNL     1      42.927 -14.816   7.801  1.00  0.00    -0.266 OA
HETATM    4  H   UNL     1      44.627 -13.749   5.360  1.00  0.00     0.169 HD
ENDROOT
BRANCH   2   5
HETATM    5  C   UNL     1      44.001 -12.257   6.675  1.00  0.00     0.035 A 
HETATM    6  C   UNL     1      44.970 -11.559   7.396  1.00  0.00     0.030 A 
HETATM    7  C   UNL     1      44.689 -10.289   7.919  1.00  0.00     0.010 A 
HETATM    8  C   UNL     1      43.433  -9.701   7.728  1.00  0.00    -0.049 A 
HETATM    9  C   UNL     1      42.487 -10.374   6.945  1.00  0.00     0.010 A 
HETATM   10  C   UNL     1      42.772 -11.639   6.422  1.00  0.00     0.030 A 
BRANCH   8  11
HETATM   11  C   UNL     1      43.073  -8.404   8.414  1.00  0.00     0.141 C 
BRANCH  11  12
HETATM   12  C   UNL     1      42.300  -8.484   9.716  1.00  0.00     0.222 C 
HETATM   13  N   UNL     1      43.035  -8.700  10.859  1.00  0.00    -0.357 N 
HETATM   14  H   UNL     1      44.024  -8.894  10.765  1.00  0.00     0.162 HD
HETATM   15  O   UNL     1      41.088  -8.270   9.729  1.00  0.00    -0.273 OA
BRANCH  13  16
HETATM   16  C   UNL     1      42.479  -8.671  12.207  1.00  0.00     0.076 C 
HETATM   17  C   UNL     1      42.274 -10.079  12.766  1.00  0.00     0.032 C 
HETATM   18  C   UNL     1      43.288  -7.800  13.165  1.00  0.00     0.032 C 
ENDBRANCH  13  16
ENDBRANCH  11  12
ENDBRANCH   8  11
ENDBRANCH   2   5
BRANCH   1  19
HETATM   19  C   UNL     1      43.695 -15.864   5.817  1.00  0.00     0.157 A 
HETATM   20  C   UNL     1      42.919 -16.145   4.654  1.00  0.00     0.029 A 
HETATM   21  C   UNL     1      41.809 -15.565   4.007  1.00  0.00     0.023 A 
HETATM   22  C   UNL     1      43.510 -17.267   4.088  1.00  0.00     0.063 A 
HETATM   23  C   UNL     1      41.332 -16.127   2.810  1.00  0.00    -0.061 A 
HETATM   24  C   UNL     1      40.154 -15.524   2.101  1.00  0.00     0.048 C 
HETATM   25  C   UNL     1      41.963 -17.256   2.272  1.00  0.00     0.009 A 
HETATM   26  C   UNL     1      43.063 -17.851   2.900  1.00  0.00     0.032 A 
HETATM   27  N   UNL     1      44.542 -17.592   4.923  1.00  0.00    -0.277 N 
HETATM   28  H   UNL     1      45.193 -18.363   4.818  1.00  0.00     0.189 HD
HETATM   29  N   UNL     1      44.692 -16.766   5.975  1.00  0.00    -0.168 NA
ENDBRANCH   1  19
TORSDOF 5
ENDMDL
MODEL 8
REMARK VINA RESULT:      -8.1      6.280      9.786
REMARK  5 active torsions:
REMARK  status: ('A' for Active; 'I' for Inactive)
REMARK    1  A    between atoms: C_9  and  C_10 
REMARK       I    between atoms: C_10  and  N_11 
REMARK    2  A    between atoms: N_11  and  C_12 
REMARK    3  A    between atoms: C_15  and  C_16 
REMARK    4  A    between atoms: C_16  and  C_17 
REMARK       I    between atoms: C_17  and  N_18 
REMARK    5  A    between atoms: N_18  and  C_19 
ROOT
HETATM    1  C   UNL     1      42.625 -14.895   2.127  1.00  0.00     0.277 C 
HETATM    2  N   UNL     1      41.297 -15.016   1.757  1.00  0.00    -0.322 N 
HETATM    3  O   UNL     1      43.475 -14.208   1.571  1.00  0.00    -0.266 OA
HETATM    4  H   UNL     1      40.781 -15.661   2.351  1.00  0.00     0.169 HD
ENDROOT
BRANCH   2   5
HETATM    5  C   UNL     1      40.571 -14.238   0.843  1.00  0.00     0.035 A 
HETATM    6  C   UNL     1      39.910 -14.756  -0.272  1.00  0.00     0.030 A 
HETATM    7  C   UNL     1      39.334 -13.897  -1.218  1.00  0.00     0.010 A 
HETATM    8  C   UNL     1      39.411 -12.508  -1.061  1.00  0.00    -0.049 A 
HETATM    9  C   UNL     1      40.013 -11.994   0.093  1.00  0.00     0.010 A 
HETATM   10  C   UNL     1      40.585 -12.852   1.037  1.00  0.00     0.030 A 
BRANCH   8  11
HETATM   11  C   UNL     1      38.926 -11.578  -2.149  1.00  0.00     0.141 C 
BRANCH  11  12
HETATM   12  C   UNL     1      37.471 -11.151  -2.116  1.00  0.00     0.222 C 
HETATM   13  N   UNL     1      36.783 -11.209  -3.307  1.00  0.00    -0.357 N 
HETATM   14  H   UNL     1      37.299 -11.430  -4.150  1.00  0.00     0.162 HD
HETATM   15  O   UNL     1      36.935 -10.862  -1.047  1.00  0.00    -0.273 OA
BRANCH  13  16
HETATM   16  C   UNL     1      35.351 -10.967  -3.438  1.00  0.00     0.076 C 
HETATM   17  C   UNL     1      35.061  -9.645  -4.148  1.00  0.00     0.032 C 
HETATM   18  C   UNL     1      34.609 -12.130  -4.094  1.00  0.00     0.032 C 
ENDBRANCH  13  16
ENDBRANCH  11  12
ENDBRANCH   8  11
ENDBRANCH   2   5
BRANCH   1  19
HETATM   19  C   UNL     1      42.916 -15.678   3.346  1.00  0.00     0.157 A 
HETATM   20  C   UNL     1      43.244 -17.063   3.433  1.00  0.00     0.029 A 
HETATM   21  C   UNL     1      43.372 -18.137   2.528  1.00  0.00     0.023 A 
HETATM   22  C   UNL     1      43.510 -17.288   4.778  1.00  0.00     0.063 A 
HETATM   23  C   UNL     1      43.768 -19.400   3.003  1.00  0.00    -0.061 A 
HETATM   24  C   UNL     1      43.915 -20.557   2.058  1.00  0.00     0.048 C 
HETATM   25  C   UNL     1      44.031 -19.580   4.367  1.00  0.00     0.009 A 
HETATM   26  C   UNL     1      43.905 -18.529   5.283  1.00  0.00     0.032 A 
HETATM   27  N   UNL     1      43.308 -16.084   5.392  1.00  0.00    -0.277 N 
HETATM   28  H   UNL     1      43.411 -15.877   6.379  1.00  0.00     0.189 HD
HETATM   29  N   UNL     1      42.955 -15.085   4.562  1.00  0.00    -0.168 NA
ENDBRANCH   1  19
TORSDOF 5
ENDMDL
MODEL 9
REMARK VINA RESULT:      -8.1      2.037      2.735
REMARK  5 active torsions:
REMARK  status: ('A' for Active; 'I' for Inactive)
REMARK    1  A    between atoms: C_9  and  C_10 
REMARK       I    between atoms: C_10  and  N_11 
REMARK    2  A    between atoms: N_11  and  C_12 
REMARK    3  A    between atoms: C_15  and  C_16 
REMARK    4  A    between atoms: C_16  and  C_17 
REMARK       I    between atoms: C_17  and  N_18 
REMARK    5  A    between atoms: N_18  and  C_19 
ROOT
HETATM    1  C   UNL     1      42.691 -15.339   5.194  1.00  0.00     0.277 C 
HETATM    2  N   UNL     1      43.294 -14.105   5.023  1.00  0.00    -0.322 N 
HETATM    3  O   UNL     1      42.085 -15.720   6.188  1.00  0.00    -0.266 OA
HETATM    4  H   UNL     1      43.762 -14.016   4.123  1.00  0.00     0.169 HD
ENDROOT
BRANCH   2   5
HETATM    5  C   UNL     1      43.167 -12.953   5.814  1.00  0.00     0.035 A 
HETATM    6  C   UNL     1      42.069 -12.093   5.772  1.00  0.00     0.030 A 
HETATM    7  C   UNL     1      42.085 -10.885   6.483  1.00  0.00     0.010 A 
HETATM    8  C   UNL     1      43.201 -10.522   7.246  1.00  0.00    -0.049 A 
HETATM    9  C   UNL     1      44.272 -11.419   7.342  1.00  0.00     0.010 A 
HETATM   10  C   UNL     1      44.252 -12.624   6.635  1.00  0.00     0.030 A 
BRANCH   8  11
HETATM   11  C   UNL     1      43.286  -9.158   7.891  1.00  0.00     0.141 C 
BRANCH  11  12
HETATM   12  C   UNL     1      43.315  -9.094   9.406  1.00  0.00     0.222 C 
HETATM   13  N   UNL     1      42.281  -9.713  10.071  1.00  0.00    -0.357 N 
HETATM   14  H   UNL     1      41.513 -10.085   9.525  1.00  0.00     0.162 HD
HETATM   15  O   UNL     1      44.275  -8.586   9.986  1.00  0.00    -0.273 OA
BRANCH  13  16
HETATM   16  C   UNL     1      42.216  -9.868  11.520  1.00  0.00     0.076 C 
HETATM   17  C   UNL     1      43.340 -10.759  12.047  1.00  0.00     0.032 C 
HETATM   18  C   UNL     1      42.167  -8.532  12.258  1.00  0.00     0.032 C 
ENDBRANCH  13  16
ENDBRANCH  11  12
ENDBRANCH   8  11
ENDBRANCH   2   5
BRANCH   1  19
HETATM   19  C   UNL     1      42.817 -16.170   3.978  1.00  0.00     0.157 A 
HETATM   20  C   UNL     1      43.231 -17.532   3.895  1.00  0.00     0.029 A 
HETATM   21  C   UNL     1      43.676 -18.518   4.800  1.00  0.00     0.023 A 
HETATM   22  C   UNL     1      43.095 -17.870   2.554  1.00  0.00     0.063 A 
HETATM   23  C   UNL     1      43.964 -19.811   4.330  1.00  0.00    -0.061 A 
HETATM   24  C   UNL     1      44.435 -20.877   5.276  1.00  0.00     0.048 C 
HETATM   25  C   UNL     1      43.808 -20.108   2.970  1.00  0.00     0.009 A 
HETATM   26  C   UNL     1      43.373 -19.145   2.054  1.00  0.00     0.032 A 
HETATM   27  N   UNL     1      42.654 -16.733   1.938  1.00  0.00    -0.277 N 
HETATM   28  H   UNL     1      42.446 -16.613   0.953  1.00  0.00     0.189 HD
HETATM   29  N   UNL     1      42.466 -15.686   2.764  1.00  0.00    -0.168 NA
ENDBRANCH   1  19
TORSDOF 5
ENDMDL
MODEL 10
REMARK VINA RESULT:      -7.7      5.327     13.620
REMARK  5 active torsions:
REMARK  status: ('A' for Active; 'I' for Inactive)
REMARK    1  A    between atoms: C_9  and  C_10 
REMARK       I    between atoms: C_10  and  N_11 
REMARK    2  A    between atoms: N_11  and  C_12 
REMARK    3  A    between atoms: C_15  and  C_16 
REMARK    4  A    between atoms: C_16  and  C_17 
REMARK       I    between atoms: C_17  and  N_18 
REMARK    5  A    between atoms: N_18  and  C_19 
ROOT
HETATM    1  C   UNL     1      41.049  -5.854  16.009  1.00  0.00     0.277 C 
HETATM    2  N   UNL     1      42.176  -6.546  15.601  1.00  0.00    -0.322 N 
HETATM    3  O   UNL     1      39.984  -5.780  15.407  1.00  0.00    -0.266 OA
HETATM    4  H   UNL     1      42.954  -6.449  16.250  1.00  0.00     0.169 HD
ENDROOT
BRANCH   2   5
HETATM    5  C   UNL     1      42.298  -7.483  14.563  1.00  0.00     0.035 A 
HETATM    6  C   UNL     1      41.614  -8.698  14.522  1.00  0.00     0.030 A 
HETATM    7  C   UNL     1      41.904  -9.643  13.529  1.00  0.00     0.010 A 
HETATM    8  C   UNL     1      42.883  -9.385  12.562  1.00  0.00    -0.049 A 
HETATM    9  C   UNL     1      43.518  -8.137  12.564  1.00  0.00     0.010 A 
HETATM   10  C   UNL     1      43.224  -7.195  13.554  1.00  0.00     0.030 A 
BRANCH   8  11
HETATM   11  C   UNL     1      43.305 -10.455  11.583  1.00  0.00     0.141 C 
BRANCH  11  12
HETATM   12  C   UNL     1      43.502 -10.050  10.134  1.00  0.00     0.222 C 
HETATM   13  N   UNL     1      44.751 -10.264   9.597  1.00  0.00    -0.357 N 
HETATM   14  H   UNL     1      45.491 -10.579  10.212  1.00  0.00     0.162 HD
HETATM   15  O   UNL     1      42.549  -9.639   9.472  1.00  0.00    -0.273 OA
BRANCH  13  16
HETATM   16  C   UNL     1      45.082 -10.062   8.191  1.00  0.00     0.076 C 
HETATM   17  C   UNL     1      46.349  -9.225   8.022  1.00  0.00     0.032 C 
HETATM   18  C   UNL     1      45.167 -11.370   7.407  1.00  0.00     0.032 C 
ENDBRANCH  13  16
ENDBRANCH  11  12
ENDBRANCH   8  11
ENDBRANCH   2   5
BRANCH   1  19
HETATM   19  C   UNL     1      41.256  -5.225  17.330  1.00  0.00     0.157 A 
HETATM   20  C   UNL     1      40.926  -5.762  18.610  1.00  0.00     0.029 A 
HETATM   21  C   UNL     1      40.312  -6.935  19.095  1.00  0.00     0.023 A 
HETATM   22  C   UNL     1      41.398  -4.829  19.525  1.00  0.00     0.063 A 
HETATM   23  C   UNL     1      40.197  -7.135  20.481  1.00  0.00    -0.061 A 
HETATM   24  C   UNL     1      39.551  -8.378  21.020  1.00  0.00     0.048 C 
HETATM   25  C   UNL     1      40.692  -6.170  21.367  1.00  0.00     0.009 A 
HETATM   26  C   UNL     1      41.300  -4.996  20.909  1.00  0.00     0.032 A 
HETATM   27  N   UNL     1      41.933  -3.823  18.772  1.00  0.00    -0.277 N 
HETATM   28  H   UNL     1      42.371  -2.972  19.110  1.00  0.00     0.189 HD
HETATM   29  N   UNL     1      41.874  -4.026  17.442  1.00  0.00    -0.168 NA
ENDBRANCH   1  19
TORSDOF 5
ENDMDL
