MODEL 1
REMARK VINA RESULT:      -8.5      0.000      0.000
REMARK  5 active torsions:
REMARK  status: ('A' for Active; 'I' for Inactive)
REMARK    1  A    between atoms: C_8  and  N_9 
REMARK    2  A    between atoms: N_9  and  C_10 
REMARK    3  A    between atoms: C_10  and  C_11 
REMARK       I    between atoms: C_11  and  N_12 
REMARK    4  A    between atoms: N_12  and  N_13 
REMARK    5  A    between atoms: C_14  and  C_15 
ROOT
HETATM    1  C   UNL     1      41.582 -15.331   4.526  1.00  0.00     0.250 C 
HETATM    2  N   UNL     1      40.755 -15.780   3.495  1.00  0.00    -0.246 N 
HETATM    3  O   UNL     1      41.849 -14.153   4.758  1.00  0.00    -0.270 OA
HETATM    4  H   UNL     1      40.370 -16.718   3.558  1.00  0.00     0.192 HD
ENDROOT
BRANCH   2   5
HETATM    5  N   UNL     1      40.055 -14.979   2.624  1.00  0.00    -0.184 NA
HETATM    6  C   UNL     1      40.626 -14.607   1.523  1.00  0.00     0.153 C 
BRANCH   6   7
HETATM    7  C   UNL     1      39.921 -13.735   0.597  1.00  0.00     0.018 A 
HETATM    8  C   UNL     1      39.370 -14.035  -0.696  1.00  0.00     0.004 A 
HETATM    9  C   UNL     1      38.800 -12.860  -1.189  1.00  0.00     0.043 A 
HETATM   10  C   UNL     1      39.300 -15.191  -1.503  1.00  0.00     0.014 A 
HETATM   11  C   UNL     1      38.169 -12.783  -2.438  1.00  0.00     0.030 A 
HETATM   12  N   UNL     1      38.987 -11.888  -0.237  1.00  0.00    -0.358 N 
HETATM   13  C   UNL     1      38.117 -13.944  -3.212  1.00  0.00     0.002 A 
HETATM   14  C   UNL     1      38.675 -15.134  -2.753  1.00  0.00     0.001 A 
HETATM   15  H   UNL     1      38.667 -10.934  -0.331  1.00  0.00     0.166 HD
HETATM   16  C   UNL     1      39.660 -12.393   0.845  1.00  0.00     0.018 A 
HETATM   17  C   UNL     1      39.985 -11.540   2.019  1.00  0.00     0.069 C 
ENDBRANCH   6   7
ENDBRANCH   2   5
BRANCH   1  18
HETATM   18  C   UNL     1      42.150 -16.481   5.373  1.00  0.00     0.197 C 
BRANCH  18  19
HETATM   19  N   UNL     1      43.539 -16.784   4.983  1.00  0.00    -0.284 NA
HETATM   20  H   UNL     1      44.195 -16.497   5.707  1.00  0.00     0.128 HD
BRANCH  19  21
HETATM   21  C   UNL     1      43.722 -18.139   4.629  1.00  0.00     0.016 A 
HETATM   22  C   UNL     1      43.634 -18.571   3.287  1.00  0.00    -0.019 A 
HETATM   23  C   UNL     1      43.481 -17.580   2.161  1.00  0.00     0.052 C 
HETATM   24  C   UNL     1      43.699 -19.952   3.018  1.00  0.00     0.041 A 
HETATM   25 CL   UNL     1      43.555 -20.574   1.409  1.00  0.00    -0.084 Cl
HETATM   26  C   UNL     1      43.874 -20.880   4.047  1.00  0.00     0.024 A 
HETATM   27  C   UNL     1      43.977 -20.448   5.364  1.00  0.00     0.003 A 
HETATM   28  C   UNL     1      43.892 -19.087   5.653  1.00  0.00     0.024 A 
ENDBRANCH  19  21
ENDBRANCH  18  19
ENDBRANCH   1  18
TORSDOF 5
ENDMDL
MODEL 2
REMARK VINA RESULT:      -8.4      3.275      8.899
REMARK  5 active torsions:
REMARK  status: ('A' for Active; 'I' for Inactive)
REMARK    1  A    between atoms: C_8  and  N_9 
REMARK    2  A    between atoms: N_9  and  C_10 
REMARK    3  A    between atoms: C_10  and  C_11 
REMARK       I    between atoms: C_11  and  N_12 
REMARK    4  A    between atoms: N_12  and  N_13 
REMARK    5  A    between atoms: C_14  and  C_15 
ROOT
HETATM    1  C   UNL     1      41.086 -14.336   0.755  1.00  0.00     0.250 C 
HETATM    2  N   UNL     1      42.398 -14.597   1.154  1.00  0.00    -0.246 N 
HETATM    3  O   UNL     1      40.133 -15.095   0.915  1.00  0.00    -0.270 OA
HETATM    4  H   UNL     1      43.040 -13.815   1.242  1.00  0.00     0.192 HD
ENDROOT
BRANCH   2   5
HETATM    5  N   UNL     1      42.817 -15.707   1.848  1.00  0.00    -0.184 NA
HETATM    6  C   UNL     1      42.895 -15.642   3.140  1.00  0.00     0.153 C 
BRANCH   6   7
HETATM    7  C   UNL     1      43.363 -16.791   3.898  1.00  0.00     0.018 A 
HETATM    8  C   UNL     1      43.466 -18.167   3.498  1.00  0.00     0.004 A 
HETATM    9  C   UNL     1      43.966 -18.882   4.587  1.00  0.00     0.043 A 
HETATM   10  C   UNL     1      43.182 -18.881   2.314  1.00  0.00     0.014 A 
HETATM   11  C   UNL     1      44.194 -20.264   4.554  1.00  0.00     0.030 A 
HETATM   12  N   UNL     1      44.166 -17.983   5.606  1.00  0.00    -0.358 N 
HETATM   13  C   UNL     1      43.902 -20.942   3.368  1.00  0.00     0.002 A 
HETATM   14  C   UNL     1      43.402 -20.262   2.261  1.00  0.00     0.001 A 
HETATM   15  H   UNL     1      44.529 -18.229   6.516  1.00  0.00     0.166 HD
HETATM   16  C   UNL     1      43.809 -16.719   5.212  1.00  0.00     0.018 A 
HETATM   17  C   UNL     1      43.935 -15.559   6.135  1.00  0.00     0.069 C 
ENDBRANCH   6   7
ENDBRANCH   2   5
BRANCH   1  18
HETATM   18  C   UNL     1      40.936 -12.966   0.072  1.00  0.00     0.197 C 
BRANCH  18  19
HETATM   19  N   UNL     1      40.903 -13.112  -1.394  1.00  0.00    -0.284 NA
HETATM   20  H   UNL     1      41.111 -14.069  -1.674  1.00  0.00     0.128 HD
BRANCH  19  21
HETATM   21  C   UNL     1      39.689 -12.661  -1.958  1.00  0.00     0.016 A 
HETATM   22  C   UNL     1      39.581 -11.386  -2.556  1.00  0.00    -0.019 A 
HETATM   23  C   UNL     1      40.793 -10.509  -2.742  1.00  0.00     0.052 C 
HETATM   24  C   UNL     1      38.312 -10.948  -2.984  1.00  0.00     0.041 A 
HETATM   25 CL   UNL     1      38.078  -9.383  -3.685  1.00  0.00    -0.084 Cl
HETATM   26  C   UNL     1      37.185 -11.762  -2.850  1.00  0.00     0.024 A 
HETATM   27  C   UNL     1      37.301 -13.023  -2.277  1.00  0.00     0.003 A 
HETATM   28  C   UNL     1      38.544 -13.465  -1.826  1.00  0.00     0.024 A 
ENDBRANCH  19  21
ENDBRANCH  18  19
ENDBRANCH   1  18
TORSDOF 5
ENDMDL
MODEL 3
REMARK VINA RESULT:      -8.3      6.458      9.232
REMARK  5 active torsions:
REMARK  status: ('A' for Active; 'I' for Inactive)
REMARK    1  A    between atoms: C_8  and  N_9 
REMARK    2  A    between atoms: N_9  and  C_10 
REMARK    3  A    between atoms: C_10  and  C_11 
REMARK       I    between atoms: C_11  and  N_12 
REMARK    4  A    between atoms: N_12  and  N_13 
REMARK    5  A    between atoms: C_14  and  C_15 
ROOT
HETATM    1  C   UNL     1      44.872 -11.632   6.704  1.00  0.00     0.250 C 
HETATM    2  N   UNL     1      44.074 -12.776   6.747  1.00  0.00    -0.246 N 
HETATM    3  O   UNL     1      45.360 -11.146   5.686  1.00  0.00    -0.270 OA
HETATM    4  H   UNL     1      43.493 -12.931   7.566  1.00  0.00     0.192 HD
ENDROOT
BRANCH   2   5
HETATM    5  N   UNL     1      43.652 -13.498   5.656  1.00  0.00    -0.184 NA
HETATM    6  C   UNL     1      43.056 -14.632   5.850  1.00  0.00     0.153 C 
BRANCH   6   7
HETATM    7  C   UNL     1      42.624 -15.431   4.714  1.00  0.00     0.018 A 
HETATM    8  C   UNL     1      43.141 -16.681   4.230  1.00  0.00     0.004 A 
HETATM    9  C   UNL     1      42.391 -17.036   3.108  1.00  0.00     0.043 A 
HETATM   10  C   UNL     1      44.178 -17.550   4.634  1.00  0.00     0.014 A 
HETATM   11  C   UNL     1      42.623 -18.207   2.374  1.00  0.00     0.030 A 
HETATM   12  N   UNL     1      41.453 -16.051   2.918  1.00  0.00    -0.358 N 
HETATM   13  C   UNL     1      43.657 -19.045   2.797  1.00  0.00     0.002 A 
HETATM   14  C   UNL     1      44.425 -18.724   3.913  1.00  0.00     0.001 A 
HETATM   15  H   UNL     1      40.769 -16.056   2.175  1.00  0.00     0.166 HD
HETATM   16  C   UNL     1      41.577 -15.075   3.874  1.00  0.00     0.018 A 
HETATM   17  C   UNL     1      40.672 -13.895   3.892  1.00  0.00     0.069 C 
ENDBRANCH   6   7
ENDBRANCH   2   5
BRANCH   1  18
HETATM   18  C   UNL     1      45.093 -11.013   8.094  1.00  0.00     0.197 C 
BRANCH  18  19
HETATM   19  N   UNL     1      43.840 -11.007   8.871  1.00  0.00    -0.284 NA
HETATM   20  H   UNL     1      43.800 -11.798   9.511  1.00  0.00     0.128 HD
BRANCH  19  21
HETATM   21  C   UNL     1      43.625  -9.785   9.547  1.00  0.00     0.016 A 
HETATM   22  C   UNL     1      43.483  -9.733  10.951  1.00  0.00    -0.019 A 
HETATM   23  C   UNL     1      43.695 -10.961  11.800  1.00  0.00     0.052 C 
HETATM   24  C   UNL     1      43.144  -8.504  11.549  1.00  0.00     0.041 A 
HETATM   25 CL   UNL     1      42.905  -8.357  13.257  1.00  0.00    -0.084 Cl
HETATM   26  C   UNL     1      42.977  -7.349  10.780  1.00  0.00     0.024 A 
HETATM   27  C   UNL     1      43.136  -7.403   9.400  1.00  0.00     0.003 A 
HETATM   28  C   UNL     1      43.449  -8.616   8.788  1.00  0.00     0.024 A 
ENDBRANCH  19  21
ENDBRANCH  18  19
ENDBRANCH   1  18
TORSDOF 5
ENDMDL
MODEL 4
REMARK VINA RESULT:      -8.3      4.514      7.058
REMARK  5 active torsions:
REMARK  status: ('A' for Active; 'I' for Inactive)
REMARK    1  A    between atoms: C_8  and  N_9 
REMARK    2  A    between atoms: N_9  and  C_10 
REMARK    3  A    between atoms: C_10  and  C_11 
REMARK       I    between atoms: C_11  and  N_12 
REMARK    4  A    between atoms: N_12  and  N_13 
REMARK    5  A    between atoms: C_14  and  C_15 
ROOT
HETATM    1  C   UNL     1      41.476 -14.855   4.004  1.00  0.00     0.250 C 
HETATM    2  N   UNL     1      42.521 -14.584   4.890  1.00  0.00    -0.246 N 
HETATM    3  O   UNL     1      40.419 -14.231   3.945  1.00  0.00    -0.270 OA
HETATM    4  H   UNL     1      43.443 -14.952   4.676  1.00  0.00     0.192 HD
ENDROOT
BRANCH   2   5
HETATM    5  N   UNL     1      42.562 -13.540   5.784  1.00  0.00    -0.184 NA
HETATM    6  C   UNL     1      42.944 -12.376   5.365  1.00  0.00     0.153 C 
BRANCH   6   7
HETATM    7  C   UNL     1      43.025 -11.260   6.295  1.00  0.00     0.018 A 
HETATM    8  C   UNL     1      44.170 -10.725   6.979  1.00  0.00     0.004 A 
HETATM    9  C   UNL     1      43.727  -9.660   7.763  1.00  0.00     0.043 A 
HETATM   10  C   UNL     1      45.545 -11.042   7.011  1.00  0.00     0.014 A 
HETATM   11  C   UNL     1      44.582  -8.900   8.574  1.00  0.00     0.030 A 
HETATM   12  N   UNL     1      42.373  -9.543   7.563  1.00  0.00    -0.358 N 
HETATM   13  C   UNL     1      45.936  -9.240   8.586  1.00  0.00     0.002 A 
HETATM   14  C   UNL     1      46.415 -10.296   7.815  1.00  0.00     0.001 A 
HETATM   15  H   UNL     1      41.792  -8.846   8.007  1.00  0.00     0.166 HD
HETATM   16  C   UNL     1      41.930 -10.498   6.683  1.00  0.00     0.018 A 
HETATM   17  C   UNL     1      40.498 -10.583   6.295  1.00  0.00     0.069 C 
ENDBRANCH   6   7
ENDBRANCH   2   5
BRANCH   1  18
HETATM   18  C   UNL     1      41.779 -16.044   3.079  1.00  0.00     0.197 C 
BRANCH  18  19
HETATM   19  N   UNL     1      43.176 -16.488   3.234  1.00  0.00    -0.284 NA
HETATM   20  H   UNL     1      43.604 -16.075   4.062  1.00  0.00     0.128 HD
BRANCH  19  21
HETATM   21  C   UNL     1      43.304 -17.895   3.236  1.00  0.00     0.016 A 
HETATM   22  C   UNL     1      43.743 -18.595   4.381  1.00  0.00    -0.019 A 
HETATM   23  C   UNL     1      43.961 -17.883   5.692  1.00  0.00     0.052 C 
HETATM   24  C   UNL     1      43.971 -19.981   4.277  1.00  0.00     0.041 A 
HETATM   25 CL   UNL     1      44.554 -20.912   5.615  1.00  0.00    -0.084 Cl
HETATM   26  C   UNL     1      43.742 -20.662   3.078  1.00  0.00     0.024 A 
HETATM   27  C   UNL     1      43.292 -19.970   1.959  1.00  0.00     0.003 A 
HETATM   28  C   UNL     1      43.084 -18.594   2.037  1.00  0.00     0.024 A 
ENDBRANCH  19  21
ENDBRANCH  18  19
ENDBRANCH   1  18
TORSDOF 5
ENDMDL
MODEL 5
REMARK VINA RESULT:      -8.1      2.293      8.124
REMARK  5 active torsions:
REMARK  status: ('A' for Active; 'I' for Inactive)
REMARK    1  A    between atoms: C_8  and  N_9 
REMARK    2  A    between atoms: N_9  and  C_10 
REMARK    3  A    between atoms: C_10  and  C_11 
REMARK       I    between atoms: C_11  and  N_12 
REMARK    4  A    between atoms: N_12  and  N_13 
REMARK    5  A    between atoms: C_14  and  C_15 
ROOT
HETATM    1  C   UNL     1      39.587 -12.784   3.139  1.00  0.00     0.250 C 
HETATM    2  N   UNL     1      40.179 -13.928   2.601  1.00  0.00    -0.246 N 
HETATM    3  O   UNL     1      39.509 -12.525   4.338  1.00  0.00    -0.270 OA
HETATM    4  H   UNL     1      40.449 -13.917   1.622  1.00  0.00     0.192 HD
ENDROOT
BRANCH   2   5
HETATM    5  N   UNL     1      40.826 -14.907   3.317  1.00  0.00    -0.184 NA
HETATM    6  C   UNL     1      42.085 -15.113   3.095  1.00  0.00     0.153 C 
BRANCH   6   7
HETATM    7  C   UNL     1      42.788 -16.162   3.817  1.00  0.00     0.018 A 
HETATM    8  C   UNL     1      43.092 -17.505   3.407  1.00  0.00     0.004 A 
HETATM    9  C   UNL     1      43.776 -18.117   4.458  1.00  0.00     0.043 A 
HETATM   10  C   UNL     1      42.851 -18.266   2.243  1.00  0.00     0.014 A 
HETATM   11  C   UNL     1      44.228 -19.443   4.405  1.00  0.00     0.030 A 
HETATM   12  N   UNL     1      43.892 -17.189   5.463  1.00  0.00    -0.358 N 
HETATM   13  C   UNL     1      43.973 -20.170   3.241  1.00  0.00     0.002 A 
HETATM   14  C   UNL     1      43.294 -19.592   2.172  1.00  0.00     0.001 A 
HETATM   15  H   UNL     1      44.351 -17.363   6.346  1.00  0.00     0.166 HD
HETATM   16  C   UNL     1      43.303 -16.005   5.098  1.00  0.00     0.018 A 
HETATM   17  C   UNL     1      43.296 -14.833   6.014  1.00  0.00     0.069 C 
ENDBRANCH   6   7
ENDBRANCH   2   5
BRANCH   1  18
HETATM   18  C   UNL     1      39.023 -11.846   2.059  1.00  0.00     0.197 C 
BRANCH  18  19
HETATM   19  N   UNL     1      39.745 -12.018   0.785  1.00  0.00    -0.284 NA
HETATM   20  H   UNL     1      40.410 -12.789   0.840  1.00  0.00     0.128 HD
BRANCH  19  21
HETATM   21  C   UNL     1      38.875 -12.164  -0.318  1.00  0.00     0.016 A 
HETATM   22  C   UNL     1      38.926 -13.302  -1.153  1.00  0.00    -0.019 A 
HETATM   23  C   UNL     1      39.817 -14.472  -0.819  1.00  0.00     0.052 C 
HETATM   24  C   UNL     1      38.121 -13.327  -2.308  1.00  0.00     0.041 A 
HETATM   25 CL   UNL     1      38.153 -14.659  -3.413  1.00  0.00    -0.084 Cl
HETATM   26  C   UNL     1      37.266 -12.265  -2.614  1.00  0.00     0.024 A 
HETATM   27  C   UNL     1      37.207 -11.156  -1.779  1.00  0.00     0.003 A 
HETATM   28  C   UNL     1      38.013 -11.103  -0.643  1.00  0.00     0.024 A 
ENDBRANCH  19  21
ENDBRANCH  18  19
ENDBRANCH   1  18
TORSDOF 5
ENDMDL
MODEL 6
REMARK VINA RESULT:      -8.1      5.227      7.815
REMARK  5 active torsions:
REMARK  status: ('A' for Active; 'I' for Inactive)
REMARK    1  A    between atoms: C_8  and  N_9 
REMARK    2  A    between atoms: N_9  and  C_10 
REMARK    3  A    between atoms: C_10  and  C_11 
REMARK       I    between atoms: C_11  and  N_12 
REMARK    4  A    between atoms: N_12  and  N_13 
REMARK    5  A    between atoms: C_14  and  C_15 
ROOT
HETATM    1  C   UNL     1      43.535 -15.292   6.946  1.00  0.00     0.250 C 
HETATM    2  N   UNL     1      43.839 -13.991   6.541  1.00  0.00    -0.246 N 
HETATM    3  O   UNL     1      42.757 -15.588   7.850  1.00  0.00    -0.270 OA
HETATM    4  H   UNL     1      44.253 -13.855   5.623  1.00  0.00     0.192 HD
ENDROOT
BRANCH   2   5
HETATM    5  N   UNL     1      43.268 -12.844   7.038  1.00  0.00    -0.184 NA
HETATM    6  C   UNL     1      43.960 -11.749   7.033  1.00  0.00     0.153 C 
BRANCH   6   7
HETATM    7  C   UNL     1      43.393 -10.527   7.579  1.00  0.00     0.018 A 
HETATM    8  C   UNL     1      43.574  -9.939   8.877  1.00  0.00     0.004 A 
HETATM    9  C   UNL     1      42.811  -8.771   8.917  1.00  0.00     0.043 A 
HETATM   10  C   UNL     1      44.313 -10.284  10.030  1.00  0.00     0.014 A 
HETATM   11  C   UNL     1      42.748  -7.937  10.041  1.00  0.00     0.030 A 
HETATM   12  N   UNL     1      42.195  -8.647   7.695  1.00  0.00    -0.358 N 
HETATM   13  C   UNL     1      43.489  -8.307  11.166  1.00  0.00     0.002 A 
HETATM   14  C   UNL     1      44.262  -9.464  11.163  1.00  0.00     0.001 A 
HETATM   15  H   UNL     1      41.582  -7.884   7.444  1.00  0.00     0.166 HD
HETATM   16  C   UNL     1      42.531  -9.694   6.875  1.00  0.00     0.018 A 
HETATM   17  C   UNL     1      41.997  -9.791   5.491  1.00  0.00     0.069 C 
ENDBRANCH   6   7
ENDBRANCH   2   5
BRANCH   1  18
HETATM   18  C   UNL     1      44.287 -16.356   6.131  1.00  0.00     0.197 C 
BRANCH  18  19
HETATM   19  N   UNL     1      43.507 -16.759   4.947  1.00  0.00    -0.284 NA
HETATM   20  H   UNL     1      43.692 -16.142   4.157  1.00  0.00     0.128 HD
BRANCH  19  21
HETATM   21  C   UNL     1      43.705 -18.114   4.600  1.00  0.00     0.016 A 
HETATM   22  C   UNL     1      43.616 -18.554   3.260  1.00  0.00    -0.019 A 
HETATM   23  C   UNL     1      43.445 -17.571   2.129  1.00  0.00     0.052 C 
HETATM   24  C   UNL     1      43.696 -19.935   2.998  1.00  0.00     0.041 A 
HETATM   25 CL   UNL     1      43.551 -20.568   1.393  1.00  0.00    -0.084 Cl
HETATM   26  C   UNL     1      43.888 -20.856   4.031  1.00  0.00     0.024 A 
HETATM   27  C   UNL     1      43.993 -20.415   5.346  1.00  0.00     0.003 A 
HETATM   28  C   UNL     1      43.893 -19.053   5.628  1.00  0.00     0.024 A 
ENDBRANCH  19  21
ENDBRANCH  18  19
ENDBRANCH   1  18
TORSDOF 5
ENDMDL
MODEL 7
REMARK VINA RESULT:      -8.0      2.285      3.669
REMARK  5 active torsions:
REMARK  status: ('A' for Active; 'I' for Inactive)
REMARK    1  A    between atoms: C_8  and  N_9 
REMARK    2  A    between atoms: N_9  and  C_10 
REMARK    3  A    between atoms: C_10  and  C_11 
REMARK       I    between atoms: C_11  and  N_12 
REMARK    4  A    between atoms: N_12  and  N_13 
REMARK    5  A    between atoms: C_14  and  C_15 
ROOT
HETATM    1  C   UNL     1      41.369 -15.265   1.350  1.00  0.00     0.250 C 
HETATM    2  N   UNL     1      41.228 -14.414   0.252  1.00  0.00    -0.246 N 
HETATM    3  O   UNL     1      40.441 -15.733   2.006  1.00  0.00    -0.270 OA
HETATM    4  H   UNL     1      42.012 -14.316  -0.386  1.00  0.00     0.192 HD
ENDROOT
BRANCH   2   5
HETATM    5  N   UNL     1      40.036 -14.023  -0.310  1.00  0.00    -0.184 NA
HETATM    6  C   UNL     1      40.060 -13.277  -1.368  1.00  0.00     0.153 C 
BRANCH   6   7
HETATM    7  C   UNL     1      38.815 -12.824  -1.968  1.00  0.00     0.018 A 
HETATM    8  C   UNL     1      38.117 -11.582  -1.788  1.00  0.00     0.004 A 
HETATM    9  C   UNL     1      36.966 -11.633  -2.577  1.00  0.00     0.043 A 
HETATM   10  C   UNL     1      38.346 -10.413  -1.030  1.00  0.00     0.014 A 
HETATM   11  C   UNL     1      36.040 -10.583  -2.645  1.00  0.00     0.030 A 
HETATM   12  N   UNL     1      36.965 -12.849  -3.215  1.00  0.00    -0.358 N 
HETATM   13  C   UNL     1      36.295  -9.442  -1.882  1.00  0.00     0.002 A 
HETATM   14  C   UNL     1      37.432  -9.355  -1.085  1.00  0.00     0.001 A 
HETATM   15  H   UNL     1      36.245 -13.151  -3.857  1.00  0.00     0.166 HD
HETATM   16  C   UNL     1      38.069 -13.582  -2.862  1.00  0.00     0.018 A 
HETATM   17  C   UNL     1      38.304 -14.939  -3.421  1.00  0.00     0.069 C 
ENDBRANCH   6   7
ENDBRANCH   2   5
BRANCH   1  18
HETATM   18  C   UNL     1      42.839 -15.572   1.675  1.00  0.00     0.197 C 
BRANCH  18  19
HETATM   19  N   UNL     1      43.060 -17.026   1.784  1.00  0.00    -0.284 NA
HETATM   20  H   UNL     1      43.730 -17.349   1.087  1.00  0.00     0.128 HD
BRANCH  19  21
HETATM   21  C   UNL     1      43.436 -17.424   3.086  1.00  0.00     0.016 A 
HETATM   22  C   UNL     1      43.696 -18.776   3.399  1.00  0.00    -0.019 A 
HETATM   23  C   UNL     1      43.718 -19.833   2.323  1.00  0.00     0.052 C 
HETATM   24  C   UNL     1      43.941 -19.122   4.742  1.00  0.00     0.041 A 
HETATM   25 CL   UNL     1      44.223 -20.761   5.224  1.00  0.00    -0.084 Cl
HETATM   26  C   UNL     1      43.957 -18.151   5.746  1.00  0.00     0.024 A 
HETATM   27  C   UNL     1      43.719 -16.818   5.428  1.00  0.00     0.003 A 
HETATM   28  C   UNL     1      43.451 -16.460   4.108  1.00  0.00     0.024 A 
ENDBRANCH  19  21
ENDBRANCH  18  19
ENDBRANCH   1  18
TORSDOF 5
ENDMDL
MODEL 8
REMARK VINA RESULT:      -8.0      3.853      8.792
REMARK  5 active torsions:
REMARK  status: ('A' for Active; 'I' for Inactive)
REMARK    1  A    between atoms: C_8  and  N_9 
REMARK    2  A    between atoms: N_9  and  C_10 
REMARK    3  A    between atoms: C_10  and  C_11 
REMARK       I    between atoms: C_11  and  N_12 
REMARK    4  A    between atoms: N_12  and  N_13 
REMARK    5  A    between atoms: C_14  and  C_15 
ROOT
HETATM    1  C   UNL     1      42.496 -11.429   2.692  1.00  0.00     0.250 C 
HETATM    2  N   UNL     1      42.134 -12.775   2.619  1.00  0.00    -0.246 N 
HETATM    3  O   UNL     1      43.473 -10.990   3.295  1.00  0.00    -0.270 OA
HETATM    4  H   UNL     1      41.501 -13.067   1.880  1.00  0.00     0.192 HD
ENDROOT
BRANCH   2   5
HETATM    5  N   UNL     1      42.847 -13.825   3.149  1.00  0.00    -0.184 NA
HETATM    6  C   UNL     1      42.219 -14.919   3.444  1.00  0.00     0.153 C 
BRANCH   6   7
HETATM    7  C   UNL     1      42.941 -16.035   4.033  1.00  0.00     0.018 A 
HETATM    8  C   UNL     1      43.150 -17.360   3.517  1.00  0.00     0.004 A 
HETATM    9  C   UNL     1      43.901 -18.061   4.461  1.00  0.00     0.043 A 
HETATM   10  C   UNL     1      42.773 -18.037   2.337  1.00  0.00     0.014 A 
HETATM   11  C   UNL     1      44.292 -19.396   4.287  1.00  0.00     0.030 A 
HETATM   12  N   UNL     1      44.147 -17.203   5.504  1.00  0.00    -0.358 N 
HETATM   13  C   UNL     1      43.902 -20.039   3.110  1.00  0.00     0.002 A 
HETATM   14  C   UNL     1      43.152 -19.371   2.146  1.00  0.00     0.001 A 
HETATM   15  H   UNL     1      44.677 -17.449   6.328  1.00  0.00     0.166 HD
HETATM   16  C   UNL     1      43.577 -15.978   5.267  1.00  0.00     0.018 A 
HETATM   17  C   UNL     1      43.702 -14.867   6.247  1.00  0.00     0.069 C 
ENDBRANCH   6   7
ENDBRANCH   2   5
BRANCH   1  18
HETATM   18  C   UNL     1      41.529 -10.515   1.922  1.00  0.00     0.197 C 
BRANCH  18  19
HETATM   19  N   UNL     1      42.239  -9.771   0.866  1.00  0.00    -0.284 NA
HETATM   20  H   UNL     1      43.237  -9.974   0.881  1.00  0.00     0.128 HD
BRANCH  19  21
HETATM   21  C   UNL     1      41.687  -9.987  -0.416  1.00  0.00     0.016 A 
HETATM   22  C   UNL     1      41.951  -9.110  -1.492  1.00  0.00    -0.019 A 
HETATM   23  C   UNL     1      42.945  -7.985  -1.351  1.00  0.00     0.052 C 
HETATM   24  C   UNL     1      41.269  -9.311  -2.708  1.00  0.00     0.041 A 
HETATM   25 CL   UNL     1      41.495  -8.258  -4.063  1.00  0.00    -0.084 Cl
HETATM   26  C   UNL     1      40.370 -10.369  -2.865  1.00  0.00     0.024 A 
HETATM   27  C   UNL     1      40.128 -11.239  -1.808  1.00  0.00     0.003 A 
HETATM   28  C   UNL     1      40.776 -11.043  -0.590  1.00  0.00     0.024 A 
ENDBRANCH  19  21
ENDBRANCH  18  19
ENDBRANCH   1  18
TORSDOF 5
ENDMDL
MODEL 9
REMARK VINA RESULT:      -7.9      3.425      8.691
REMARK  5 active torsions:
REMARK  status: ('A' for Active; 'I' for Inactive)
REMARK    1  A    between atoms: C_8  and  N_9 
REMARK    2  A    between atoms: N_9  and  C_10 
REMARK    3  A    between atoms: C_10  and  C_11 
REMARK       I    between atoms: C_11  and  N_12 
REMARK    4  A    between atoms: N_12  and  N_13 
REMARK    5  A    between atoms: C_14  and  C_15 
ROOT
HETATM    1  C   UNL     1      40.057 -14.009   1.323  1.00  0.00     0.250 C 
HETATM    2  N   UNL     1      40.836 -15.139   1.072  1.00  0.00    -0.246 N 
HETATM    3  O   UNL     1      39.628 -13.675   2.425  1.00  0.00    -0.270 OA
HETATM    4  H   UNL     1      41.373 -15.175   0.211  1.00  0.00     0.192 HD
ENDROOT
BRANCH   2   5
HETATM    5  N   UNL     1      41.304 -16.015   2.023  1.00  0.00    -0.184 NA
HETATM    6  C   UNL     1      42.544 -15.936   2.389  1.00  0.00     0.153 C 
BRANCH   6   7
HETATM    7  C   UNL     1      43.074 -16.869   3.371  1.00  0.00     0.018 A 
HETATM    8  C   UNL     1      43.352 -18.272   3.238  1.00  0.00     0.004 A 
HETATM    9  C   UNL     1      43.842 -18.718   4.466  1.00  0.00     0.043 A 
HETATM   10  C   UNL     1      43.234 -19.213   2.193  1.00  0.00     0.014 A 
HETATM   11  C   UNL     1      44.217 -20.047   4.701  1.00  0.00     0.030 A 
HETATM   12  N   UNL     1      43.869 -17.635   5.310  1.00  0.00    -0.358 N 
HETATM   13  C   UNL     1      44.088 -20.955   3.648  1.00  0.00     0.002 A 
HETATM   14  C   UNL     1      43.603 -20.546   2.408  1.00  0.00     0.001 A 
HETATM   15  H   UNL     1      44.187 -17.671   6.269  1.00  0.00     0.166 HD
HETATM   16  C   UNL     1      43.410 -16.512   4.671  1.00  0.00     0.018 A 
HETATM   17  C   UNL     1      43.343 -15.200   5.369  1.00  0.00     0.069 C 
ENDBRANCH   6   7
ENDBRANCH   2   5
BRANCH   1  18
HETATM   18  C   UNL     1      39.774 -13.192   0.051  1.00  0.00     0.197 C 
BRANCH  18  19
HETATM   19  N   UNL     1      41.032 -12.785  -0.602  1.00  0.00    -0.284 NA
HETATM   20  H   UNL     1      41.170 -13.286  -1.478  1.00  0.00     0.128 HD
BRANCH  19  21
HETATM   21  C   UNL     1      41.121 -11.388  -0.787  1.00  0.00     0.016 A 
HETATM   22  C   UNL     1      41.123 -10.812  -2.077  1.00  0.00    -0.019 A 
HETATM   23  C   UNL     1      40.889 -11.656  -3.305  1.00  0.00     0.052 C 
HETATM   24  C   UNL     1      41.343  -9.427  -2.197  1.00  0.00     0.041 A 
HETATM   25 CL   UNL     1      41.408  -8.644  -3.740  1.00  0.00    -0.084 Cl
HETATM   26  C   UNL     1      41.528  -8.625  -1.067  1.00  0.00     0.024 A 
HETATM   27  C   UNL     1      41.507  -9.195   0.201  1.00  0.00     0.003 A 
HETATM   28  C   UNL     1      41.313 -10.568   0.338  1.00  0.00     0.024 A 
ENDBRANCH  19  21
ENDBRANCH  18  19
ENDBRANCH   1  18
TORSDOF 5
ENDMDL
MODEL 10
REMARK VINA RESULT:      -7.9      6.852      9.553
REMARK  5 active torsions:
REMARK  status: ('A' for Active; 'I' for Inactive)
REMARK    1  A    between atoms: C_8  and  N_9 
REMARK    2  A    between atoms: N_9  and  C_10 
REMARK    3  A    between atoms: C_10  and  C_11 
REMARK       I    between atoms: C_11  and  N_12 
REMARK    4  A    between atoms: N_12  and  N_13 
REMARK    5  A    between atoms: C_14  and  C_15 
ROOT
HETATM    1  C   UNL     1      44.883 -11.174   7.704  1.00  0.00     0.250 C 
HETATM    2  N   UNL     1      43.929 -12.173   7.504  1.00  0.00    -0.246 N 
HETATM    3  O   UNL     1      45.992 -11.138   7.174  1.00  0.00    -0.270 OA
HETATM    4  H   UNL     1      42.963 -11.973   7.747  1.00  0.00     0.192 HD
ENDROOT
BRANCH   2   5
HETATM    5  N   UNL     1      44.048 -13.231   6.634  1.00  0.00    -0.184 NA
HETATM    6  C   UNL     1      43.065 -14.068   6.533  1.00  0.00     0.153 C 
BRANCH   6   7
HETATM    7  C   UNL     1      43.175 -15.213   5.643  1.00  0.00     0.018 A 
HETATM    8  C   UNL     1      43.131 -15.260   4.208  1.00  0.00     0.004 A 
HETATM    9  C   UNL     1      43.274 -16.595   3.829  1.00  0.00     0.043 A 
HETATM   10  C   UNL     1      42.981 -14.296   3.187  1.00  0.00     0.014 A 
HETATM   11  C   UNL     1      43.275 -17.014   2.492  1.00  0.00     0.030 A 
HETATM   12  N   UNL     1      43.407 -17.332   4.980  1.00  0.00    -0.358 N 
HETATM   13  C   UNL     1      43.124 -16.037   1.505  1.00  0.00     0.002 A 
HETATM   14  C   UNL     1      42.979 -14.695   1.845  1.00  0.00     0.001 A 
HETATM   15  H   UNL     1      43.531 -18.335   5.001  1.00  0.00     0.166 HD
HETATM   16  C   UNL     1      43.349 -16.520   6.084  1.00  0.00     0.018 A 
HETATM   17  C   UNL     1      43.472 -17.075   7.458  1.00  0.00     0.069 C 
ENDBRANCH   6   7
ENDBRANCH   2   5
BRANCH   1  18
HETATM   18  C   UNL     1      44.406 -10.087   8.681  1.00  0.00     0.197 C 
BRANCH  18  19
HETATM   19  N   UNL     1      43.030 -10.359   9.138  1.00  0.00    -0.284 NA
HETATM   20  H   UNL     1      42.876 -11.358   9.265  1.00  0.00     0.128 HD
BRANCH  19  21
HETATM   21  C   UNL     1      42.689  -9.633  10.300  1.00  0.00     0.016 A 
HETATM   22  C   UNL     1      41.375  -9.163  10.518  1.00  0.00    -0.019 A 
HETATM   23  C   UNL     1      40.250  -9.539   9.587  1.00  0.00     0.052 C 
HETATM   24  C   UNL     1      41.131  -8.337  11.633  1.00  0.00     0.041 A 
HETATM   25 CL   UNL     1      39.562  -7.679  11.953  1.00  0.00    -0.084 Cl
HETATM   26  C   UNL     1      42.155  -8.007  12.524  1.00  0.00     0.024 A 
HETATM   27  C   UNL     1      43.443  -8.486  12.313  1.00  0.00     0.003 A 
HETATM   28  C   UNL     1      43.709  -9.286  11.203  1.00  0.00     0.024 A 
ENDBRANCH  19  21
ENDBRANCH  18  19
ENDBRANCH   1  18
TORSDOF 5
ENDMDL
