MODEL 1
REMARK VINA RESULT:      -8.2      0.000      0.000
REMARK  5 active torsions:
REMARK  status: ('A' for Active; 'I' for Inactive)
REMARK    1  A    between atoms: C_2  and  N_3 
REMARK    2  A    between atoms: C_2  and  C_21 
REMARK       I    between atoms: N_3  and  C_5 
REMARK       I    between atoms: C_5  and  N_6 
REMARK    3  A    between atoms: N_6  and  C_7 
REMARK    4  A    between atoms: C_7  and  C_8 
REMARK    5  A    between atoms: C_10  and  C_11 
ROOT
HETATM    1  N   UNL     1      42.235 -16.623   4.993  1.00  0.00    -0.218 N 
HETATM    2  H   UNL     1      41.929 -17.140   5.802  1.00  0.00     0.178 HD
HETATM    3  C   UNL     1      41.474 -15.571   4.601  1.00  0.00     0.670 C 
HETATM    4  N   UNL     1      41.740 -14.933   3.439  1.00  0.00    -0.221 N 
HETATM    5  N   UNL     1      40.426 -15.182   5.378  1.00  0.00    -0.231 N 
HETATM    6  C   UNL     1      40.051 -15.801   6.646  1.00  0.00     0.165 C 
HETATM    7  H   UNL     1      42.373 -15.390   2.798  1.00  0.00     0.178 HD
HETATM    8  H   UNL     1      39.880 -14.390   5.072  1.00  0.00     0.177 HD
ENDROOT
BRANCH   4   9
HETATM    9  C   UNL     1      41.330 -13.569   3.097  1.00  0.00     0.199 C 
BRANCH   9  10
HETATM   10  C   UNL     1      42.335 -12.639   3.671  1.00  0.00     0.077 A 
HETATM   11  N   UNL     1      42.500 -12.521   5.042  1.00  0.00    -0.225 NA
HETATM   12  C   UNL     1      43.525 -11.696   5.173  1.00  0.00     0.179 A 
HETATM   13  O   UNL     1      44.014 -11.230   3.981  1.00  0.00    -0.301 OA
HETATM   14  C   UNL     1      43.247 -11.835   3.032  1.00  0.00     0.173 A 
BRANCH  12  15
HETATM   15  C   UNL     1      44.208 -11.257   6.387  1.00  0.00     0.017 A 
HETATM   16  C   UNL     1      45.611 -11.215   6.420  1.00  0.00     0.016 A 
HETATM   17  C   UNL     1      46.289 -10.773   7.559  1.00  0.00     0.001 A 
HETATM   18  C   UNL     1      45.571 -10.363   8.680  1.00  0.00     0.000 A 
HETATM   19  C   UNL     1      44.178 -10.399   8.666  1.00  0.00     0.001 A 
HETATM   20  C   UNL     1      43.501 -10.844   7.527  1.00  0.00     0.016 A 
ENDBRANCH  12  15
ENDBRANCH   9  10
ENDBRANCH   4   9
BRANCH   1  21
HETATM   21  C   UNL     1      43.576 -16.932   4.464  1.00  0.00     0.135 C 
HETATM   22  C   UNL     1      44.608 -16.906   5.589  1.00  0.00     0.038 C 
BRANCH  21  23
HETATM   23  C   UNL     1      43.572 -18.256   3.753  1.00  0.00     0.005 A 
HETATM   24  S   UNL     1      44.141 -19.687   4.509  1.00  0.00    -0.104 SA
HETATM   25  C   UNL     1      43.819 -20.629   3.122  1.00  0.00     0.050 A 
HETATM   26  C   UNL     1      43.289 -19.878   2.099  1.00  0.00     0.008 A 
HETATM   27  C   UNL     1      43.148 -18.508   2.460  1.00  0.00     0.017 A 
ENDBRANCH  21  23
ENDBRANCH   1  21
TORSDOF 5
ENDMDL
MODEL 2
REMARK VINA RESULT:      -8.0      3.421      6.967
REMARK  5 active torsions:
REMARK  status: ('A' for Active; 'I' for Inactive)
REMARK    1  A    between atoms: C_2  and  N_3 
REMARK    2  A    between atoms: C_2  and  C_21 
REMARK       I    between atoms: N_3  and  C_5 
REMARK       I    between atoms: C_5  and  N_6 
REMARK    3  A    between atoms: N_6  and  C_7 
REMARK    4  A    between atoms: C_7  and  C_8 
REMARK    5  A    between atoms: C_10  and  C_11 
ROOT
HETATM    1  N   UNL     1      40.405 -13.195   3.268  1.00  0.00    -0.218 N 
HETATM    2  H   UNL     1      39.523 -12.710   3.205  1.00  0.00     0.178 HD
HETATM    3  C   UNL     1      41.167 -12.961   4.366  1.00  0.00     0.670 C 
HETATM    4  N   UNL     1      42.423 -13.455   4.440  1.00  0.00    -0.221 N 
HETATM    5  N   UNL     1      40.661 -12.206   5.379  1.00  0.00    -0.231 N 
HETATM    6  C   UNL     1      39.321 -11.625   5.400  1.00  0.00     0.165 C 
HETATM    7  H   UNL     1      42.830 -13.811   3.587  1.00  0.00     0.178 HD
HETATM    8  H   UNL     1      41.241 -12.054   6.190  1.00  0.00     0.177 HD
ENDROOT
BRANCH   4   9
HETATM    9  C   UNL     1      43.186 -13.675   5.671  1.00  0.00     0.199 C 
BRANCH   9  10
HETATM   10  C   UNL     1      43.537 -15.116   5.733  1.00  0.00     0.077 A 
HETATM   11  N   UNL     1      43.186 -15.982   4.710  1.00  0.00    -0.225 NA
HETATM   12  C   UNL     1      43.739 -17.132   5.058  1.00  0.00     0.179 A 
HETATM   13  O   UNL     1      44.390 -17.088   6.264  1.00  0.00    -0.301 OA
HETATM   14  C   UNL     1      44.252 -15.801   6.685  1.00  0.00     0.173 A 
BRANCH  12  15
HETATM   15  C   UNL     1      43.775 -18.397   4.330  1.00  0.00     0.017 A 
HETATM   16  C   UNL     1      44.034 -19.591   5.022  1.00  0.00     0.016 A 
HETATM   17  C   UNL     1      44.047 -20.819   4.355  1.00  0.00     0.001 A 
HETATM   18  C   UNL     1      43.799 -20.868   2.985  1.00  0.00     0.000 A 
HETATM   19  C   UNL     1      43.541 -19.693   2.282  1.00  0.00     0.001 A 
HETATM   20  C   UNL     1      43.531 -18.465   2.950  1.00  0.00     0.016 A 
ENDBRANCH  12  15
ENDBRANCH   9  10
ENDBRANCH   4   9
BRANCH   1  21
HETATM   21  C   UNL     1      40.664 -14.254   2.276  1.00  0.00     0.135 C 
HETATM   22  C   UNL     1      40.129 -15.592   2.779  1.00  0.00     0.038 C 
BRANCH  21  23
HETATM   23  C   UNL     1      40.070 -13.890   0.946  1.00  0.00     0.005 A 
HETATM   24  S   UNL     1      39.393 -12.340   0.654  1.00  0.00    -0.104 SA
HETATM   25  C   UNL     1      38.978 -12.748  -0.952  1.00  0.00     0.050 A 
HETATM   26  C   UNL     1      39.345 -14.036  -1.268  1.00  0.00     0.008 A 
HETATM   27  C   UNL     1      39.972 -14.697  -0.175  1.00  0.00     0.017 A 
ENDBRANCH  21  23
ENDBRANCH   1  21
TORSDOF 5
ENDMDL
MODEL 3
REMARK VINA RESULT:      -7.8      2.839      7.894
REMARK  5 active torsions:
REMARK  status: ('A' for Active; 'I' for Inactive)
REMARK    1  A    between atoms: C_2  and  N_3 
REMARK    2  A    between atoms: C_2  and  C_21 
REMARK       I    between atoms: N_3  and  C_5 
REMARK       I    between atoms: C_5  and  N_6 
REMARK    3  A    between atoms: N_6  and  C_7 
REMARK    4  A    between atoms: C_7  and  C_8 
REMARK    5  A    between atoms: C_10  and  C_11 
ROOT
HETATM    1  N   UNL     1      42.991 -10.617   6.350  1.00  0.00    -0.218 N 
HETATM    2  H   UNL     1      43.127  -9.665   6.048  1.00  0.00     0.178 HD
HETATM    3  C   UNL     1      41.937 -11.292   5.827  1.00  0.00     0.670 C 
HETATM    4  N   UNL     1      41.607 -12.513   6.303  1.00  0.00    -0.221 N 
HETATM    5  N   UNL     1      41.203 -10.716   4.836  1.00  0.00    -0.231 N 
HETATM    6  C   UNL     1      41.471  -9.404   4.251  1.00  0.00     0.165 C 
HETATM    7  H   UNL     1      42.031 -12.798   7.174  1.00  0.00     0.178 HD
HETATM    8  H   UNL     1      40.431 -11.241   4.454  1.00  0.00     0.177 HD
ENDROOT
BRANCH   4   9
HETATM    9  C   UNL     1      40.824 -13.527   5.592  1.00  0.00     0.199 C 
BRANCH   9  10
HETATM   10  C   UNL     1      41.769 -14.349   4.795  1.00  0.00     0.077 A 
HETATM   11  N   UNL     1      41.845 -15.722   4.968  1.00  0.00    -0.225 NA
HETATM   12  C   UNL     1      42.701 -16.116   4.040  1.00  0.00     0.179 A 
HETATM   13  O   UNL     1      43.225 -15.088   3.300  1.00  0.00    -0.301 OA
HETATM   14  C   UNL     1      42.627 -13.968   3.791  1.00  0.00     0.173 A 
BRANCH  12  15
HETATM   15  C   UNL     1      43.122 -17.469   3.687  1.00  0.00     0.017 A 
HETATM   16  C   UNL     1      43.817 -18.249   4.625  1.00  0.00     0.016 A 
HETATM   17  C   UNL     1      44.207 -19.556   4.324  1.00  0.00     0.001 A 
HETATM   18  C   UNL     1      43.904 -20.102   3.079  1.00  0.00     0.000 A 
HETATM   19  C   UNL     1      43.216 -19.343   2.135  1.00  0.00     0.001 A 
HETATM   20  C   UNL     1      42.828 -18.034   2.437  1.00  0.00     0.016 A 
ENDBRANCH  12  15
ENDBRANCH   9  10
ENDBRANCH   4   9
BRANCH   1  21
HETATM   21  C   UNL     1      44.066 -11.229   7.151  1.00  0.00     0.135 C 
HETATM   22  C   UNL     1      45.351 -11.321   6.332  1.00  0.00     0.038 C 
BRANCH  21  23
HETATM   23  C   UNL     1      44.281 -10.461   8.424  1.00  0.00     0.005 A 
HETATM   24  S   UNL     1      43.011  -9.582   9.172  1.00  0.00    -0.104 SA
HETATM   25  C   UNL     1      44.030  -9.052  10.436  1.00  0.00     0.050 A 
HETATM   26  C   UNL     1      45.312  -9.530  10.300  1.00  0.00     0.008 A 
HETATM   27  C   UNL     1      45.460 -10.342   9.139  1.00  0.00     0.017 A 
ENDBRANCH  21  23
ENDBRANCH   1  21
TORSDOF 5
ENDMDL
MODEL 4
REMARK VINA RESULT:      -7.8      2.777      7.354
REMARK  5 active torsions:
REMARK  status: ('A' for Active; 'I' for Inactive)
REMARK    1  A    between atoms: C_2  and  N_3 
REMARK    2  A    between atoms: C_2  and  C_21 
REMARK       I    between atoms: N_3  and  C_5 
REMARK       I    between atoms: C_5  and  N_6 
REMARK    3  A    between atoms: N_6  and  C_7 
REMARK    4  A    between atoms: C_7  and  C_8 
REMARK    5  A    between atoms: C_10  and  C_11 
ROOT
HETATM    1  N   UNL     1      41.694 -12.510   6.364  1.00  0.00    -0.218 N 
HETATM    2  H   UNL     1      41.371 -12.830   7.263  1.00  0.00     0.178 HD
HETATM    3  C   UNL     1      41.535 -13.350   5.310  1.00  0.00     0.670 C 
HETATM    4  N   UNL     1      42.083 -13.050   4.112  1.00  0.00    -0.221 N 
HETATM    5  N   UNL     1      40.837 -14.506   5.480  1.00  0.00    -0.231 N 
HETATM    6  C   UNL     1      40.207 -14.926   6.729  1.00  0.00     0.165 C 
HETATM    7  H   UNL     1      42.769 -12.309   4.091  1.00  0.00     0.178 HD
HETATM    8  H   UNL     1      40.721 -15.109   4.680  1.00  0.00     0.177 HD
ENDROOT
BRANCH   4   9
HETATM    9  C   UNL     1      41.655 -13.583   2.816  1.00  0.00     0.199 C 
BRANCH   9  10
HETATM   10  C   UNL     1      42.466 -14.794   2.537  1.00  0.00     0.077 A 
HETATM   11  N   UNL     1      42.415 -15.899   3.373  1.00  0.00    -0.225 NA
HETATM   12  C   UNL     1      43.173 -16.797   2.766  1.00  0.00     0.179 A 
HETATM   13  O   UNL     1      43.754 -16.339   1.613  1.00  0.00    -0.301 OA
HETATM   14  C   UNL     1      43.299 -15.063   1.478  1.00  0.00     0.173 A 
BRANCH  12  15
HETATM   15  C   UNL     1      43.436 -18.185   3.137  1.00  0.00     0.017 A 
HETATM   16  C   UNL     1      43.259 -19.204   2.187  1.00  0.00     0.016 A 
HETATM   17  C   UNL     1      43.530 -20.537   2.507  1.00  0.00     0.001 A 
HETATM   18  C   UNL     1      43.984 -20.868   3.781  1.00  0.00     0.000 A 
HETATM   19  C   UNL     1      44.164 -19.870   4.736  1.00  0.00     0.001 A 
HETATM   20  C   UNL     1      43.891 -18.536   4.416  1.00  0.00     0.016 A 
ENDBRANCH  12  15
ENDBRANCH   9  10
ENDBRANCH   4   9
BRANCH   1  21
HETATM   21  C   UNL     1      42.102 -11.098   6.258  1.00  0.00     0.135 C 
HETATM   22  C   UNL     1      41.083 -10.199   6.953  1.00  0.00     0.038 C 
BRANCH  21  23
HETATM   23  C   UNL     1      43.481 -10.901   6.820  1.00  0.00     0.005 A 
HETATM   24  S   UNL     1      43.776  -9.836   8.133  1.00  0.00    -0.104 SA
HETATM   25  C   UNL     1      45.450 -10.178   8.123  1.00  0.00     0.050 A 
HETATM   26  C   UNL     1      45.786 -11.084   7.143  1.00  0.00     0.008 A 
HETATM   27  C   UNL     1      44.652 -11.501   6.390  1.00  0.00     0.017 A 
ENDBRANCH  21  23
ENDBRANCH   1  21
TORSDOF 5
ENDMDL
MODEL 5
REMARK VINA RESULT:      -7.7      2.948      5.849
REMARK  5 active torsions:
REMARK  status: ('A' for Active; 'I' for Inactive)
REMARK    1  A    between atoms: C_2  and  N_3 
REMARK    2  A    between atoms: C_2  and  C_21 
REMARK       I    between atoms: N_3  and  C_5 
REMARK       I    between atoms: C_5  and  N_6 
REMARK    3  A    between atoms: N_6  and  C_7 
REMARK    4  A    between atoms: C_7  and  C_8 
REMARK    5  A    between atoms: C_10  and  C_11 
ROOT
HETATM    1  N   UNL     1      42.523 -16.434   4.905  1.00  0.00    -0.218 N 
HETATM    2  H   UNL     1      41.947 -17.026   5.483  1.00  0.00     0.178 HD
HETATM    3  C   UNL     1      42.099 -15.162   4.699  1.00  0.00     0.670 C 
HETATM    4  N   UNL     1      42.739 -14.366   3.814  1.00  0.00    -0.221 N 
HETATM    5  N   UNL     1      41.010 -14.706   5.377  1.00  0.00    -0.231 N 
HETATM    6  C   UNL     1      40.247 -15.480   6.352  1.00  0.00     0.165 C 
HETATM    7  H   UNL     1      43.389 -14.810   3.182  1.00  0.00     0.178 HD
HETATM    8  H   UNL     1      40.719 -13.753   5.216  1.00  0.00     0.177 HD
ENDROOT
BRANCH   4   9
HETATM    9  C   UNL     1      42.704 -12.902   3.798  1.00  0.00     0.199 C 
BRANCH   9  10
HETATM   10  C   UNL     1      42.112 -12.479   2.504  1.00  0.00     0.077 A 
HETATM   11  N   UNL     1      41.724 -13.412   1.556  1.00  0.00    -0.225 NA
HETATM   12  C   UNL     1      41.162 -12.688   0.602  1.00  0.00     0.179 A 
HETATM   13  O   UNL     1      41.198 -11.339   0.841  1.00  0.00    -0.301 OA
HETATM   14  C   UNL     1      41.807 -11.218   2.053  1.00  0.00     0.173 A 
BRANCH  12  15
HETATM   15  C   UNL     1      40.497 -13.128  -0.621  1.00  0.00     0.017 A 
HETATM   16  C   UNL     1      40.697 -12.417  -1.816  1.00  0.00     0.016 A 
HETATM   17  C   UNL     1      40.095 -12.832  -3.007  1.00  0.00     0.001 A 
HETATM   18  C   UNL     1      39.287 -13.967  -3.019  1.00  0.00     0.000 A 
HETATM   19  C   UNL     1      39.077 -14.684  -1.842  1.00  0.00     0.001 A 
HETATM   20  C   UNL     1      39.678 -14.266  -0.651  1.00  0.00     0.016 A 
ENDBRANCH  12  15
ENDBRANCH   9  10
ENDBRANCH   4   9
BRANCH   1  21
HETATM   21  C   UNL     1      43.854 -16.946   4.532  1.00  0.00     0.135 C 
HETATM   22  C   UNL     1      44.745 -17.055   5.767  1.00  0.00     0.038 C 
BRANCH  21  23
HETATM   23  C   UNL     1      43.734 -18.265   3.823  1.00  0.00     0.005 A 
HETATM   24  S   UNL     1      44.173 -19.740   4.582  1.00  0.00    -0.104 SA
HETATM   25  C   UNL     1      43.770 -20.653   3.196  1.00  0.00     0.050 A 
HETATM   26  C   UNL     1      43.309 -19.859   2.171  1.00  0.00     0.008 A 
HETATM   27  C   UNL     1      43.289 -18.481   2.530  1.00  0.00     0.017 A 
ENDBRANCH  21  23
ENDBRANCH   1  21
TORSDOF 5
ENDMDL
MODEL 6
REMARK VINA RESULT:      -7.4      2.035      3.250
REMARK  5 active torsions:
REMARK  status: ('A' for Active; 'I' for Inactive)
REMARK    1  A    between atoms: C_2  and  N_3 
REMARK    2  A    between atoms: C_2  and  C_21 
REMARK       I    between atoms: N_3  and  C_5 
REMARK       I    between atoms: C_5  and  N_6 
REMARK    3  A    between atoms: N_6  and  C_7 
REMARK    4  A    between atoms: C_7  and  C_8 
REMARK    5  A    between atoms: C_10  and  C_11 
ROOT
HETATM    1  N   UNL     1      41.742 -14.666   4.410  1.00  0.00    -0.218 N 
HETATM    2  H   UNL     1      40.868 -15.048   4.085  1.00  0.00     0.178 HD
HETATM    3  C   UNL     1      41.955 -13.341   4.211  1.00  0.00     0.670 C 
HETATM    4  N   UNL     1      43.163 -12.797   4.479  1.00  0.00    -0.221 N 
HETATM    5  N   UNL     1      40.946 -12.571   3.717  1.00  0.00    -0.231 N 
HETATM    6  C   UNL     1      39.607 -13.056   3.393  1.00  0.00     0.165 C 
HETATM    7  H   UNL     1      43.932 -13.435   4.626  1.00  0.00     0.178 HD
HETATM    8  H   UNL     1      41.124 -11.587   3.588  1.00  0.00     0.177 HD
ENDROOT
BRANCH   4   9
HETATM    9  C   UNL     1      43.426 -11.381   4.742  1.00  0.00     0.199 C 
BRANCH   9  10
HETATM   10  C   UNL     1      43.868 -11.258   6.153  1.00  0.00     0.077 A 
HETATM   11  N   UNL     1      43.376 -10.255   6.973  1.00  0.00    -0.225 NA
HETATM   12  C   UNL     1      43.906 -10.517   8.156  1.00  0.00     0.179 A 
HETATM   13  O   UNL     1      44.749 -11.597   8.156  1.00  0.00    -0.301 OA
HETATM   14  C   UNL     1      44.719 -12.059   6.876  1.00  0.00     0.173 A 
BRANCH  12  15
HETATM   15  C   UNL     1      43.689  -9.844   9.434  1.00  0.00     0.017 A 
HETATM   16  C   UNL     1      43.464  -8.459   9.462  1.00  0.00     0.016 A 
HETATM   17  C   UNL     1      43.226  -7.795  10.668  1.00  0.00     0.001 A 
HETATM   18  C   UNL     1      43.208  -8.509  11.864  1.00  0.00     0.000 A 
HETATM   19  C   UNL     1      43.431  -9.885  11.855  1.00  0.00     0.001 A 
HETATM   20  C   UNL     1      43.671 -10.548  10.648  1.00  0.00     0.016 A 
ENDBRANCH  12  15
ENDBRANCH   9  10
ENDBRANCH   4   9
BRANCH   1  21
HETATM   21  C   UNL     1      42.589 -15.536   5.246  1.00  0.00     0.135 C 
HETATM   22  C   UNL     1      41.822 -15.985   6.487  1.00  0.00     0.038 C 
BRANCH  21  23
HETATM   23  C   UNL     1      43.087 -16.710   4.453  1.00  0.00     0.005 A 
HETATM   24  S   UNL     1      43.942 -18.001   5.193  1.00  0.00    -0.104 SA
HETATM   25  C   UNL     1      44.126 -18.822   3.707  1.00  0.00     0.050 A 
HETATM   26  C   UNL     1      43.550 -18.135   2.664  1.00  0.00     0.008 A 
HETATM   27  C   UNL     1      42.952 -16.916   3.091  1.00  0.00     0.017 A 
ENDBRANCH  21  23
ENDBRANCH   1  21
TORSDOF 5
ENDMDL
MODEL 7
REMARK VINA RESULT:      -7.4      3.721      8.615
REMARK  5 active torsions:
REMARK  status: ('A' for Active; 'I' for Inactive)
REMARK    1  A    between atoms: C_2  and  N_3 
REMARK    2  A    between atoms: C_2  and  C_21 
REMARK       I    between atoms: N_3  and  C_5 
REMARK       I    between atoms: C_5  and  N_6 
REMARK    3  A    between atoms: N_6  and  C_7 
REMARK    4  A    between atoms: C_7  and  C_8 
REMARK    5  A    between atoms: C_10  and  C_11 
ROOT
HETATM    1  N   UNL     1      41.861  -9.527   8.358  1.00  0.00    -0.218 N 
HETATM    2  H   UNL     1      41.237  -8.780   8.619  1.00  0.00     0.178 HD
HETATM    3  C   UNL     1      41.597 -10.183   7.200  1.00  0.00     0.670 C 
HETATM    4  N   UNL     1      42.298 -11.291   6.870  1.00  0.00    -0.221 N 
HETATM    5  N   UNL     1      40.604  -9.727   6.388  1.00  0.00    -0.231 N 
HETATM    6  C   UNL     1      39.787  -8.545   6.650  1.00  0.00     0.165 C 
HETATM    7  H   UNL     1      42.859 -11.713   7.596  1.00  0.00     0.178 HD
HETATM    8  H   UNL     1      40.433 -10.224   5.527  1.00  0.00     0.177 HD
ENDROOT
BRANCH   4   9
HETATM    9  C   UNL     1      42.452 -11.837   5.520  1.00  0.00     0.199 C 
BRANCH   9  10
HETATM   10  C   UNL     1      42.839 -13.263   5.651  1.00  0.00     0.077 A 
HETATM   11  N   UNL     1      42.715 -14.140   4.586  1.00  0.00    -0.225 NA
HETATM   12  C   UNL     1      43.237 -15.269   5.034  1.00  0.00     0.179 A 
HETATM   13  O   UNL     1      43.654 -15.203   6.339  1.00  0.00    -0.301 OA
HETATM   14  C   UNL     1      43.393 -13.924   6.721  1.00  0.00     0.173 A 
BRANCH  12  15
HETATM   15  C   UNL     1      43.454 -16.530   4.331  1.00  0.00     0.017 A 
HETATM   16  C   UNL     1      44.197 -17.551   4.946  1.00  0.00     0.016 A 
HETATM   17  C   UNL     1      44.396 -18.778   4.307  1.00  0.00     0.001 A 
HETATM   18  C   UNL     1      43.852 -19.000   3.044  1.00  0.00     0.000 A 
HETATM   19  C   UNL     1      43.113 -17.998   2.419  1.00  0.00     0.001 A 
HETATM   20  C   UNL     1      42.916 -16.770   3.058  1.00  0.00     0.016 A 
ENDBRANCH  12  15
ENDBRANCH   9  10
ENDBRANCH   4   9
BRANCH   1  21
HETATM   21  C   UNL     1      43.098  -9.677   9.145  1.00  0.00     0.135 C 
HETATM   22  C   UNL     1      44.219  -8.842   8.533  1.00  0.00     0.038 C 
BRANCH  21  23
HETATM   23  C   UNL     1      42.860  -9.308  10.581  1.00  0.00     0.005 A 
HETATM   24  S   UNL     1      41.349  -9.587  11.345  1.00  0.00    -0.104 SA
HETATM   25  C   UNL     1      41.896  -8.924  12.821  1.00  0.00     0.050 A 
HETATM   26  C   UNL     1      43.201  -8.498  12.743  1.00  0.00     0.008 A 
HETATM   27  C   UNL     1      43.759  -8.716  11.452  1.00  0.00     0.017 A 
ENDBRANCH  21  23
ENDBRANCH   1  21
TORSDOF 5
ENDMDL
MODEL 8
REMARK VINA RESULT:      -7.4      1.664      2.263
REMARK  5 active torsions:
REMARK  status: ('A' for Active; 'I' for Inactive)
REMARK    1  A    between atoms: C_2  and  N_3 
REMARK    2  A    between atoms: C_2  and  C_21 
REMARK       I    between atoms: N_3  and  C_5 
REMARK       I    between atoms: C_5  and  N_6 
REMARK    3  A    between atoms: N_6  and  C_7 
REMARK    4  A    between atoms: C_7  and  C_8 
REMARK    5  A    between atoms: C_10  and  C_11 
ROOT
HETATM    1  N   UNL     1      42.372 -15.859   2.352  1.00  0.00    -0.218 N 
HETATM    2  H   UNL     1      41.738 -16.434   1.820  1.00  0.00     0.178 HD
HETATM    3  C   UNL     1      42.354 -14.524   2.111  1.00  0.00     0.670 C 
HETATM    4  N   UNL     1      43.282 -13.718   2.673  1.00  0.00    -0.221 N 
HETATM    5  N   UNL     1      41.406 -14.010   1.280  1.00  0.00    -0.231 N 
HETATM    6  C   UNL     1      40.361 -14.790   0.621  1.00  0.00     0.165 C 
HETATM    7  H   UNL     1      44.086 -14.163   3.093  1.00  0.00     0.178 HD
HETATM    8  H   UNL     1      41.405 -13.014   1.124  1.00  0.00     0.177 HD
ENDROOT
BRANCH   4   9
HETATM    9  C   UNL     1      43.151 -12.273   2.879  1.00  0.00     0.199 C 
BRANCH   9  10
HETATM   10  C   UNL     1      43.111 -12.028   4.342  1.00  0.00     0.077 A 
HETATM   11  N   UNL     1      44.152 -11.381   4.988  1.00  0.00    -0.225 NA
HETATM   12  C   UNL     1      43.728 -11.256   6.235  1.00  0.00     0.179 A 
HETATM   13  O   UNL     1      42.499 -11.818   6.459  1.00  0.00    -0.301 OA
HETATM   14  C   UNL     1      42.117 -12.309   5.248  1.00  0.00     0.173 A 
BRANCH  12  15
HETATM   15  C   UNL     1      44.367 -10.585   7.364  1.00  0.00     0.017 A 
HETATM   16  C   UNL     1      45.710 -10.186   7.267  1.00  0.00     0.016 A 
HETATM   17  C   UNL     1      46.337  -9.518   8.322  1.00  0.00     0.001 A 
HETATM   18  C   UNL     1      45.628  -9.236   9.487  1.00  0.00     0.000 A 
HETATM   19  C   UNL     1      44.294  -9.625   9.601  1.00  0.00     0.001 A 
HETATM   20  C   UNL     1      43.668 -10.296   8.546  1.00  0.00     0.016 A 
ENDBRANCH  12  15
ENDBRANCH   9  10
ENDBRANCH   4   9
BRANCH   1  21
HETATM   21  C   UNL     1      43.086 -16.500   3.471  1.00  0.00     0.135 C 
HETATM   22  C   UNL     1      42.327 -16.283   4.777  1.00  0.00     0.038 C 
BRANCH  21  23
HETATM   23  C   UNL     1      43.298 -17.961   3.195  1.00  0.00     0.005 A 
HETATM   24  S   UNL     1      44.161 -18.969   4.284  1.00  0.00    -0.104 SA
HETATM   25  C   UNL     1      43.957 -20.339   3.285  1.00  0.00     0.050 A 
HETATM   26  C   UNL     1      43.248 -20.045   2.144  1.00  0.00     0.008 A 
HETATM   27  C   UNL     1      42.868 -18.674   2.089  1.00  0.00     0.017 A 
ENDBRANCH  21  23
ENDBRANCH   1  21
TORSDOF 5
ENDMDL
MODEL 9
REMARK VINA RESULT:      -7.2      3.262      5.258
REMARK  5 active torsions:
REMARK  status: ('A' for Active; 'I' for Inactive)
REMARK    1  A    between atoms: C_2  and  N_3 
REMARK    2  A    between atoms: C_2  and  C_21 
REMARK       I    between atoms: N_3  and  C_5 
REMARK       I    between atoms: C_5  and  N_6 
REMARK    3  A    between atoms: N_6  and  C_7 
REMARK    4  A    between atoms: C_7  and  C_8 
REMARK    5  A    between atoms: C_10  and  C_11 
ROOT
HETATM    1  N   UNL     1      42.618 -13.328   5.354  1.00  0.00    -0.218 N 
HETATM    2  H   UNL     1      42.230 -13.306   4.424  1.00  0.00     0.178 HD
HETATM    3  C   UNL     1      43.597 -12.433   5.641  1.00  0.00     0.670 C 
HETATM    4  N   UNL     1      44.267 -12.509   6.812  1.00  0.00    -0.221 N 
HETATM    5  N   UNL     1      43.911 -11.474   4.727  1.00  0.00    -0.231 N 
HETATM    6  C   UNL     1      43.253 -11.305   3.434  1.00  0.00     0.165 C 
HETATM    7  H   UNL     1      44.157 -13.356   7.351  1.00  0.00     0.178 HD
HETATM    8  H   UNL     1      44.634 -10.813   4.966  1.00  0.00     0.177 HD
ENDROOT
BRANCH   4   9
HETATM    9  C   UNL     1      45.001 -11.415   7.452  1.00  0.00     0.199 C 
BRANCH   9  10
HETATM   10  C   UNL     1      44.045 -10.671   8.310  1.00  0.00     0.077 A 
HETATM   11  N   UNL     1      44.144 -10.710   9.691  1.00  0.00    -0.225 NA
HETATM   12  C   UNL     1      43.210  -9.869  10.105  1.00  0.00     0.179 A 
HETATM   13  O   UNL     1      42.476  -9.318   9.088  1.00  0.00    -0.301 OA
HETATM   14  C   UNL     1      43.014  -9.837   7.950  1.00  0.00     0.173 A 
BRANCH  12  15
HETATM   15  C   UNL     1      42.891  -9.438  11.463  1.00  0.00     0.017 A 
HETATM   16  C   UNL     1      43.579  -8.352  12.028  1.00  0.00     0.016 A 
HETATM   17  C   UNL     1      43.275  -7.901  13.315  1.00  0.00     0.001 A 
HETATM   18  C   UNL     1      42.276  -8.530  14.054  1.00  0.00     0.000 A 
HETATM   19  C   UNL     1      41.583  -9.610  13.510  1.00  0.00     0.001 A 
HETATM   20  C   UNL     1      41.890 -10.062  12.223  1.00  0.00     0.016 A 
ENDBRANCH  12  15
ENDBRANCH   9  10
ENDBRANCH   4   9
BRANCH   1  21
HETATM   21  C   UNL     1      41.937 -14.175   6.350  1.00  0.00     0.135 C 
HETATM   22  C   UNL     1      40.431 -14.180   6.098  1.00  0.00     0.038 C 
BRANCH  21  23
HETATM   23  C   UNL     1      42.501 -15.567   6.335  1.00  0.00     0.005 A 
HETATM   24  S   UNL     1      42.621 -16.476   4.884  1.00  0.00    -0.104 SA
HETATM   25  C   UNL     1      43.295 -17.817   5.699  1.00  0.00     0.050 A 
HETATM   26  C   UNL     1      43.431 -17.585   7.048  1.00  0.00     0.008 A 
HETATM   27  C   UNL     1      42.972 -16.289   7.418  1.00  0.00     0.017 A 
ENDBRANCH  21  23
ENDBRANCH   1  21
TORSDOF 5
ENDMDL
MODEL 10
REMARK VINA RESULT:      -7.1      3.717      6.526
REMARK  5 active torsions:
REMARK  status: ('A' for Active; 'I' for Inactive)
REMARK    1  A    between atoms: C_2  and  N_3 
REMARK    2  A    between atoms: C_2  and  C_21 
REMARK       I    between atoms: N_3  and  C_5 
REMARK       I    between atoms: C_5  and  N_6 
REMARK    3  A    between atoms: N_6  and  C_7 
REMARK    4  A    between atoms: C_7  and  C_8 
REMARK    5  A    between atoms: C_10  and  C_11 
ROOT
HETATM    1  N   UNL     1      42.475 -16.376   5.094  1.00  0.00    -0.218 N 
HETATM    2  H   UNL     1      42.075 -16.750   5.940  1.00  0.00     0.178 HD
HETATM    3  C   UNL     1      41.802 -15.371   4.479  1.00  0.00     0.670 C 
HETATM    4  N   UNL     1      42.198 -14.930   3.264  1.00  0.00    -0.221 N 
HETATM    5  N   UNL     1      40.712 -14.830   5.088  1.00  0.00    -0.231 N 
HETATM    6  C   UNL     1      40.199 -15.231   6.395  1.00  0.00     0.165 C 
HETATM    7  H   UNL     1      42.861 -15.502   2.760  1.00  0.00     0.178 HD
HETATM    8  H   UNL     1      40.234 -14.077   4.617  1.00  0.00     0.177 HD
ENDROOT
BRANCH   4   9
HETATM    9  C   UNL     1      41.887 -13.622   2.684  1.00  0.00     0.199 C 
BRANCH   9  10
HETATM   10  C   UNL     1      40.948 -13.841   1.555  1.00  0.00     0.077 A 
HETATM   11  N   UNL     1      40.118 -12.826   1.107  1.00  0.00    -0.225 NA
HETATM   12  C   UNL     1      39.513 -13.346   0.053  1.00  0.00     0.179 A 
HETATM   13  O   UNL     1      39.857 -14.650  -0.193  1.00  0.00    -0.301 OA
HETATM   14  C   UNL     1      40.769 -14.955   0.771  1.00  0.00     0.173 A 
BRANCH  12  15
HETATM   15  C   UNL     1      38.579 -12.720  -0.879  1.00  0.00     0.017 A 
HETATM   16  C   UNL     1      38.120 -11.416  -0.632  1.00  0.00     0.016 A 
HETATM   17  C   UNL     1      37.247 -10.783  -1.521  1.00  0.00     0.001 A 
HETATM   18  C   UNL     1      36.825 -11.445  -2.671  1.00  0.00     0.000 A 
HETATM   19  C   UNL     1      37.269 -12.740  -2.932  1.00  0.00     0.001 A 
HETATM   20  C   UNL     1      38.140 -13.374  -2.040  1.00  0.00     0.016 A 
ENDBRANCH  12  15
ENDBRANCH   9  10
ENDBRANCH   4   9
BRANCH   1  21
HETATM   21  C   UNL     1      43.840 -16.810   4.744  1.00  0.00     0.135 C 
HETATM   22  C   UNL     1      44.722 -16.838   5.990  1.00  0.00     0.038 C 
BRANCH  21  23
HETATM   23  C   UNL     1      43.811 -18.147   4.061  1.00  0.00     0.005 A 
HETATM   24  S   UNL     1      44.202 -19.595   4.896  1.00  0.00    -0.104 SA
HETATM   25  C   UNL     1      43.949 -20.548   3.501  1.00  0.00     0.050 A 
HETATM   26  C   UNL     1      43.574 -19.787   2.418  1.00  0.00     0.008 A 
HETATM   27  C   UNL     1      43.496 -18.402   2.738  1.00  0.00     0.017 A 
ENDBRANCH  21  23
ENDBRANCH   1  21
TORSDOF 5
ENDMDL
