MODEL 1
REMARK VINA RESULT:      -9.1      0.000      0.000
REMARK  6 active torsions:
REMARK  status: ('A' for Active; 'I' for Inactive)
REMARK    1  A    between atoms: O_2  and  C_3 
REMARK    2  A    between atoms: C_6  and  C_7 
REMARK    3  A    between atoms: C_13  and  C_14 
REMARK       I    between atoms: C_14  and  N_15 
REMARK    4  A    between atoms: N_15  and  C_16 
REMARK    5  A    between atoms: C_18  and  O_19 
REMARK    6  A    between atoms: C_24  and  C_25 
ROOT
HETATM    1  C   UNL     1      41.299 -15.183   3.222  1.00  0.00     0.118 C 
HETATM    2  N   UNL     1      41.848 -13.892   3.668  1.00  0.00    -0.365 N 
HETATM    3  C   UNL     1      41.287 -12.748   3.178  1.00  0.00     0.138 C 
HETATM    4  N   UNL     1      40.423 -12.787   2.103  1.00  0.00    -0.240 N 
HETATM    5  N   UNL     1      39.811 -11.618   1.866  1.00  0.00    -0.181 NA
HETATM    6  C   UNL     1      40.422 -10.776   2.700  1.00  0.00     0.160 C 
HETATM    7  C   UNL     1      41.381 -11.410   3.529  1.00  0.00     0.096 C 
HETATM    8  C   UNL     1      40.019 -13.996   1.409  1.00  0.00     0.221 C 
HETATM    9  C   UNL     1      41.002 -15.134   1.720  1.00  0.00     0.066 C 
HETATM   10  H   UNL     1      42.072 -13.923   4.665  1.00  0.00     0.161 HD
ENDROOT
BRANCH   7  11
HETATM   11  C   UNL     1      42.209 -10.737   4.517  1.00  0.00     0.261 C 
HETATM   12  N   UNL     1      43.004 -11.585   5.263  1.00  0.00    -0.323 N 
HETATM   13  H   UNL     1      42.949 -12.566   5.019  1.00  0.00     0.169 HD
HETATM   14  O   UNL     1      42.175  -9.515   4.616  1.00  0.00    -0.267 OA
BRANCH  12  15
HETATM   15  C   UNL     1      43.917 -11.235   6.281  1.00  0.00     0.037 A 
HETATM   16  C   UNL     1      45.305 -11.212   6.111  1.00  0.00     0.066 A 
HETATM   17  C   UNL     1      46.132 -10.862   7.177  1.00  0.00     0.067 A 
HETATM   18  C   UNL     1      45.601 -10.521   8.414  1.00  0.00     0.036 A 
HETATM   19  C   UNL     1      44.220 -10.538   8.593  1.00  0.00     0.005 A 
HETATM   20  C   UNL     1      43.383 -10.902   7.533  1.00  0.00     0.029 A 
BRANCH  17  21
HETATM   21  O   UNL     1      47.490 -10.851   7.045  1.00  0.00    -0.361 OA
HETATM   22  H   UNL     1      47.774  -9.937   6.872  1.00  0.00     0.217 HD
ENDBRANCH  17  21
ENDBRANCH  12  15
ENDBRANCH   7  11
BRANCH   1  23
HETATM   23  C   UNL     1      42.273 -16.304   3.528  1.00  0.00    -0.035 A 
HETATM   24  C   UNL     1      42.780 -16.461   4.827  1.00  0.00     0.012 A 
HETATM   25  C   UNL     1      43.605 -17.545   5.152  1.00  0.00     0.037 A 
HETATM   26  C   UNL     1      43.932 -18.493   4.184  1.00  0.00     0.068 A 
HETATM   27  C   UNL     1      43.455 -18.330   2.883  1.00  0.00     0.037 A 
HETATM   28  C   UNL     1      42.630 -17.250   2.555  1.00  0.00     0.012 A 
BRANCH  26  29
HETATM   29  O   UNL     1      44.702 -19.605   4.379  1.00  0.00    -0.356 OA
HETATM   30  C   UNL     1      44.156 -20.623   5.210  1.00  0.00     0.210 C 
ENDBRANCH  26  29
ENDBRANCH   1  23
BRANCH   8  31
HETATM   31  C   UNL     1      39.938 -13.793  -0.088  1.00  0.00     0.409 C 
HETATM   32  F   UNL     1      41.012 -13.135  -0.579  1.00  0.00    -0.169 F 
HETATM   33  F   UNL     1      39.911 -15.006  -0.707  1.00  0.00    -0.169 F 
HETATM   34  F   UNL     1      38.823 -13.148  -0.487  1.00  0.00    -0.169 F 
ENDBRANCH   8  31
TORSDOF 6
ENDMDL
MODEL 2
REMARK VINA RESULT:      -9.0      3.759      8.223
REMARK  6 active torsions:
REMARK  status: ('A' for Active; 'I' for Inactive)
REMARK    1  A    between atoms: O_2  and  C_3 
REMARK    2  A    between atoms: C_6  and  C_7 
REMARK    3  A    between atoms: C_13  and  C_14 
REMARK       I    between atoms: C_14  and  N_15 
REMARK    4  A    between atoms: N_15  and  C_16 
REMARK    5  A    between atoms: C_18  and  O_19 
REMARK    6  A    between atoms: C_24  and  C_25 
ROOT
HETATM    1  C   UNL     1      42.396 -13.775   5.745  1.00  0.00     0.118 C 
HETATM    2  N   UNL     1      42.126 -13.645   4.304  1.00  0.00    -0.365 N 
HETATM    3  C   UNL     1      41.942 -14.786   3.576  1.00  0.00     0.138 C 
HETATM    4  N   UNL     1      42.261 -16.021   4.102  1.00  0.00    -0.240 N 
HETATM    5  N   UNL     1      41.845 -17.047   3.347  1.00  0.00    -0.181 NA
HETATM    6  C   UNL     1      41.400 -16.454   2.239  1.00  0.00     0.160 C 
HETATM    7  C   UNL     1      41.461 -15.040   2.301  1.00  0.00     0.096 C 
HETATM    8  C   UNL     1      42.795 -16.240   5.434  1.00  0.00     0.221 C 
HETATM    9  C   UNL     1      43.371 -14.931   5.992  1.00  0.00     0.066 C 
HETATM   10  H   UNL     1      41.496 -12.861   4.127  1.00  0.00     0.161 HD
ENDROOT
BRANCH   7  11
HETATM   11  C   UNL     1      41.062 -14.138   1.233  1.00  0.00     0.261 C 
HETATM   12  N   UNL     1      39.996 -14.590   0.478  1.00  0.00    -0.323 N 
HETATM   13  H   UNL     1      39.594 -15.472   0.771  1.00  0.00     0.169 HD
HETATM   14  O   UNL     1      41.646 -13.070   1.079  1.00  0.00    -0.267 OA
BRANCH  12  15
HETATM   15  C   UNL     1      39.376 -13.941  -0.611  1.00  0.00     0.037 A 
HETATM   16  C   UNL     1      39.205 -14.522  -1.871  1.00  0.00     0.066 A 
HETATM   17  C   UNL     1      38.589 -13.801  -2.893  1.00  0.00     0.067 A 
HETATM   18  C   UNL     1      38.125 -12.510  -2.680  1.00  0.00     0.036 A 
HETATM   19  C   UNL     1      38.288 -11.923  -1.428  1.00  0.00     0.005 A 
HETATM   20  C   UNL     1      38.918 -12.633  -0.401  1.00  0.00     0.029 A 
BRANCH  17  21
HETATM   21  O   UNL     1      38.427 -14.336  -4.138  1.00  0.00    -0.361 OA
HETATM   22  H   UNL     1      37.592 -14.004  -4.509  1.00  0.00     0.217 HD
ENDBRANCH  17  21
ENDBRANCH  12  15
ENDBRANCH   7  11
BRANCH   1  23
HETATM   23  C   UNL     1      42.968 -12.481   6.292  1.00  0.00    -0.035 A 
HETATM   24  C   UNL     1      42.192 -11.312   6.289  1.00  0.00     0.012 A 
HETATM   25  C   UNL     1      42.665 -10.132   6.876  1.00  0.00     0.037 A 
HETATM   26  C   UNL     1      43.921 -10.104   7.481  1.00  0.00     0.068 A 
HETATM   27  C   UNL     1      44.711 -11.255   7.464  1.00  0.00     0.037 A 
HETATM   28  C   UNL     1      44.241 -12.434   6.880  1.00  0.00     0.012 A 
BRANCH  26  29
HETATM   29  O   UNL     1      44.485  -9.028   8.109  1.00  0.00    -0.356 OA
HETATM   30  C   UNL     1      45.893  -9.068   8.304  1.00  0.00     0.210 C 
ENDBRANCH  26  29
ENDBRANCH   1  23
BRANCH   8  31
HETATM   31  C   UNL     1      43.864 -17.311   5.449  1.00  0.00     0.409 C 
HETATM   32  F   UNL     1      44.874 -17.020   6.301  1.00  0.00    -0.169 F 
HETATM   33  F   UNL     1      43.322 -18.484   5.878  1.00  0.00    -0.169 F 
HETATM   34  F   UNL     1      44.390 -17.567   4.235  1.00  0.00    -0.169 F 
ENDBRANCH   8  31
TORSDOF 6
ENDMDL
MODEL 3
REMARK VINA RESULT:      -8.9      2.245      7.021
REMARK  6 active torsions:
REMARK  status: ('A' for Active; 'I' for Inactive)
REMARK    1  A    between atoms: O_2  and  C_3 
REMARK    2  A    between atoms: C_6  and  C_7 
REMARK    3  A    between atoms: C_13  and  C_14 
REMARK       I    between atoms: C_14  and  N_15 
REMARK    4  A    between atoms: N_15  and  C_16 
REMARK    5  A    between atoms: C_18  and  O_19 
REMARK    6  A    between atoms: C_24  and  C_25 
ROOT
HETATM    1  C   UNL     1      43.092 -11.207   4.430  1.00  0.00     0.118 C 
HETATM    2  N   UNL     1      43.141 -12.596   3.946  1.00  0.00    -0.365 N 
HETATM    3  C   UNL     1      42.332 -12.945   2.902  1.00  0.00     0.138 C 
HETATM    4  N   UNL     1      41.312 -12.113   2.488  1.00  0.00    -0.240 N 
HETATM    5  N   UNL     1      40.738 -12.501   1.341  1.00  0.00    -0.181 NA
HETATM    6  C   UNL     1      41.291 -13.692   1.107  1.00  0.00     0.160 C 
HETATM    7  C   UNL     1      42.275 -14.047   2.063  1.00  0.00     0.096 C 
HETATM    8  C   UNL     1      41.003 -10.825   3.081  1.00  0.00     0.221 C 
HETATM    9  C   UNL     1      41.640 -10.719   4.473  1.00  0.00     0.066 C 
HETATM   10  H   UNL     1      44.104 -12.938   3.937  1.00  0.00     0.161 HD
ENDROOT
BRANCH   7  11
HETATM   11  C   UNL     1      43.025 -15.293   2.069  1.00  0.00     0.261 C 
HETATM   12  N   UNL     1      42.554 -16.234   2.964  1.00  0.00    -0.323 N 
HETATM   13  H   UNL     1      41.728 -15.968   3.487  1.00  0.00     0.169 HD
HETATM   14  O   UNL     1      43.971 -15.443   1.304  1.00  0.00    -0.267 OA
BRANCH  12  15
HETATM   15  C   UNL     1      43.057 -17.533   3.192  1.00  0.00     0.037 A 
HETATM   16  C   UNL     1      43.029 -18.558   2.242  1.00  0.00     0.066 A 
HETATM   17  C   UNL     1      43.542 -19.815   2.559  1.00  0.00     0.067 A 
HETATM   18  C   UNL     1      44.097 -20.069   3.805  1.00  0.00     0.036 A 
HETATM   19  C   UNL     1      44.132 -19.054   4.757  1.00  0.00     0.005 A 
HETATM   20  C   UNL     1      43.607 -17.794   4.455  1.00  0.00     0.029 A 
BRANCH  17  21
HETATM   21  O   UNL     1      43.509 -20.840   1.658  1.00  0.00    -0.361 OA
HETATM   22  H   UNL     1      44.424 -21.109   1.466  1.00  0.00     0.217 HD
ENDBRANCH  17  21
ENDBRANCH  12  15
ENDBRANCH   7  11
BRANCH   1  23
HETATM   23  C   UNL     1      43.719 -11.108   5.808  1.00  0.00    -0.035 A 
HETATM   24  C   UNL     1      45.084 -11.387   5.981  1.00  0.00     0.012 A 
HETATM   25  C   UNL     1      45.703 -11.208   7.224  1.00  0.00     0.037 A 
HETATM   26  C   UNL     1      44.968 -10.742   8.313  1.00  0.00     0.068 A 
HETATM   27  C   UNL     1      43.605 -10.487   8.157  1.00  0.00     0.037 A 
HETATM   28  C   UNL     1      42.984 -10.664   6.917  1.00  0.00     0.012 A 
BRANCH  26  29
HETATM   29  O   UNL     1      45.458 -10.501   9.567  1.00  0.00    -0.356 OA
HETATM   30  C   UNL     1      44.505 -10.197  10.578  1.00  0.00     0.210 C 
ENDBRANCH  26  29
ENDBRANCH   1  23
BRANCH   8  31
HETATM   31  C   UNL     1      39.511 -10.591   3.188  1.00  0.00     0.409 C 
HETATM   32  F   UNL     1      38.974 -10.144   2.030  1.00  0.00    -0.169 F 
HETATM   33  F   UNL     1      38.890 -11.768   3.474  1.00  0.00    -0.169 F 
HETATM   34  F   UNL     1      39.167  -9.740   4.175  1.00  0.00    -0.169 F 
ENDBRANCH   8  31
TORSDOF 6
ENDMDL
MODEL 4
REMARK VINA RESULT:      -8.8      4.302      5.549
REMARK  6 active torsions:
REMARK  status: ('A' for Active; 'I' for Inactive)
REMARK    1  A    between atoms: O_2  and  C_3 
REMARK    2  A    between atoms: C_6  and  C_7 
REMARK    3  A    between atoms: C_13  and  C_14 
REMARK       I    between atoms: C_14  and  N_15 
REMARK    4  A    between atoms: N_15  and  C_16 
REMARK    5  A    between atoms: C_18  and  O_19 
REMARK    6  A    between atoms: C_24  and  C_25 
ROOT
HETATM    1  C   UNL     1      40.174 -14.162   0.941  1.00  0.00     0.118 C 
HETATM    2  N   UNL     1      40.810 -12.871   0.633  1.00  0.00    -0.365 N 
HETATM    3  C   UNL     1      40.295 -12.125  -0.388  1.00  0.00     0.138 C 
HETATM    4  N   UNL     1      39.389 -12.669  -1.276  1.00  0.00    -0.240 N 
HETATM    5  N   UNL     1      38.834 -11.765  -2.095  1.00  0.00    -0.181 NA
HETATM    6  C   UNL     1      39.522 -10.652  -1.836  1.00  0.00     0.160 C 
HETATM    7  C   UNL     1      40.474 -10.814  -0.800  1.00  0.00     0.096 C 
HETATM    8  C   UNL     1      38.895 -14.032  -1.222  1.00  0.00     0.221 C 
HETATM    9  C   UNL     1      39.824 -14.896  -0.358  1.00  0.00     0.066 C 
HETATM   10  H   UNL     1      41.069 -12.385   1.494  1.00  0.00     0.161 HD
ENDROOT
BRANCH   7  11
HETATM   11  C   UNL     1      41.375  -9.776  -0.322  1.00  0.00     0.261 C 
HETATM   12  N   UNL     1      41.326  -8.604  -1.052  1.00  0.00    -0.323 N 
HETATM   13  H   UNL     1      40.652  -8.585  -1.808  1.00  0.00     0.169 HD
HETATM   14  O   UNL     1      42.076  -9.978   0.664  1.00  0.00    -0.267 OA
BRANCH  12  15
HETATM   15  C   UNL     1      42.064  -7.421  -0.831  1.00  0.00     0.037 A 
HETATM   16  C   UNL     1      43.243  -7.099  -1.511  1.00  0.00     0.066 A 
HETATM   17  C   UNL     1      43.912  -5.911  -1.220  1.00  0.00     0.067 A 
HETATM   18  C   UNL     1      43.422  -5.027  -0.268  1.00  0.00     0.036 A 
HETATM   19  C   UNL     1      42.249  -5.338   0.414  1.00  0.00     0.005 A 
HETATM   20  C   UNL     1      41.577  -6.535   0.139  1.00  0.00     0.029 A 
BRANCH  17  21
HETATM   21  O   UNL     1      45.074  -5.580  -1.854  1.00  0.00    -0.361 OA
HETATM   22  H   UNL     1      45.708  -5.265  -1.188  1.00  0.00     0.217 HD
ENDBRANCH  17  21
ENDBRANCH  12  15
ENDBRANCH   7  11
BRANCH   1  23
HETATM   23  C   UNL     1      41.097 -15.014   1.791  1.00  0.00    -0.035 A 
HETATM   24  C   UNL     1      40.657 -15.507   3.029  1.00  0.00     0.012 A 
HETATM   25  C   UNL     1      41.457 -16.373   3.785  1.00  0.00     0.037 A 
HETATM   26  C   UNL     1      42.708 -16.764   3.311  1.00  0.00     0.068 A 
HETATM   27  C   UNL     1      43.165 -16.257   2.094  1.00  0.00     0.037 A 
HETATM   28  C   UNL     1      42.369 -15.394   1.337  1.00  0.00     0.012 A 
BRANCH  26  29
HETATM   29  O   UNL     1      43.570 -17.621   3.938  1.00  0.00    -0.356 OA
HETATM   30  C   UNL     1      44.033 -18.730   3.177  1.00  0.00     0.210 C 
ENDBRANCH  26  29
ENDBRANCH   1  23
BRANCH   8  31
HETATM   31  C   UNL     1      38.768 -14.647  -2.599  1.00  0.00     0.409 C 
HETATM   32  F   UNL     1      37.677 -14.206  -3.264  1.00  0.00    -0.169 F 
HETATM   33  F   UNL     1      39.848 -14.295  -3.351  1.00  0.00    -0.169 F 
HETATM   34  F   UNL     1      38.747 -15.995  -2.590  1.00  0.00    -0.169 F 
ENDBRANCH   8  31
TORSDOF 6
ENDMDL
MODEL 5
REMARK VINA RESULT:      -8.7      2.372      7.474
REMARK  6 active torsions:
REMARK  status: ('A' for Active; 'I' for Inactive)
REMARK    1  A    between atoms: O_2  and  C_3 
REMARK    2  A    between atoms: C_6  and  C_7 
REMARK    3  A    between atoms: C_13  and  C_14 
REMARK       I    between atoms: C_14  and  N_15 
REMARK    4  A    between atoms: N_15  and  C_16 
REMARK    5  A    between atoms: C_18  and  O_19 
REMARK    6  A    between atoms: C_24  and  C_25 
ROOT
HETATM    1  C   UNL     1      43.862 -11.292   5.130  1.00  0.00     0.118 C 
HETATM    2  N   UNL     1      43.604 -12.736   5.013  1.00  0.00    -0.365 N 
HETATM    3  C   UNL     1      43.011 -13.196   3.873  1.00  0.00     0.138 C 
HETATM    4  N   UNL     1      42.426 -12.324   2.977  1.00  0.00    -0.240 N 
HETATM    5  N   UNL     1      42.062 -12.905   1.825  1.00  0.00    -0.181 NA
HETATM    6  C   UNL     1      42.266 -14.202   2.057  1.00  0.00     0.160 C 
HETATM    7  C   UNL     1      42.829 -14.459   3.331  1.00  0.00     0.096 C 
HETATM    8  C   UNL     1      42.387 -10.882   3.133  1.00  0.00     0.221 C 
HETATM    9  C   UNL     1      42.663 -10.502   4.594  1.00  0.00     0.066 C 
HETATM   10  H   UNL     1      44.389 -13.271   5.390  1.00  0.00     0.161 HD
ENDROOT
BRANCH   7  11
HETATM   11  C   UNL     1      43.140 -15.779   3.857  1.00  0.00     0.261 C 
HETATM   12  N   UNL     1      43.108 -16.787   2.913  1.00  0.00    -0.323 N 
HETATM   13  H   UNL     1      42.908 -16.494   1.965  1.00  0.00     0.169 HD
HETATM   14  O   UNL     1      43.421 -15.917   5.043  1.00  0.00    -0.267 OA
BRANCH  12  15
HETATM   15  C   UNL     1      43.374 -18.159   3.110  1.00  0.00     0.037 A 
HETATM   16  C   UNL     1      43.863 -18.695   4.306  1.00  0.00     0.066 A 
HETATM   17  C   UNL     1      44.106 -20.065   4.407  1.00  0.00     0.067 A 
HETATM   18  C   UNL     1      43.857 -20.917   3.340  1.00  0.00     0.036 A 
HETATM   19  C   UNL     1      43.367 -20.394   2.147  1.00  0.00     0.005 A 
HETATM   20  C   UNL     1      43.134 -19.020   2.030  1.00  0.00     0.029 A 
BRANCH  17  21
HETATM   21  O   UNL     1      44.602 -20.612   5.554  1.00  0.00    -0.361 OA
HETATM   22  H   UNL     1      44.966 -21.488   5.344  1.00  0.00     0.217 HD
ENDBRANCH  17  21
ENDBRANCH  12  15
ENDBRANCH   7  11
BRANCH   1  23
HETATM   23  C   UNL     1      44.131 -10.920   6.575  1.00  0.00    -0.035 A 
HETATM   24  C   UNL     1      45.411 -11.101   7.122  1.00  0.00     0.012 A 
HETATM   25  C   UNL     1      45.705 -10.676   8.423  1.00  0.00     0.037 A 
HETATM   26  C   UNL     1      44.724 -10.057   9.197  1.00  0.00     0.068 A 
HETATM   27  C   UNL     1      43.442  -9.898   8.672  1.00  0.00     0.037 A 
HETATM   28  C   UNL     1      43.145 -10.320   7.373  1.00  0.00     0.012 A 
BRANCH  26  29
HETATM   29  O   UNL     1      44.891  -9.575  10.466  1.00  0.00    -0.356 OA
HETATM   30  C   UNL     1      43.772  -9.673  11.339  1.00  0.00     0.210 C 
ENDBRANCH  26  29
ENDBRANCH   1  23
BRANCH   8  31
HETATM   31  C   UNL     1      41.058 -10.299   2.701  1.00  0.00     0.409 C 
HETATM   32  F   UNL     1      40.957 -10.182   1.358  1.00  0.00    -0.169 F 
HETATM   33  F   UNL     1      40.053 -11.129   3.094  1.00  0.00    -0.169 F 
HETATM   34  F   UNL     1      40.788  -9.100   3.256  1.00  0.00    -0.169 F 
ENDBRANCH   8  31
TORSDOF 6
ENDMDL
MODEL 6
REMARK VINA RESULT:      -8.5      2.045      2.453
REMARK  6 active torsions:
REMARK  status: ('A' for Active; 'I' for Inactive)
REMARK    1  A    between atoms: O_2  and  C_3 
REMARK    2  A    between atoms: C_6  and  C_7 
REMARK    3  A    between atoms: C_13  and  C_14 
REMARK       I    between atoms: C_14  and  N_15 
REMARK    4  A    between atoms: N_15  and  C_16 
REMARK    5  A    between atoms: C_18  and  O_19 
REMARK    6  A    between atoms: C_24  and  C_25 
ROOT
HETATM    1  C   UNL     1      41.278 -15.231   3.879  1.00  0.00     0.118 C 
HETATM    2  N   UNL     1      42.025 -14.247   4.680  1.00  0.00    -0.365 N 
HETATM    3  C   UNL     1      41.532 -12.976   4.765  1.00  0.00     0.138 C 
HETATM    4  N   UNL     1      40.528 -12.548   3.921  1.00  0.00    -0.240 N 
HETATM    5  N   UNL     1      40.023 -11.352   4.255  1.00  0.00    -0.181 NA
HETATM    6  C   UNL     1      40.835 -10.936   5.228  1.00  0.00     0.160 C 
HETATM    7  C   UNL     1      41.822 -11.891   5.577  1.00  0.00     0.096 C 
HETATM    8  C   UNL     1      39.900 -13.366   2.900  1.00  0.00     0.221 C 
HETATM    9  C   UNL     1      40.783 -14.581   2.582  1.00  0.00     0.066 C 
HETATM   10  H   UNL     1      42.380 -14.678   5.536  1.00  0.00     0.161 HD
ENDROOT
BRANCH   7  11
HETATM   11  C   UNL     1      42.849 -11.700   6.589  1.00  0.00     0.261 C 
HETATM   12  N   UNL     1      42.698 -10.550   7.339  1.00  0.00    -0.323 N 
HETATM   13  H   UNL     1      41.881  -9.991   7.127  1.00  0.00     0.169 HD
HETATM   14  O   UNL     1      43.735 -12.537   6.730  1.00  0.00    -0.267 OA
BRANCH  12  15
HETATM   15  C   UNL     1      43.519 -10.097   8.394  1.00  0.00     0.037 A 
HETATM   16  C   UNL     1      43.086  -9.963   9.717  1.00  0.00     0.066 A 
HETATM   17  C   UNL     1      43.966  -9.499  10.694  1.00  0.00     0.067 A 
HETATM   18  C   UNL     1      45.279  -9.175  10.381  1.00  0.00     0.036 A 
HETATM   19  C   UNL     1      45.720  -9.308   9.068  1.00  0.00     0.005 A 
HETATM   20  C   UNL     1      44.842  -9.759   8.077  1.00  0.00     0.029 A 
BRANCH  17  21
HETATM   21  O   UNL     1      43.564  -9.339  11.989  1.00  0.00    -0.361 OA
HETATM   22  H   UNL     1      43.608 -10.203  12.432  1.00  0.00     0.217 HD
ENDBRANCH  17  21
ENDBRANCH  12  15
ENDBRANCH   7  11
BRANCH   1  23
HETATM   23  C   UNL     1      42.155 -16.427   3.564  1.00  0.00    -0.035 A 
HETATM   24  C   UNL     1      43.076 -16.895   4.515  1.00  0.00     0.012 A 
HETATM   25  C   UNL     1      43.825 -18.054   4.282  1.00  0.00     0.037 A 
HETATM   26  C   UNL     1      43.662 -18.769   3.096  1.00  0.00     0.068 A 
HETATM   27  C   UNL     1      42.769 -18.297   2.133  1.00  0.00     0.037 A 
HETATM   28  C   UNL     1      42.018 -17.140   2.363  1.00  0.00     0.012 A 
BRANCH  26  29
HETATM   29  O   UNL     1      44.311 -19.925   2.761  1.00  0.00    -0.356 OA
HETATM   30  C   UNL     1      43.951 -21.093   3.488  1.00  0.00     0.210 C 
ENDBRANCH  26  29
ENDBRANCH   1  23
BRANCH   8  31
HETATM   31  C   UNL     1      39.635 -12.587   1.630  1.00  0.00     0.409 C 
HETATM   32  F   UNL     1      40.622 -11.708   1.348  1.00  0.00    -0.169 F 
HETATM   33  F   UNL     1      39.572 -13.449   0.578  1.00  0.00    -0.169 F 
HETATM   34  F   UNL     1      38.461 -11.924   1.637  1.00  0.00    -0.169 F 
ENDBRANCH   8  31
TORSDOF 6
ENDMDL
MODEL 7
REMARK VINA RESULT:      -8.5      3.523      7.997
REMARK  6 active torsions:
REMARK  status: ('A' for Active; 'I' for Inactive)
REMARK    1  A    between atoms: O_2  and  C_3 
REMARK    2  A    between atoms: C_6  and  C_7 
REMARK    3  A    between atoms: C_13  and  C_14 
REMARK       I    between atoms: C_14  and  N_15 
REMARK    4  A    between atoms: N_15  and  C_16 
REMARK    5  A    between atoms: C_18  and  O_19 
REMARK    6  A    between atoms: C_24  and  C_25 
ROOT
HETATM    1  C   UNL     1      42.377 -13.763   5.670  1.00  0.00     0.118 C 
HETATM    2  N   UNL     1      41.849 -13.473   4.327  1.00  0.00    -0.365 N 
HETATM    3  C   UNL     1      41.532 -14.524   3.516  1.00  0.00     0.138 C 
HETATM    4  N   UNL     1      41.939 -15.806   3.826  1.00  0.00    -0.240 N 
HETATM    5  N   UNL     1      41.390 -16.746   3.044  1.00  0.00    -0.181 NA
HETATM    6  C   UNL     1      40.752 -16.036   2.113  1.00  0.00     0.160 C 
HETATM    7  C   UNL     1      40.826 -14.638   2.329  1.00  0.00     0.096 C 
HETATM    8  C   UNL     1      42.706 -16.168   5.004  1.00  0.00     0.221 C 
HETATM    9  C   UNL     1      43.378 -14.922   5.598  1.00  0.00     0.066 C 
HETATM   10  H   UNL     1      41.198 -12.685   4.361  1.00  0.00     0.161 HD
ENDROOT
BRANCH   7  11
HETATM   11  C   UNL     1      40.240 -13.626   1.464  1.00  0.00     0.261 C 
HETATM   12  N   UNL     1      40.428 -13.856   0.114  1.00  0.00    -0.323 N 
HETATM   13  H   UNL     1      40.917 -14.711  -0.121  1.00  0.00     0.169 HD
HETATM   14  O   UNL     1      39.624 -12.684   1.951  1.00  0.00    -0.267 OA
BRANCH  12  15
HETATM   15  C   UNL     1      39.973 -13.068  -0.964  1.00  0.00     0.037 A 
HETATM   16  C   UNL     1      38.692 -13.168  -1.517  1.00  0.00     0.066 A 
HETATM   17  C   UNL     1      38.332 -12.353  -2.590  1.00  0.00     0.067 A 
HETATM   18  C   UNL     1      39.221 -11.428  -3.118  1.00  0.00     0.036 A 
HETATM   19  C   UNL     1      40.497 -11.320  -2.573  1.00  0.00     0.005 A 
HETATM   20  C   UNL     1      40.874 -12.142  -1.506  1.00  0.00     0.029 A 
BRANCH  17  21
HETATM   21  O   UNL     1      37.095 -12.443  -3.162  1.00  0.00    -0.361 OA
HETATM   22  H   UNL     1      36.486 -12.839  -2.515  1.00  0.00     0.217 HD
ENDBRANCH  17  21
ENDBRANCH  12  15
ENDBRANCH   7  11
BRANCH   1  23
HETATM   23  C   UNL     1      43.042 -12.531   6.252  1.00  0.00    -0.035 A 
HETATM   24  C   UNL     1      42.334 -11.323   6.337  1.00  0.00     0.012 A 
HETATM   25  C   UNL     1      42.896 -10.201   6.958  1.00  0.00     0.037 A 
HETATM   26  C   UNL     1      44.174 -10.271   7.509  1.00  0.00     0.068 A 
HETATM   27  C   UNL     1      44.897 -11.460   7.406  1.00  0.00     0.037 A 
HETATM   28  C   UNL     1      44.338 -12.582   6.788  1.00  0.00     0.012 A 
BRANCH  26  29
HETATM   29  O   UNL     1      44.822  -9.259   8.163  1.00  0.00    -0.356 OA
HETATM   30  C   UNL     1      46.239  -9.229   8.048  1.00  0.00     0.210 C 
ENDBRANCH  26  29
ENDBRANCH   1  23
BRANCH   8  31
HETATM   31  C   UNL     1      43.759 -17.212   4.699  1.00  0.00     0.409 C 
HETATM   32  F   UNL     1      43.340 -18.466   4.982  1.00  0.00    -0.169 F 
HETATM   33  F   UNL     1      44.042 -17.191   3.367  1.00  0.00    -0.169 F 
HETATM   34  F   UNL     1      44.931 -17.000   5.331  1.00  0.00    -0.169 F 
ENDBRANCH   8  31
TORSDOF 6
ENDMDL
MODEL 8
REMARK VINA RESULT:      -8.5      3.593      6.915
REMARK  6 active torsions:
REMARK  status: ('A' for Active; 'I' for Inactive)
REMARK    1  A    between atoms: O_2  and  C_3 
REMARK    2  A    between atoms: C_6  and  C_7 
REMARK    3  A    between atoms: C_13  and  C_14 
REMARK       I    between atoms: C_14  and  N_15 
REMARK    4  A    between atoms: N_15  and  C_16 
REMARK    5  A    between atoms: C_18  and  O_19 
REMARK    6  A    between atoms: C_24  and  C_25 
ROOT
HETATM    1  C   UNL     1      43.258 -14.200   3.556  1.00  0.00     0.118 C 
HETATM    2  N   UNL     1      42.012 -13.825   2.868  1.00  0.00    -0.365 N 
HETATM    3  C   UNL     1      41.562 -12.543   3.000  1.00  0.00     0.138 C 
HETATM    4  N   UNL     1      42.095 -11.700   3.954  1.00  0.00    -0.240 N 
HETATM    5  N   UNL     1      41.690 -10.428   3.831  1.00  0.00    -0.181 NA
HETATM    6  C   UNL     1      40.752 -10.495   2.885  1.00  0.00     0.160 C 
HETATM    7  C   UNL     1      40.598 -11.795   2.344  1.00  0.00     0.096 C 
HETATM    8  C   UNL     1      43.156 -12.061   4.877  1.00  0.00     0.221 C 
HETATM    9  C   UNL     1      43.285 -13.588   4.961  1.00  0.00     0.066 C 
HETATM   10  H   UNL     1      41.975 -14.249   1.939  1.00  0.00     0.161 HD
ENDROOT
BRANCH   7  11
HETATM   11  C   UNL     1      39.639 -12.164   1.314  1.00  0.00     0.261 C 
HETATM   12  N   UNL     1      40.208 -12.706   0.177  1.00  0.00    -0.323 N 
HETATM   13  H   UNL     1      41.214 -12.816   0.200  1.00  0.00     0.169 HD
HETATM   14  O   UNL     1      38.438 -12.004   1.507  1.00  0.00    -0.267 OA
BRANCH  12  15
HETATM   15  C   UNL     1      39.545 -13.167  -0.980  1.00  0.00     0.037 A 
HETATM   16  C   UNL     1      39.305 -14.517  -1.256  1.00  0.00     0.066 A 
HETATM   17  C   UNL     1      38.650 -14.882  -2.431  1.00  0.00     0.067 A 
HETATM   18  C   UNL     1      38.217 -13.924  -3.337  1.00  0.00     0.036 A 
HETATM   19  C   UNL     1      38.449 -12.577  -3.071  1.00  0.00     0.005 A 
HETATM   20  C   UNL     1      39.118 -12.201  -1.901  1.00  0.00     0.029 A 
BRANCH  17  21
HETATM   21  O   UNL     1      38.420 -16.192  -2.735  1.00  0.00    -0.361 OA
HETATM   22  H   UNL     1      38.232 -16.259  -3.687  1.00  0.00     0.217 HD
ENDBRANCH  17  21
ENDBRANCH  12  15
ENDBRANCH   7  11
BRANCH   1  23
HETATM   23  C   UNL     1      43.380 -15.709   3.640  1.00  0.00    -0.035 A 
HETATM   24  C   UNL     1      43.144 -16.498   2.503  1.00  0.00     0.012 A 
HETATM   25  C   UNL     1      43.344 -17.884   2.535  1.00  0.00     0.037 A 
HETATM   26  C   UNL     1      43.789 -18.502   3.702  1.00  0.00     0.068 A 
HETATM   27  C   UNL     1      44.000 -17.730   4.845  1.00  0.00     0.037 A 
HETATM   28  C   UNL     1      43.802 -16.347   4.816  1.00  0.00     0.012 A 
BRANCH  26  29
HETATM   29  O   UNL     1      44.047 -19.837   3.854  1.00  0.00    -0.356 OA
HETATM   30  C   UNL     1      44.069 -20.335   5.186  1.00  0.00     0.210 C 
ENDBRANCH  26  29
ENDBRANCH   1  23
BRANCH   8  31
HETATM   31  C   UNL     1      42.922 -11.496   6.261  1.00  0.00     0.409 C 
HETATM   32  F   UNL     1      41.609 -11.415   6.571  1.00  0.00    -0.169 F 
HETATM   33  F   UNL     1      43.488 -12.321   7.186  1.00  0.00    -0.169 F 
HETATM   34  F   UNL     1      43.482 -10.285   6.453  1.00  0.00    -0.169 F 
ENDBRANCH   8  31
TORSDOF 6
ENDMDL
MODEL 9
REMARK VINA RESULT:      -8.2      3.165      3.851
REMARK  6 active torsions:
REMARK  status: ('A' for Active; 'I' for Inactive)
REMARK    1  A    between atoms: O_2  and  C_3 
REMARK    2  A    between atoms: C_6  and  C_7 
REMARK    3  A    between atoms: C_13  and  C_14 
REMARK       I    between atoms: C_14  and  N_15 
REMARK    4  A    between atoms: N_15  and  C_16 
REMARK    5  A    between atoms: C_18  and  O_19 
REMARK    6  A    between atoms: C_24  and  C_25 
ROOT
HETATM    1  C   UNL     1      39.991 -14.697   1.203  1.00  0.00     0.118 C 
HETATM    2  N   UNL     1      39.791 -13.391   1.852  1.00  0.00    -0.365 N 
HETATM    3  C   UNL     1      39.181 -12.402   1.137  1.00  0.00     0.138 C 
HETATM    4  N   UNL     1      38.998 -12.521  -0.226  1.00  0.00    -0.240 N 
HETATM    5  N   UNL     1      38.218 -11.564  -0.747  1.00  0.00    -0.181 NA
HETATM    6  C   UNL     1      38.036 -10.725   0.274  1.00  0.00     0.160 C 
HETATM    7  C   UNL     1      38.638 -11.172   1.476  1.00  0.00     0.096 C 
HETATM    8  C   UNL     1      39.407 -13.667  -1.017  1.00  0.00     0.221 C 
HETATM    9  C   UNL     1      40.444 -14.496  -0.247  1.00  0.00     0.066 C 
HETATM   10  H   UNL     1      39.512 -13.516   2.827  1.00  0.00     0.161 HD
ENDROOT
BRANCH   7  11
HETATM   11  C   UNL     1      38.617 -10.452   2.740  1.00  0.00     0.261 C 
HETATM   12  N   UNL     1      39.425 -11.000   3.718  1.00  0.00    -0.323 N 
HETATM   13  H   UNL     1      39.962 -11.812   3.439  1.00  0.00     0.169 HD
HETATM   14  O   UNL     1      37.938  -9.438   2.857  1.00  0.00    -0.267 OA
BRANCH  12  15
HETATM   15  C   UNL     1      39.625 -10.528   5.033  1.00  0.00     0.037 A 
HETATM   16  C   UNL     1      38.994 -11.065   6.159  1.00  0.00     0.066 A 
HETATM   17  C   UNL     1      39.245 -10.527   7.421  1.00  0.00     0.067 A 
HETATM   18  C   UNL     1      40.126  -9.467   7.586  1.00  0.00     0.036 A 
HETATM   19  C   UNL     1      40.761  -8.927   6.471  1.00  0.00     0.005 A 
HETATM   20  C   UNL     1      40.505  -9.450   5.199  1.00  0.00     0.029 A 
BRANCH  17  21
HETATM   21  O   UNL     1      38.628 -11.019   8.535  1.00  0.00    -0.361 OA
HETATM   22  H   UNL     1      37.676 -10.841   8.462  1.00  0.00     0.217 HD
ENDBRANCH  17  21
ENDBRANCH  12  15
ENDBRANCH   7  11
BRANCH   1  23
HETATM   23  C   UNL     1      41.019 -15.512   1.964  1.00  0.00    -0.035 A 
HETATM   24  C   UNL     1      42.258 -15.808   1.376  1.00  0.00     0.012 A 
HETATM   25  C   UNL     1      43.256 -16.476   2.098  1.00  0.00     0.037 A 
HETATM   26  C   UNL     1      43.032 -16.853   3.421  1.00  0.00     0.068 A 
HETATM   27  C   UNL     1      41.793 -16.586   4.005  1.00  0.00     0.037 A 
HETATM   28  C   UNL     1      40.796 -15.919   3.288  1.00  0.00     0.012 A 
BRANCH  26  29
HETATM   29  O   UNL     1      43.929 -17.483   4.238  1.00  0.00    -0.356 OA
HETATM   30  C   UNL     1      44.335 -18.790   3.853  1.00  0.00     0.210 C 
ENDBRANCH  26  29
ENDBRANCH   1  23
BRANCH   8  31
HETATM   31  C   UNL     1      39.981 -13.257  -2.357  1.00  0.00     0.409 C 
HETATM   32  F   UNL     1      40.827 -12.208  -2.258  1.00  0.00    -0.169 F 
HETATM   33  F   UNL     1      40.703 -14.290  -2.872  1.00  0.00    -0.169 F 
HETATM   34  F   UNL     1      39.043 -12.964  -3.280  1.00  0.00    -0.169 F 
ENDBRANCH   8  31
TORSDOF 6
ENDMDL
MODEL 10
REMARK VINA RESULT:      -8.2     16.770     17.900
REMARK  6 active torsions:
REMARK  status: ('A' for Active; 'I' for Inactive)
REMARK    1  A    between atoms: O_2  and  C_3 
REMARK    2  A    between atoms: C_6  and  C_7 
REMARK    3  A    between atoms: C_13  and  C_14 
REMARK       I    between atoms: C_14  and  N_15 
REMARK    4  A    between atoms: N_15  and  C_16 
REMARK    5  A    between atoms: C_18  and  O_19 
REMARK    6  A    between atoms: C_24  and  C_25 
ROOT
HETATM    1  C   UNL     1      44.138 -29.604   0.255  1.00  0.00     0.118 C 
HETATM    2  N   UNL     1      45.491 -30.117   0.525  1.00  0.00    -0.365 N 
HETATM    3  C   UNL     1      46.538 -29.565  -0.154  1.00  0.00     0.138 C 
HETATM    4  N   UNL     1      46.323 -28.749  -1.246  1.00  0.00    -0.240 N 
HETATM    5  N   UNL     1      47.432 -28.134  -1.681  1.00  0.00    -0.181 NA
HETATM    6  C   UNL     1      48.400 -28.697  -0.958  1.00  0.00     0.160 C 
HETATM    7  C   UNL     1      47.915 -29.626  -0.004  1.00  0.00     0.096 C 
HETATM    8  C   UNL     1      45.016 -28.391  -1.767  1.00  0.00     0.221 C 
HETATM    9  C   UNL     1      43.956 -29.373  -1.248  1.00  0.00     0.066 C 
HETATM   10  H   UNL     1      45.613 -30.298   1.524  1.00  0.00     0.161 HD
ENDROOT
BRANCH   7  11
HETATM   11  C   UNL     1      48.744 -30.402   0.905  1.00  0.00     0.261 C 
HETATM   12  N   UNL     1      48.613 -30.047   2.234  1.00  0.00    -0.323 N 
HETATM   13  H   UNL     1      47.937 -29.319   2.429  1.00  0.00     0.169 HD
HETATM   14  O   UNL     1      49.461 -31.296   0.470  1.00  0.00    -0.267 OA
BRANCH  12  15
HETATM   15  C   UNL     1      49.270 -30.617   3.346  1.00  0.00     0.037 A 
HETATM   16  C   UNL     1      48.657 -31.488   4.252  1.00  0.00     0.066 A 
HETATM   17  C   UNL     1      49.382 -31.996   5.328  1.00  0.00     0.067 A 
HETATM   18  C   UNL     1      50.717 -31.662   5.515  1.00  0.00     0.036 A 
HETATM   19  C   UNL     1      51.336 -30.798   4.617  1.00  0.00     0.005 A 
HETATM   20  C   UNL     1      50.613 -30.271   3.542  1.00  0.00     0.029 A 
BRANCH  17  21
HETATM   21  O   UNL     1      48.804 -32.833   6.239  1.00  0.00    -0.361 OA
HETATM   22  H   UNL     1      48.396 -32.292   6.936  1.00  0.00     0.217 HD
ENDBRANCH  17  21
ENDBRANCH  12  15
ENDBRANCH   7  11
BRANCH   1  23
HETATM   23  C   UNL     1      43.094 -30.579   0.766  1.00  0.00    -0.035 A 
HETATM   24  C   UNL     1      43.141 -31.927   0.378  1.00  0.00     0.012 A 
HETATM   25  C   UNL     1      42.245 -32.861   0.913  1.00  0.00     0.037 A 
HETATM   26  C   UNL     1      41.292 -32.463   1.850  1.00  0.00     0.068 A 
HETATM   27  C   UNL     1      41.221 -31.120   2.221  1.00  0.00     0.037 A 
HETATM   28  C   UNL     1      42.114 -30.185   1.689  1.00  0.00     0.012 A 
BRANCH  26  29
HETATM   29  O   UNL     1      40.383 -33.279   2.464  1.00  0.00    -0.356 OA
HETATM   30  C   UNL     1      39.496 -32.663   3.391  1.00  0.00     0.210 C 
ENDBRANCH  26  29
ENDBRANCH   1  23
BRANCH   8  31
HETATM   31  C   UNL     1      44.992 -28.373  -3.280  1.00  0.00     0.409 C 
HETATM   32  F   UNL     1      45.872 -29.245  -3.821  1.00  0.00    -0.169 F 
HETATM   33  F   UNL     1      43.758 -28.749  -3.715  1.00  0.00    -0.169 F 
HETATM   34  F   UNL     1      45.218 -27.154  -3.810  1.00  0.00    -0.169 F 
ENDBRANCH   8  31
TORSDOF 6
ENDMDL
