MODEL 1
REMARK VINA RESULT:     -10.5      0.000      0.000
REMARK  9 active torsions:
REMARK  status: ('A' for Active; 'I' for Inactive)
REMARK    1  A    between atoms: C_2  and  C_3 
REMARK    2  A    between atoms: C_4  and  N_5 
REMARK       I    between atoms: N_5  and  C_6 
REMARK    3  A    between atoms: C_6  and  C_7 
REMARK    4  A    between atoms: C_7  and  N_8 
REMARK    5  A    between atoms: N_12  and  C_13 
REMARK    6  A    between atoms: C_15  and  N_16 
REMARK    7  A    between atoms: N_16  and  C_17 
REMARK    8  A    between atoms: C_24  and  N_25 
REMARK    9  A    between atoms: N_25  and  C_26 
ROOT
HETATM    1  C   UNL     1      41.141 -14.617   4.510  1.00  0.00     0.240 A 
HETATM    2  N   UNL     1      40.291 -14.179   3.599  1.00  0.00    -0.030 NA
HETATM    3  C   UNL     1      40.495 -14.581   2.348  1.00  0.00     0.745 A 
HETATM    4  N   UNL     1      41.492 -15.372   1.983  1.00  0.00     0.131 NA
HETATM    5  C   UNL     1      42.267 -15.818   2.964  1.00  0.00     0.745 A 
HETATM    6  N   UNL     1      42.156 -15.409   4.222  1.00  0.00    -0.030 NA
ENDROOT
BRANCH   1   7
HETATM    7  N   UNL     1      41.000 -14.187   5.832  1.00  0.00    -0.247 NA
HETATM    8  C   UNL     1      39.901 -13.243   6.082  1.00  0.00     0.126 C 
HETATM    9  C   UNL     1      40.275 -11.798   5.686  1.00  0.00     0.250 C 
HETATM   10  N   UNL     1      41.591 -11.400   6.339  1.00  0.00    -0.060 N 
HETATM   11  H   UNL     1      41.476 -11.444   7.366  1.00  0.00     0.280 HD
HETATM   12  C   UNL     1      42.712 -12.399   6.021  1.00  0.00     0.250 C 
HETATM   13  C   UNL     1      42.287 -13.823   6.450  1.00  0.00     0.126 C 
BRANCH  10  14
HETATM   14  C   UNL     1      41.984  -9.953   6.064  1.00  0.00     0.337 C 
BRANCH  14  15
HETATM   15  C   UNL     1      42.391  -9.258   7.367  1.00  0.00     0.248 C 
HETATM   16  N   UNL     1      42.374 -10.074   8.482  1.00  0.00    -0.325 N 
HETATM   17  H   UNL     1      41.764 -10.881   8.434  1.00  0.00     0.169 HD
HETATM   18  O   UNL     1      42.642  -8.053   7.328  1.00  0.00    -0.271 OA
BRANCH  16  19
HETATM   19  C   UNL     1      42.579  -9.572   9.793  1.00  0.00     0.047 A 
HETATM   20  C   UNL     1      43.866  -9.436  10.361  1.00  0.00    -0.031 A 
HETATM   21  C   UNL     1      43.978  -8.889  11.654  1.00  0.00     0.009 A 
HETATM   22  C   UNL     1      42.853  -8.517  12.381  1.00  0.00     0.001 A 
HETATM   23  C   UNL     1      41.588  -8.709  11.843  1.00  0.00     0.009 A 
HETATM   24  C   UNL     1      41.431  -9.245  10.556  1.00  0.00    -0.035 A 
HETATM   25  C   UNL     1      40.030  -9.410  10.027  1.00  0.00     0.050 C 
BRANCH  20  26
HETATM   26  C   UNL     1      45.138  -9.987   9.747  1.00  0.00     0.036 C 
HETATM   27  C   UNL     1      45.785  -8.988   8.796  1.00  0.00     0.010 C 
ENDBRANCH  20  26
ENDBRANCH  16  19
ENDBRANCH  14  15
ENDBRANCH  10  14
ENDBRANCH   1   7
BRANCH   3  28
HETATM   28  N   UNL     1      39.685 -14.095   1.323  1.00  0.00    -0.188 N 
HETATM   29  H   UNL     1      38.848 -13.671   1.699  1.00  0.00     0.184 HD
BRANCH  28  30
HETATM   30  C   UNL     1      39.970 -13.785  -0.015  1.00  0.00     0.049 A 
HETATM   31  C   UNL     1      40.674 -12.605  -0.298  1.00  0.00     0.030 A 
HETATM   32  C   UNL     1      40.939 -12.222  -1.616  1.00  0.00     0.002 A 
HETATM   33  C   UNL     1      40.501 -13.012  -2.673  1.00  0.00     0.000 A 
HETATM   34  C   UNL     1      39.794 -14.182  -2.414  1.00  0.00     0.002 A 
HETATM   35  C   UNL     1      39.524 -14.558  -1.095  1.00  0.00     0.030 A 
ENDBRANCH  28  30
ENDBRANCH   3  28
BRANCH   5  36
HETATM   36  N   UNL     1      43.267 -16.721   2.601  1.00  0.00    -0.188 N 
HETATM   37  H   UNL     1      43.581 -16.524   1.660  1.00  0.00     0.184 HD
BRANCH  36  38
HETATM   38  C   UNL     1      43.481 -18.052   3.006  1.00  0.00     0.049 A 
HETATM   39  C   UNL     1      44.045 -18.407   4.238  1.00  0.00     0.030 A 
HETATM   40  C   UNL     1      44.258 -19.747   4.578  1.00  0.00     0.002 A 
HETATM   41  C   UNL     1      43.932 -20.755   3.678  1.00  0.00     0.000 A 
HETATM   42  C   UNL     1      43.398 -20.424   2.437  1.00  0.00     0.002 A 
HETATM   43  C   UNL     1      43.180 -19.083   2.104  1.00  0.00     0.030 A 
ENDBRANCH  36  38
ENDBRANCH   5  36
TORSDOF 9
ENDMDL
MODEL 2
REMARK VINA RESULT:     -10.5      0.065      5.016
REMARK  9 active torsions:
REMARK  status: ('A' for Active; 'I' for Inactive)
REMARK    1  A    between atoms: C_2  and  C_3 
REMARK    2  A    between atoms: C_4  and  N_5 
REMARK       I    between atoms: N_5  and  C_6 
REMARK    3  A    between atoms: C_6  and  C_7 
REMARK    4  A    between atoms: C_7  and  N_8 
REMARK    5  A    between atoms: N_12  and  C_13 
REMARK    6  A    between atoms: C_15  and  N_16 
REMARK    7  A    between atoms: N_16  and  C_17 
REMARK    8  A    between atoms: C_24  and  N_25 
REMARK    9  A    between atoms: N_25  and  C_26 
ROOT
HETATM    1  C   UNL     1      41.236 -14.622   4.476  1.00  0.00     0.240 A 
HETATM    2  N   UNL     1      42.237 -15.428   4.167  1.00  0.00    -0.030 NA
HETATM    3  C   UNL     1      42.311 -15.831   2.902  1.00  0.00     0.745 A 
HETATM    4  N   UNL     1      41.445 -15.479   1.965  1.00  0.00     0.131 NA
HETATM    5  C   UNL     1      40.504 -14.620   2.340  1.00  0.00     0.745 A 
HETATM    6  N   UNL     1      40.336 -14.227   3.596  1.00  0.00    -0.030 NA
ENDROOT
BRANCH   1   7
HETATM    7  N   UNL     1      41.084 -14.207   5.801  1.00  0.00    -0.247 NA
HETATM    8  C   UNL     1      39.960 -13.296   6.061  1.00  0.00     0.126 C 
HETATM    9  C   UNL     1      40.294 -11.838   5.676  1.00  0.00     0.250 C 
HETATM   10  N   UNL     1      41.600 -11.410   6.330  1.00  0.00    -0.060 N 
HETATM   11  H   UNL     1      41.487 -11.464   7.358  1.00  0.00     0.280 HD
HETATM   12  C   UNL     1      42.747 -12.374   6.003  1.00  0.00     0.250 C 
HETATM   13  C   UNL     1      42.362 -13.813   6.420  1.00  0.00     0.126 C 
BRANCH  10  14
HETATM   14  C   UNL     1      41.953  -9.950   6.068  1.00  0.00     0.337 C 
BRANCH  14  15
HETATM   15  C   UNL     1      42.369  -9.262   7.371  1.00  0.00     0.248 C 
HETATM   16  N   UNL     1      42.339 -10.078   8.485  1.00  0.00    -0.325 N 
HETATM   17  H   UNL     1      41.716 -10.876   8.436  1.00  0.00     0.169 HD
HETATM   18  O   UNL     1      42.639  -8.061   7.333  1.00  0.00    -0.271 OA
BRANCH  16  19
HETATM   19  C   UNL     1      42.551  -9.581   9.797  1.00  0.00     0.047 A 
HETATM   20  C   UNL     1      43.840  -9.447  10.359  1.00  0.00    -0.031 A 
HETATM   21  C   UNL     1      43.959  -8.905  11.653  1.00  0.00     0.009 A 
HETATM   22  C   UNL     1      42.838  -8.533  12.387  1.00  0.00     0.001 A 
HETATM   23  C   UNL     1      41.570  -8.723  11.854  1.00  0.00     0.009 A 
HETATM   24  C   UNL     1      41.407  -9.256  10.566  1.00  0.00    -0.035 A 
HETATM   25  C   UNL     1      40.003  -9.418  10.044  1.00  0.00     0.050 C 
BRANCH  20  26
HETATM   26  C   UNL     1      45.109  -9.997   9.737  1.00  0.00     0.036 C 
HETATM   27  C   UNL     1      45.766  -8.986   8.806  1.00  0.00     0.010 C 
ENDBRANCH  20  26
ENDBRANCH  16  19
ENDBRANCH  14  15
ENDBRANCH  10  14
ENDBRANCH   1   7
BRANCH   3  28
HETATM   28  N   UNL     1      43.293 -16.745   2.522  1.00  0.00    -0.188 N 
HETATM   29  H   UNL     1      44.068 -16.271   2.078  1.00  0.00     0.184 HD
BRANCH  28  30
HETATM   30  C   UNL     1      43.546 -18.060   2.939  1.00  0.00     0.049 A 
HETATM   31  C   UNL     1      43.197 -19.116   2.084  1.00  0.00     0.030 A 
HETATM   32  C   UNL     1      43.379 -20.447   2.470  1.00  0.00     0.002 A 
HETATM   33  C   UNL     1      43.908 -20.743   3.721  1.00  0.00     0.000 A 
HETATM   34  C   UNL     1      44.253 -19.710   4.588  1.00  0.00     0.002 A 
HETATM   35  C   UNL     1      44.062 -18.381   4.201  1.00  0.00     0.030 A 
ENDBRANCH  28  30
ENDBRANCH   3  28
BRANCH   5  36
HETATM   36  N   UNL     1      39.638 -14.175   1.339  1.00  0.00    -0.188 N 
HETATM   37  H   UNL     1      38.723 -14.585   1.471  1.00  0.00     0.184 HD
BRANCH  36  38
HETATM   38  C   UNL     1      39.905 -13.788   0.012  1.00  0.00     0.049 A 
HETATM   39  C   UNL     1      39.526 -14.541  -1.105  1.00  0.00     0.030 A 
HETATM   40  C   UNL     1      39.840 -14.121  -2.403  1.00  0.00     0.002 A 
HETATM   41  C   UNL     1      40.562 -12.949  -2.600  1.00  0.00     0.000 A 
HETATM   42  C   UNL     1      40.973 -12.200  -1.503  1.00  0.00     0.002 A 
HETATM   43  C   UNL     1      40.651 -12.621  -0.208  1.00  0.00     0.030 A 
ENDBRANCH  36  38
ENDBRANCH   5  36
TORSDOF 9
ENDMDL
MODEL 3
REMARK VINA RESULT:     -10.5      0.493      1.819
REMARK  9 active torsions:
REMARK  status: ('A' for Active; 'I' for Inactive)
REMARK    1  A    between atoms: C_2  and  C_3 
REMARK    2  A    between atoms: C_4  and  N_5 
REMARK       I    between atoms: N_5  and  C_6 
REMARK    3  A    between atoms: C_6  and  C_7 
REMARK    4  A    between atoms: C_7  and  N_8 
REMARK    5  A    between atoms: N_12  and  C_13 
REMARK    6  A    between atoms: C_15  and  N_16 
REMARK    7  A    between atoms: N_16  and  C_17 
REMARK    8  A    between atoms: C_24  and  N_25 
REMARK    9  A    between atoms: N_25  and  C_26 
ROOT
HETATM    1  C   UNL     1      41.033 -14.714   4.558  1.00  0.00     0.240 A 
HETATM    2  N   UNL     1      40.182 -14.374   3.605  1.00  0.00    -0.030 NA
HETATM    3  C   UNL     1      40.442 -14.827   2.382  1.00  0.00     0.745 A 
HETATM    4  N   UNL     1      41.492 -15.576   2.082  1.00  0.00     0.131 NA
HETATM    5  C   UNL     1      42.265 -15.924   3.103  1.00  0.00     0.745 A 
HETATM    6  N   UNL     1      42.099 -15.459   4.335  1.00  0.00    -0.030 NA
ENDROOT
BRANCH   1   7
HETATM    7  N   UNL     1      40.833 -14.226   5.851  1.00  0.00    -0.247 NA
HETATM    8  C   UNL     1      40.037 -12.994   5.953  1.00  0.00     0.126 C 
HETATM    9  C   UNL     1      40.876 -11.734   5.642  1.00  0.00     0.250 C 
HETATM   10  N   UNL     1      42.140 -11.725   6.489  1.00  0.00    -0.060 N 
HETATM   11  H   UNL     1      41.868 -11.705   7.488  1.00  0.00     0.280 HD
HETATM   12  C   UNL     1      42.950 -13.018   6.324  1.00  0.00     0.250 C 
HETATM   13  C   UNL     1      42.065 -14.241   6.659  1.00  0.00     0.126 C 
BRANCH  10  14
HETATM   14  C   UNL     1      42.979 -10.466   6.302  1.00  0.00     0.337 C 
BRANCH  14  15
HETATM   15  C   UNL     1      42.879  -9.573   7.542  1.00  0.00     0.248 C 
HETATM   16  N   UNL     1      42.897 -10.255   8.744  1.00  0.00    -0.325 N 
HETATM   17  H   UNL     1      42.593 -11.221   8.712  1.00  0.00     0.169 HD
HETATM   18  O   UNL     1      42.743  -8.360   7.375  1.00  0.00    -0.271 OA
BRANCH  16  19
HETATM   19  C   UNL     1      42.669  -9.611   9.987  1.00  0.00     0.047 A 
HETATM   20  C   UNL     1      41.375  -9.264  10.436  1.00  0.00    -0.031 A 
HETATM   21  C   UNL     1      41.238  -8.664  11.702  1.00  0.00     0.009 A 
HETATM   22  C   UNL     1      42.348  -8.385  12.493  1.00  0.00     0.001 A 
HETATM   23  C   UNL     1      43.622  -8.673  12.022  1.00  0.00     0.009 A 
HETATM   24  C   UNL     1      43.802  -9.274  10.768  1.00  0.00    -0.035 A 
HETATM   25  C   UNL     1      45.211  -9.575  10.327  1.00  0.00     0.050 C 
BRANCH  20  26
HETATM   26  C   UNL     1      40.123  -9.339   9.584  1.00  0.00     0.036 C 
HETATM   27  C   UNL     1      39.019  -8.435  10.120  1.00  0.00     0.010 C 
ENDBRANCH  20  26
ENDBRANCH  16  19
ENDBRANCH  14  15
ENDBRANCH  10  14
ENDBRANCH   1   7
BRANCH   3  28
HETATM   28  N   UNL     1      39.632 -14.442   1.315  1.00  0.00    -0.188 N 
HETATM   29  H   UNL     1      38.692 -14.248   1.631  1.00  0.00     0.184 HD
BRANCH  28  30
HETATM   30  C   UNL     1      39.952 -13.961   0.037  1.00  0.00     0.049 A 
HETATM   31  C   UNL     1      40.663 -12.756  -0.070  1.00  0.00     0.030 A 
HETATM   32  C   UNL     1      40.963 -12.203  -1.319  1.00  0.00     0.002 A 
HETATM   33  C   UNL     1      40.550 -12.845  -2.482  1.00  0.00     0.000 A 
HETATM   34  C   UNL     1      39.836 -14.037  -2.397  1.00  0.00     0.002 A 
HETATM   35  C   UNL     1      39.532 -14.581  -1.146  1.00  0.00     0.030 A 
ENDBRANCH  28  30
ENDBRANCH   3  28
BRANCH   5  36
HETATM   36  N   UNL     1      43.325 -16.785   2.811  1.00  0.00    -0.188 N 
HETATM   37  H   UNL     1      43.766 -16.504   1.945  1.00  0.00     0.184 HD
BRANCH  36  38
HETATM   38  C   UNL     1      43.506 -18.144   3.128  1.00  0.00     0.049 A 
HETATM   39  C   UNL     1      44.014 -18.594   4.352  1.00  0.00     0.030 A 
HETATM   40  C   UNL     1      44.197 -19.958   4.604  1.00  0.00     0.002 A 
HETATM   41  C   UNL     1      43.897 -20.895   3.621  1.00  0.00     0.000 A 
HETATM   42  C   UNL     1      43.418 -20.468   2.386  1.00  0.00     0.002 A 
HETATM   43  C   UNL     1      43.230 -19.103   2.142  1.00  0.00     0.030 A 
ENDBRANCH  36  38
ENDBRANCH   5  36
TORSDOF 9
ENDMDL
MODEL 4
REMARK VINA RESULT:     -10.4      0.456      5.344
REMARK  9 active torsions:
REMARK  status: ('A' for Active; 'I' for Inactive)
REMARK    1  A    between atoms: C_2  and  C_3 
REMARK    2  A    between atoms: C_4  and  N_5 
REMARK       I    between atoms: N_5  and  C_6 
REMARK    3  A    between atoms: C_6  and  C_7 
REMARK    4  A    between atoms: C_7  and  N_8 
REMARK    5  A    between atoms: N_12  and  C_13 
REMARK    6  A    between atoms: C_15  and  N_16 
REMARK    7  A    between atoms: N_16  and  C_17 
REMARK    8  A    between atoms: C_24  and  N_25 
REMARK    9  A    between atoms: N_25  and  C_26 
ROOT
HETATM    1  C   UNL     1      41.206 -14.661   4.502  1.00  0.00     0.240 A 
HETATM    2  N   UNL     1      42.214 -15.462   4.206  1.00  0.00    -0.030 NA
HETATM    3  C   UNL     1      42.296 -15.881   2.947  1.00  0.00     0.745 A 
HETATM    4  N   UNL     1      41.431 -15.546   2.002  1.00  0.00     0.131 NA
HETATM    5  C   UNL     1      40.482 -14.690   2.363  1.00  0.00     0.745 A 
HETATM    6  N   UNL     1      40.307 -14.283   3.614  1.00  0.00    -0.030 NA
ENDROOT
BRANCH   1   7
HETATM    7  N   UNL     1      41.046 -14.231   5.821  1.00  0.00    -0.247 NA
HETATM    8  C   UNL     1      40.161 -13.072   6.013  1.00  0.00     0.126 C 
HETATM    9  C   UNL     1      40.874 -11.739   5.698  1.00  0.00     0.250 C 
HETATM   10  N   UNL     1      42.183 -11.650   6.470  1.00  0.00    -0.060 N 
HETATM   11  H   UNL     1      41.971 -11.683   7.483  1.00  0.00     0.280 HD
HETATM   12  C   UNL     1      43.083 -12.865   6.212  1.00  0.00     0.250 C 
HETATM   13  C   UNL     1      42.322 -14.167   6.555  1.00  0.00     0.126 C 
BRANCH  10  14
HETATM   14  C   UNL     1      42.903 -10.320   6.279  1.00  0.00     0.337 C 
BRANCH  14  15
HETATM   15  C   UNL     1      42.819  -9.483   7.558  1.00  0.00     0.248 C 
HETATM   16  N   UNL     1      42.807 -10.220   8.726  1.00  0.00    -0.325 N 
HETATM   17  H   UNL     1      42.475 -11.173   8.648  1.00  0.00     0.169 HD
HETATM   18  O   UNL     1      42.721  -8.260   7.446  1.00  0.00    -0.271 OA
BRANCH  16  19
HETATM   19  C   UNL     1      42.588  -9.627   9.996  1.00  0.00     0.047 A 
HETATM   20  C   UNL     1      41.295  -9.336  10.485  1.00  0.00    -0.031 A 
HETATM   21  C   UNL     1      41.168  -8.786  11.775  1.00  0.00     0.009 A 
HETATM   22  C   UNL     1      42.287  -8.500  12.551  1.00  0.00     0.001 A 
HETATM   23  C   UNL     1      43.558  -8.732  12.043  1.00  0.00     0.009 A 
HETATM   24  C   UNL     1      43.728  -9.283  10.764  1.00  0.00    -0.035 A 
HETATM   25  C   UNL     1      45.135  -9.524  10.283  1.00  0.00     0.050 C 
BRANCH  20  26
HETATM   26  C   UNL     1      40.026  -9.420   9.659  1.00  0.00     0.036 C 
HETATM   27  C   UNL     1      39.031  -8.331  10.038  1.00  0.00     0.010 C 
ENDBRANCH  20  26
ENDBRANCH  16  19
ENDBRANCH  14  15
ENDBRANCH  10  14
ENDBRANCH   1   7
BRANCH   3  28
HETATM   28  N   UNL     1      43.287 -16.791   2.582  1.00  0.00    -0.188 N 
HETATM   29  H   UNL     1      44.062 -16.317   2.140  1.00  0.00     0.184 HD
BRANCH  28  30
HETATM   30  C   UNL     1      43.544 -18.101   3.011  1.00  0.00     0.049 A 
HETATM   31  C   UNL     1      43.264 -19.163   2.138  1.00  0.00     0.030 A 
HETATM   32  C   UNL     1      43.452 -20.491   2.533  1.00  0.00     0.002 A 
HETATM   33  C   UNL     1      43.920 -20.778   3.810  1.00  0.00     0.000 A 
HETATM   34  C   UNL     1      44.196 -19.739   4.695  1.00  0.00     0.002 A 
HETATM   35  C   UNL     1      43.999 -18.413   4.299  1.00  0.00     0.030 A 
ENDBRANCH  28  30
ENDBRANCH   3  28
BRANCH   5  36
HETATM   36  N   UNL     1      39.617 -14.264   1.354  1.00  0.00    -0.188 N 
HETATM   37  H   UNL     1      38.720 -14.720   1.456  1.00  0.00     0.184 HD
BRANCH  36  38
HETATM   38  C   UNL     1      39.892 -13.835   0.042  1.00  0.00     0.049 A 
HETATM   39  C   UNL     1      39.533 -14.558  -1.102  1.00  0.00     0.030 A 
HETATM   40  C   UNL     1      39.854 -14.096  -2.382  1.00  0.00     0.002 A 
HETATM   41  C   UNL     1      40.565 -12.911  -2.538  1.00  0.00     0.000 A 
HETATM   42  C   UNL     1      40.957 -12.191  -1.414  1.00  0.00     0.002 A 
HETATM   43  C   UNL     1      40.627 -12.654  -0.136  1.00  0.00     0.030 A 
ENDBRANCH  36  38
ENDBRANCH   5  36
TORSDOF 9
ENDMDL
MODEL 5
REMARK VINA RESULT:     -10.3      1.331      2.000
REMARK  9 active torsions:
REMARK  status: ('A' for Active; 'I' for Inactive)
REMARK    1  A    between atoms: C_2  and  C_3 
REMARK    2  A    between atoms: C_4  and  N_5 
REMARK       I    between atoms: N_5  and  C_6 
REMARK    3  A    between atoms: C_6  and  C_7 
REMARK    4  A    between atoms: C_7  and  N_8 
REMARK    5  A    between atoms: N_12  and  C_13 
REMARK    6  A    between atoms: C_15  and  N_16 
REMARK    7  A    between atoms: N_16  and  C_17 
REMARK    8  A    between atoms: C_24  and  N_25 
REMARK    9  A    between atoms: N_25  and  C_26 
ROOT
HETATM    1  C   UNL     1      40.873 -14.583   3.976  1.00  0.00     0.240 A 
HETATM    2  N   UNL     1      40.061 -14.500   2.938  1.00  0.00    -0.030 NA
HETATM    3  C   UNL     1      40.418 -15.166   1.843  1.00  0.00     0.745 A 
HETATM    4  N   UNL     1      41.528 -15.881   1.748  1.00  0.00     0.131 NA
HETATM    5  C   UNL     1      42.261 -15.965   2.852  1.00  0.00     0.745 A 
HETATM    6  N   UNL     1      41.994 -15.278   3.956  1.00  0.00    -0.030 NA
ENDROOT
BRANCH   1   7
HETATM    7  N   UNL     1      40.568 -13.864   5.135  1.00  0.00    -0.247 NA
HETATM    8  C   UNL     1      40.872 -12.426   5.093  1.00  0.00     0.126 C 
HETATM    9  C   UNL     1      42.368 -12.141   5.349  1.00  0.00     0.250 C 
HETATM   10  N   UNL     1      42.821 -12.831   6.627  1.00  0.00    -0.060 N 
HETATM   11  H   UNL     1      42.271 -12.453   7.419  1.00  0.00     0.280 HD
HETATM   12  C   UNL     1      42.511 -14.333   6.608  1.00  0.00     0.250 C 
HETATM   13  C   UNL     1      41.001 -14.557   6.361  1.00  0.00     0.126 C 
BRANCH  10  14
HETATM   14  C   UNL     1      44.269 -12.523   6.994  1.00  0.00     0.337 C 
BRANCH  14  15
HETATM   15  C   UNL     1      44.359 -11.172   7.709  1.00  0.00     0.248 C 
HETATM   16  N   UNL     1      43.205 -10.792   8.367  1.00  0.00    -0.325 N 
HETATM   17  H   UNL     1      42.343 -11.198   8.023  1.00  0.00     0.169 HD
HETATM   18  O   UNL     1      45.403 -10.527   7.602  1.00  0.00    -0.271 OA
BRANCH  16  19
HETATM   19  C   UNL     1      43.054  -9.512   8.960  1.00  0.00     0.047 A 
HETATM   20  C   UNL     1      43.431  -9.245  10.295  1.00  0.00    -0.031 A 
HETATM   21  C   UNL     1      43.285  -7.934  10.788  1.00  0.00     0.009 A 
HETATM   22  C   UNL     1      42.752  -6.921   9.998  1.00  0.00     0.001 A 
HETATM   23  C   UNL     1      42.327  -7.202   8.707  1.00  0.00     0.009 A 
HETATM   24  C   UNL     1      42.459  -8.494   8.175  1.00  0.00    -0.035 A 
HETATM   25  C   UNL     1      41.993  -8.725   6.762  1.00  0.00     0.050 C 
BRANCH  20  26
HETATM   26  C   UNL     1      43.835 -10.304  11.301  1.00  0.00     0.036 C 
HETATM   27  C   UNL     1      42.847 -10.393  12.457  1.00  0.00     0.010 C 
ENDBRANCH  20  26
ENDBRANCH  16  19
ENDBRANCH  14  15
ENDBRANCH  10  14
ENDBRANCH   1   7
BRANCH   3  28
HETATM   28  N   UNL     1      39.651 -15.059   0.685  1.00  0.00    -0.188 N 
HETATM   29  H   UNL     1      38.718 -15.416   0.841  1.00  0.00     0.184 HD
BRANCH  28  30
HETATM   30  C   UNL     1      39.813 -14.272  -0.464  1.00  0.00     0.049 A 
HETATM   31  C   UNL     1      39.231 -14.706  -1.665  1.00  0.00     0.030 A 
HETATM   32  C   UNL     1      39.404 -13.989  -2.852  1.00  0.00     0.002 A 
HETATM   33  C   UNL     1      40.168 -12.826  -2.858  1.00  0.00     0.000 A 
HETATM   34  C   UNL     1      40.761 -12.383  -1.679  1.00  0.00     0.002 A 
HETATM   35  C   UNL     1      40.591 -13.108  -0.496  1.00  0.00     0.030 A 
ENDBRANCH  28  30
ENDBRANCH   3  28
BRANCH   5  36
HETATM   36  N   UNL     1      43.386 -16.788   2.787  1.00  0.00    -0.188 N 
HETATM   37  H   UNL     1      43.978 -16.498   2.019  1.00  0.00     0.184 HD
BRANCH  36  38
HETATM   38  C   UNL     1      43.550 -18.136   3.156  1.00  0.00     0.049 A 
HETATM   39  C   UNL     1      44.009 -18.546   4.413  1.00  0.00     0.030 A 
HETATM   40  C   UNL     1      44.177 -19.901   4.717  1.00  0.00     0.002 A 
HETATM   41  C   UNL     1      43.910 -20.870   3.756  1.00  0.00     0.000 A 
HETATM   42  C   UNL     1      43.480 -20.484   2.490  1.00  0.00     0.002 A 
HETATM   43  C   UNL     1      43.307 -19.127   2.193  1.00  0.00     0.030 A 
ENDBRANCH  36  38
ENDBRANCH   5  36
TORSDOF 9
ENDMDL
MODEL 6
REMARK VINA RESULT:      -9.9      1.125      1.948
REMARK  9 active torsions:
REMARK  status: ('A' for Active; 'I' for Inactive)
REMARK    1  A    between atoms: C_2  and  C_3 
REMARK    2  A    between atoms: C_4  and  N_5 
REMARK       I    between atoms: N_5  and  C_6 
REMARK    3  A    between atoms: C_6  and  C_7 
REMARK    4  A    between atoms: C_7  and  N_8 
REMARK    5  A    between atoms: N_12  and  C_13 
REMARK    6  A    between atoms: C_15  and  N_16 
REMARK    7  A    between atoms: N_16  and  C_17 
REMARK    8  A    between atoms: C_24  and  N_25 
REMARK    9  A    between atoms: N_25  and  C_26 
ROOT
HETATM    1  C   UNL     1      41.060 -14.856   4.497  1.00  0.00     0.240 A 
HETATM    2  N   UNL     1      40.222 -14.364   3.601  1.00  0.00    -0.030 NA
HETATM    3  C   UNL     1      40.454 -14.676   2.330  1.00  0.00     0.745 A 
HETATM    4  N   UNL     1      41.467 -15.431   1.931  1.00  0.00     0.131 NA
HETATM    5  C   UNL     1      42.228 -15.936   2.895  1.00  0.00     0.745 A 
HETATM    6  N   UNL     1      42.089 -15.616   4.175  1.00  0.00    -0.030 NA
ENDROOT
BRANCH   1   7
HETATM    7  N   UNL     1      40.889 -14.519   5.842  1.00  0.00    -0.247 NA
HETATM    8  C   UNL     1      39.959 -13.412   6.110  1.00  0.00     0.126 C 
HETATM    9  C   UNL     1      40.617 -12.033   5.882  1.00  0.00     0.250 C 
HETATM   10  N   UNL     1      41.925 -11.943   6.656  1.00  0.00    -0.060 N 
HETATM   11  H   UNL     1      41.719 -12.050   7.665  1.00  0.00     0.280 HD
HETATM   12  C   UNL     1      42.871 -13.101   6.317  1.00  0.00     0.250 C 
HETATM   13  C   UNL     1      42.165 -14.453   6.576  1.00  0.00     0.126 C 
BRANCH  10  14
HETATM   14  C   UNL     1      42.591 -10.575   6.550  1.00  0.00     0.337 C 
BRANCH  14  15
HETATM   15  C   UNL     1      42.226  -9.713   7.762  1.00  0.00     0.248 C 
HETATM   16  N   UNL     1      43.304  -9.319   8.532  1.00  0.00    -0.325 N 
HETATM   17  H   UNL     1      44.127  -9.907   8.478  1.00  0.00     0.169 HD
HETATM   18  O   UNL     1      41.034  -9.490   7.978  1.00  0.00    -0.271 OA
BRANCH  16  19
HETATM   19  C   UNL     1      43.147  -8.641   9.768  1.00  0.00     0.047 A 
HETATM   20  C   UNL     1      42.749  -7.288   9.847  1.00  0.00    -0.031 A 
HETATM   21  C   UNL     1      42.578  -6.708  11.119  1.00  0.00     0.009 A 
HETATM   22  C   UNL     1      42.823  -7.431  12.282  1.00  0.00     0.001 A 
HETATM   23  C   UNL     1      43.272  -8.742  12.198  1.00  0.00     0.009 A 
HETATM   24  C   UNL     1      43.451  -9.360  10.951  1.00  0.00    -0.035 A 
HETATM   25  C   UNL     1      43.924 -10.790  10.935  1.00  0.00     0.050 C 
BRANCH  20  26
HETATM   26  C   UNL     1      42.646  -6.353   8.658  1.00  0.00     0.036 C 
HETATM   27  C   UNL     1      41.206  -5.935   8.390  1.00  0.00     0.010 C 
ENDBRANCH  20  26
ENDBRANCH  16  19
ENDBRANCH  14  15
ENDBRANCH  10  14
ENDBRANCH   1   7
BRANCH   3  28
HETATM   28  N   UNL     1      39.659 -14.129   1.325  1.00  0.00    -0.188 N 
HETATM   29  H   UNL     1      38.795 -13.771   1.708  1.00  0.00     0.184 HD
BRANCH  28  30
HETATM   30  C   UNL     1      39.974 -13.689   0.031  1.00  0.00     0.049 A 
HETATM   31  C   UNL     1      39.582 -14.477  -1.062  1.00  0.00     0.030 A 
HETATM   32  C   UNL     1      39.915 -14.113  -2.370  1.00  0.00     0.002 A 
HETATM   33  C   UNL     1      40.650 -12.957  -2.606  1.00  0.00     0.000 A 
HETATM   34  C   UNL     1      41.056 -12.166  -1.535  1.00  0.00     0.002 A 
HETATM   35  C   UNL     1      40.728 -12.538  -0.228  1.00  0.00     0.030 A 
ENDBRANCH  28  30
ENDBRANCH   3  28
BRANCH   5  36
HETATM   36  N   UNL     1      43.244 -16.803   2.490  1.00  0.00    -0.188 N 
HETATM   37  H   UNL     1      43.533 -16.575   1.547  1.00  0.00     0.184 HD
BRANCH  36  38
HETATM   38  C   UNL     1      43.504 -18.136   2.860  1.00  0.00     0.049 A 
HETATM   39  C   UNL     1      43.196 -19.238   2.054  1.00  0.00     0.030 A 
HETATM   40  C   UNL     1      43.454 -20.545   2.484  1.00  0.00     0.002 A 
HETATM   41  C   UNL     1      44.002 -20.770   3.741  1.00  0.00     0.000 A 
HETATM   42  C   UNL     1      44.289 -19.690   4.571  1.00  0.00     0.002 A 
HETATM   43  C   UNL     1      44.036 -18.385   4.134  1.00  0.00     0.030 A 
ENDBRANCH  36  38
ENDBRANCH   5  36
TORSDOF 9
ENDMDL
MODEL 7
REMARK VINA RESULT:      -9.7      1.456      2.323
REMARK  9 active torsions:
REMARK  status: ('A' for Active; 'I' for Inactive)
REMARK    1  A    between atoms: C_2  and  C_3 
REMARK    2  A    between atoms: C_4  and  N_5 
REMARK       I    between atoms: N_5  and  C_6 
REMARK    3  A    between atoms: C_6  and  C_7 
REMARK    4  A    between atoms: C_7  and  N_8 
REMARK    5  A    between atoms: N_12  and  C_13 
REMARK    6  A    between atoms: C_15  and  N_16 
REMARK    7  A    between atoms: N_16  and  C_17 
REMARK    8  A    between atoms: C_24  and  N_25 
REMARK    9  A    between atoms: N_25  and  C_26 
ROOT
HETATM    1  C   UNL     1      41.774 -12.167   3.686  1.00  0.00     0.240 A 
HETATM    2  N   UNL     1      40.937 -12.091   2.667  1.00  0.00    -0.030 NA
HETATM    3  C   UNL     1      40.450 -13.239   2.205  1.00  0.00     0.745 A 
HETATM    4  N   UNL     1      40.766 -14.424   2.702  1.00  0.00     0.131 NA
HETATM    5  C   UNL     1      41.564 -14.414   3.763  1.00  0.00     0.745 A 
HETATM    6  N   UNL     1      42.132 -13.312   4.235  1.00  0.00    -0.030 NA
ENDROOT
BRANCH   1   7
HETATM    7  N   UNL     1      42.351 -10.994   4.179  1.00  0.00    -0.247 NA
HETATM    8  C   UNL     1      43.017 -11.110   5.486  1.00  0.00     0.126 C 
HETATM    9  C   UNL     1      42.010 -11.068   6.656  1.00  0.00     0.250 C 
HETATM   10  N   UNL     1      41.108  -9.848   6.527  1.00  0.00    -0.060 N 
HETATM   11  H   UNL     1      41.697  -8.997   6.565  1.00  0.00     0.280 HD
HETATM   12  C   UNL     1      40.414  -9.791   5.161  1.00  0.00     0.250 C 
HETATM   13  C   UNL     1      41.470  -9.824   4.030  1.00  0.00     0.126 C 
BRANCH  10  14
HETATM   14  C   UNL     1      40.142  -9.689   7.696  1.00  0.00     0.337 C 
BRANCH  14  15
HETATM   15  C   UNL     1      40.835  -8.981   8.864  1.00  0.00     0.248 C 
HETATM   16  N   UNL     1      41.296  -9.824   9.856  1.00  0.00    -0.325 N 
HETATM   17  H   UNL     1      40.829 -10.720   9.930  1.00  0.00     0.169 HD
HETATM   18  O   UNL     1      40.879  -7.750   8.851  1.00  0.00    -0.271 OA
BRANCH  16  19
HETATM   19  C   UNL     1      41.832  -9.340  11.077  1.00  0.00     0.047 A 
HETATM   20  C   UNL     1      43.120  -8.766  11.166  1.00  0.00    -0.031 A 
HETATM   21  C   UNL     1      43.554  -8.272  12.411  1.00  0.00     0.009 A 
HETATM   22  C   UNL     1      42.755  -8.371  13.546  1.00  0.00     0.001 A 
HETATM   23  C   UNL     1      41.515  -8.990  13.466  1.00  0.00     0.009 A 
HETATM   24  C   UNL     1      41.042  -9.491  12.243  1.00  0.00    -0.035 A 
HETATM   25  C   UNL     1      39.681 -10.135  12.225  1.00  0.00     0.050 C 
BRANCH  20  26
HETATM   26  C   UNL     1      44.146  -8.784  10.051  1.00  0.00     0.036 C 
HETATM   27  C   UNL     1      44.979 -10.059  10.069  1.00  0.00     0.010 C 
ENDBRANCH  20  26
ENDBRANCH  16  19
ENDBRANCH  14  15
ENDBRANCH  10  14
ENDBRANCH   1   7
BRANCH   3  28
HETATM   28  N   UNL     1      39.626 -13.240   1.081  1.00  0.00    -0.188 N 
HETATM   29  H   UNL     1      38.680 -12.984   1.332  1.00  0.00     0.184 HD
BRANCH  28  30
HETATM   30  C   UNL     1      39.925 -13.182  -0.287  1.00  0.00     0.049 A 
HETATM   31  C   UNL     1      39.526 -14.246  -1.109  1.00  0.00     0.030 A 
HETATM   32  C   UNL     1      39.843 -14.265  -2.471  1.00  0.00     0.002 A 
HETATM   33  C   UNL     1      40.570 -13.220  -3.031  1.00  0.00     0.000 A 
HETATM   34  C   UNL     1      40.982 -12.158  -2.231  1.00  0.00     0.002 A 
HETATM   35  C   UNL     1      40.670 -12.148  -0.869  1.00  0.00     0.030 A 
ENDBRANCH  28  30
ENDBRANCH   3  28
BRANCH   5  36
HETATM   36  N   UNL     1      41.832 -15.653   4.348  1.00  0.00    -0.188 N 
HETATM   37  H   UNL     1      41.862 -15.557   5.355  1.00  0.00     0.184 HD
BRANCH  36  38
HETATM   38  C   UNL     1      42.565 -16.750   3.857  1.00  0.00     0.049 A 
HETATM   39  C   UNL     1      42.292 -17.383   2.639  1.00  0.00     0.030 A 
HETATM   40  C   UNL     1      43.038 -18.487   2.213  1.00  0.00     0.002 A 
HETATM   41  C   UNL     1      44.057 -18.992   3.013  1.00  0.00     0.000 A 
HETATM   42  C   UNL     1      44.327 -18.396   4.241  1.00  0.00     0.002 A 
HETATM   43  C   UNL     1      43.582 -17.288   4.660  1.00  0.00     0.030 A 
ENDBRANCH  36  38
ENDBRANCH   5  36
TORSDOF 9
ENDMDL
MODEL 8
REMARK VINA RESULT:      -9.6      1.471      5.242
REMARK  9 active torsions:
REMARK  status: ('A' for Active; 'I' for Inactive)
REMARK    1  A    between atoms: C_2  and  C_3 
REMARK    2  A    between atoms: C_4  and  N_5 
REMARK       I    between atoms: N_5  and  C_6 
REMARK    3  A    between atoms: C_6  and  C_7 
REMARK    4  A    between atoms: C_7  and  N_8 
REMARK    5  A    between atoms: N_12  and  C_13 
REMARK    6  A    between atoms: C_15  and  N_16 
REMARK    7  A    between atoms: N_16  and  C_17 
REMARK    8  A    between atoms: C_24  and  N_25 
REMARK    9  A    between atoms: N_25  and  C_26 
ROOT
HETATM    1  C   UNL     1      41.831 -12.287   3.441  1.00  0.00     0.240 A 
HETATM    2  N   UNL     1      42.118 -13.458   3.981  1.00  0.00    -0.030 NA
HETATM    3  C   UNL     1      41.411 -14.502   3.556  1.00  0.00     0.745 A 
HETATM    4  N   UNL     1      40.452 -14.420   2.647  1.00  0.00     0.131 NA
HETATM    5  C   UNL     1      40.265 -13.220   2.109  1.00  0.00     0.745 A 
HETATM    6  N   UNL     1      40.891 -12.129   2.529  1.00  0.00    -0.030 NA
ENDROOT
BRANCH   1   7
HETATM    7  N   UNL     1      42.511 -11.150   3.886  1.00  0.00    -0.247 NA
HETATM    8  C   UNL     1      43.279 -11.312   5.130  1.00  0.00     0.126 C 
HETATM    9  C   UNL     1      42.379 -11.225   6.383  1.00  0.00     0.250 C 
HETATM   10  N   UNL     1      41.538  -9.957   6.336  1.00  0.00    -0.060 N 
HETATM   11  H   UNL     1      42.173  -9.140   6.326  1.00  0.00     0.280 HD
HETATM   12  C   UNL     1      40.733  -9.852   5.035  1.00  0.00     0.250 C 
HETATM   13  C   UNL     1      41.684  -9.933   3.818  1.00  0.00     0.126 C 
BRANCH  10  14
HETATM   14  C   UNL     1      40.686  -9.756   7.585  1.00  0.00     0.337 C 
BRANCH  14  15
HETATM   15  C   UNL     1      41.486  -9.014   8.659  1.00  0.00     0.248 C 
HETATM   16  N   UNL     1      41.248  -9.442   9.951  1.00  0.00    -0.325 N 
HETATM   17  H   UNL     1      40.352  -9.887  10.114  1.00  0.00     0.169 HD
HETATM   18  O   UNL     1      42.217  -8.089   8.302  1.00  0.00    -0.271 OA
BRANCH  16  19
HETATM   19  C   UNL     1      41.786  -8.778  11.083  1.00  0.00     0.047 A 
HETATM   20  C   UNL     1      43.096  -9.020  11.553  1.00  0.00    -0.031 A 
HETATM   21  C   UNL     1      43.563  -8.284  12.659  1.00  0.00     0.009 A 
HETATM   22  C   UNL     1      42.752  -7.357  13.304  1.00  0.00     0.001 A 
HETATM   23  C   UNL     1      41.445  -7.165  12.875  1.00  0.00     0.009 A 
HETATM   24  C   UNL     1      40.942  -7.875  11.775  1.00  0.00    -0.035 A 
HETATM   25  C   UNL     1      39.521  -7.605  11.353  1.00  0.00     0.050 C 
BRANCH  20  26
HETATM   26  C   UNL     1      43.993 -10.138  11.058  1.00  0.00     0.036 C 
HETATM   27  C   UNL     1      45.108  -9.613  10.162  1.00  0.00     0.010 C 
ENDBRANCH  20  26
ENDBRANCH  16  19
ENDBRANCH  14  15
ENDBRANCH  10  14
ENDBRANCH   1   7
BRANCH   3  28
HETATM   28  N   UNL     1      41.605 -15.753   4.139  1.00  0.00    -0.188 N 
HETATM   29  H   UNL     1      40.810 -16.009   4.708  1.00  0.00     0.184 HD
BRANCH  28  30
HETATM   30  C   UNL     1      42.477 -16.802   3.812  1.00  0.00     0.049 A 
HETATM   31  C   UNL     1      42.317 -17.451   2.579  1.00  0.00     0.030 A 
HETATM   32  C   UNL     1      43.124 -18.536   2.224  1.00  0.00     0.002 A 
HETATM   33  C   UNL     1      44.102 -18.993   3.101  1.00  0.00     0.000 A 
HETATM   34  C   UNL     1      44.271 -18.368   4.333  1.00  0.00     0.002 A 
HETATM   35  C   UNL     1      43.457 -17.288   4.687  1.00  0.00     0.030 A 
ENDBRANCH  28  30
ENDBRANCH   3  28
BRANCH   5  36
HETATM   36  N   UNL     1      39.316 -13.141   1.088  1.00  0.00    -0.188 N 
HETATM   37  H   UNL     1      38.457 -13.587   1.384  1.00  0.00     0.184 HD
BRANCH  36  38
HETATM   38  C   UNL     1      39.485 -13.100  -0.308  1.00  0.00     0.049 A 
HETATM   39  C   UNL     1      39.743 -14.230  -1.093  1.00  0.00     0.030 A 
HETATM   40  C   UNL     1      39.927 -14.126  -2.476  1.00  0.00     0.002 A 
HETATM   41  C   UNL     1      39.881 -12.881  -3.094  1.00  0.00     0.000 A 
HETATM   42  C   UNL     1      39.654 -11.741  -2.330  1.00  0.00     0.002 A 
HETATM   43  C   UNL     1      39.463 -11.851  -0.948  1.00  0.00     0.030 A 
ENDBRANCH  36  38
ENDBRANCH   5  36
TORSDOF 9
ENDMDL
MODEL 9
REMARK VINA RESULT:      -9.4      2.806      8.896
REMARK  9 active torsions:
REMARK  status: ('A' for Active; 'I' for Inactive)
REMARK    1  A    between atoms: C_2  and  C_3 
REMARK    2  A    between atoms: C_4  and  N_5 
REMARK       I    between atoms: N_5  and  C_6 
REMARK    3  A    between atoms: C_6  and  C_7 
REMARK    4  A    between atoms: C_7  and  N_8 
REMARK    5  A    between atoms: N_12  and  C_13 
REMARK    6  A    between atoms: C_15  and  N_16 
REMARK    7  A    between atoms: N_16  and  C_17 
REMARK    8  A    between atoms: C_24  and  N_25 
REMARK    9  A    between atoms: N_25  and  C_26 
ROOT
HETATM    1  C   UNL     1      41.444 -14.741   4.684  1.00  0.00     0.240 A 
HETATM    2  N   UNL     1      41.730 -13.810   5.577  1.00  0.00    -0.030 NA
HETATM    3  C   UNL     1      42.816 -14.007   6.319  1.00  0.00     0.745 A 
HETATM    4  N   UNL     1      43.598 -15.070   6.212  1.00  0.00     0.131 NA
HETATM    5  C   UNL     1      43.278 -15.929   5.251  1.00  0.00     0.745 A 
HETATM    6  N   UNL     1      42.177 -15.825   4.519  1.00  0.00    -0.030 NA
ENDROOT
BRANCH   1   7
HETATM    7  N   UNL     1      40.287 -14.607   3.912  1.00  0.00    -0.247 NA
HETATM    8  C   UNL     1      40.222 -15.449   2.708  1.00  0.00     0.126 C 
HETATM    9  C   UNL     1      41.034 -14.853   1.538  1.00  0.00     0.250 C 
HETATM   10  N   UNL     1      40.627 -13.406   1.302  1.00  0.00    -0.060 N 
HETATM   11  H   UNL     1      39.622 -13.382   1.055  1.00  0.00     0.280 HD
HETATM   12  C   UNL     1      40.743 -12.563   2.579  1.00  0.00     0.250 C 
HETATM   13  C   UNL     1      39.902 -13.200   3.710  1.00  0.00     0.126 C 
BRANCH  10  14
HETATM   14  C   UNL     1      41.324 -12.774   0.102  1.00  0.00     0.337 C 
BRANCH  14  15
HETATM   15  C   UNL     1      40.295 -12.130  -0.831  1.00  0.00     0.248 C 
HETATM   16  N   UNL     1      38.990 -12.521  -0.603  1.00  0.00    -0.325 N 
HETATM   17  H   UNL     1      38.867 -13.422  -0.155  1.00  0.00     0.169 HD
HETATM   18  O   UNL     1      40.705 -11.377  -1.715  1.00  0.00    -0.271 OA
BRANCH  16  19
HETATM   19  C   UNL     1      37.923 -12.143  -1.458  1.00  0.00     0.047 A 
HETATM   20  C   UNL     1      37.230 -10.920  -1.312  1.00  0.00    -0.031 A 
HETATM   21  C   UNL     1      36.211 -10.607  -2.233  1.00  0.00     0.009 A 
HETATM   22  C   UNL     1      35.862 -11.488  -3.251  1.00  0.00     0.001 A 
HETATM   23  C   UNL     1      36.505 -12.714  -3.354  1.00  0.00     0.009 A 
HETATM   24  C   UNL     1      37.529 -13.063  -2.460  1.00  0.00    -0.035 A 
HETATM   25  C   UNL     1      38.196 -14.402  -2.641  1.00  0.00     0.050 C 
BRANCH  20  26
HETATM   26  C   UNL     1      37.388  -9.980  -0.133  1.00  0.00     0.036 C 
HETATM   27  C   UNL     1      36.813 -10.575   1.146  1.00  0.00     0.010 C 
ENDBRANCH  20  26
ENDBRANCH  16  19
ENDBRANCH  14  15
ENDBRANCH  10  14
ENDBRANCH   1   7
BRANCH   3  28
HETATM   28  N   UNL     1      43.135 -13.107   7.334  1.00  0.00    -0.188 N 
HETATM   29  H   UNL     1      42.765 -13.423   8.221  1.00  0.00     0.184 HD
BRANCH  28  30
HETATM   30  C   UNL     1      44.111 -12.103   7.410  1.00  0.00     0.049 A 
HETATM   31  C   UNL     1      45.087 -12.036   6.405  1.00  0.00     0.030 A 
HETATM   32  C   UNL     1      46.114 -11.089   6.457  1.00  0.00     0.002 A 
HETATM   33  C   UNL     1      46.184 -10.196   7.521  1.00  0.00     0.000 A 
HETATM   34  C   UNL     1      45.230 -10.251   8.533  1.00  0.00     0.002 A 
HETATM   35  C   UNL     1      44.210 -11.205   8.480  1.00  0.00     0.030 A 
ENDBRANCH  28  30
ENDBRANCH   3  28
BRANCH   5  36
HETATM   36  N   UNL     1      44.146 -17.008   5.073  1.00  0.00    -0.188 N 
HETATM   37  H   UNL     1      45.105 -16.693   5.144  1.00  0.00     0.184 HD
BRANCH  36  38
HETATM   38  C   UNL     1      43.988 -18.187   4.320  1.00  0.00     0.049 A 
HETATM   39  C   UNL     1      43.636 -18.200   2.965  1.00  0.00     0.030 A 
HETATM   40  C   UNL     1      43.468 -19.404   2.271  1.00  0.00     0.002 A 
HETATM   41  C   UNL     1      43.626 -20.617   2.932  1.00  0.00     0.000 A 
HETATM   42  C   UNL     1      43.948 -20.627   4.285  1.00  0.00     0.002 A 
HETATM   43  C   UNL     1      44.121 -19.421   4.973  1.00  0.00     0.030 A 
ENDBRANCH  36  38
ENDBRANCH   5  36
TORSDOF 9
ENDMDL
MODEL 10
REMARK VINA RESULT:      -9.3      2.825      8.626
REMARK  9 active torsions:
REMARK  status: ('A' for Active; 'I' for Inactive)
REMARK    1  A    between atoms: C_2  and  C_3 
REMARK    2  A    between atoms: C_4  and  N_5 
REMARK       I    between atoms: N_5  and  C_6 
REMARK    3  A    between atoms: C_6  and  C_7 
REMARK    4  A    between atoms: C_7  and  N_8 
REMARK    5  A    between atoms: N_12  and  C_13 
REMARK    6  A    between atoms: C_15  and  N_16 
REMARK    7  A    between atoms: N_16  and  C_17 
REMARK    8  A    between atoms: C_24  and  N_25 
REMARK    9  A    between atoms: N_25  and  C_26 
ROOT
HETATM    1  C   UNL     1      41.856 -14.479   4.457  1.00  0.00     0.240 A 
HETATM    2  N   UNL     1      42.094 -13.599   5.413  1.00  0.00    -0.030 NA
HETATM    3  C   UNL     1      43.014 -13.928   6.315  1.00  0.00     0.745 A 
HETATM    4  N   UNL     1      43.679 -15.073   6.302  1.00  0.00     0.131 NA
HETATM    5  C   UNL     1      43.428 -15.878   5.277  1.00  0.00     0.745 A 
HETATM    6  N   UNL     1      42.481 -15.638   4.379  1.00  0.00    -0.030 NA
ENDROOT
BRANCH   1   7
HETATM    7  N   UNL     1      40.865 -14.203   3.512  1.00  0.00    -0.247 NA
HETATM    8  C   UNL     1      41.306 -14.186   2.110  1.00  0.00     0.126 C 
HETATM    9  C   UNL     1      41.991 -12.854   1.733  1.00  0.00     0.250 C 
HETATM   10  N   UNL     1      41.100 -11.681   2.115  1.00  0.00    -0.060 N 
HETATM   11  H   UNL     1      40.211 -11.757   1.589  1.00  0.00     0.280 HD
HETATM   12  C   UNL     1      40.694 -11.727   3.593  1.00  0.00     0.250 C 
HETATM   13  C   UNL     1      40.004 -13.075   3.909  1.00  0.00     0.126 C 
BRANCH  10  14
HETATM   14  C   UNL     1      41.671 -10.331   1.694  1.00  0.00     0.337 C 
BRANCH  14  15
HETATM   15  C   UNL     1      41.036  -9.874   0.377  1.00  0.00     0.248 C 
HETATM   16  N   UNL     1      41.881  -9.922  -0.715  1.00  0.00    -0.325 N 
HETATM   17  H   UNL     1      42.873  -9.869  -0.513  1.00  0.00     0.169 HD
HETATM   18  O   UNL     1      39.874  -9.465   0.405  1.00  0.00    -0.271 OA
BRANCH  16  19
HETATM   19  C   UNL     1      41.514  -9.402  -1.983  1.00  0.00     0.047 A 
HETATM   20  C   UNL     1      40.610 -10.066  -2.842  1.00  0.00    -0.031 A 
HETATM   21  C   UNL     1      40.269  -9.456  -4.065  1.00  0.00     0.009 A 
HETATM   22  C   UNL     1      40.829  -8.241  -4.446  1.00  0.00     0.001 A 
HETATM   23  C   UNL     1      41.762  -7.622  -3.626  1.00  0.00     0.009 A 
HETATM   24  C   UNL     1      42.125  -8.193  -2.397  1.00  0.00    -0.035 A 
HETATM   25  C   UNL     1      43.131  -7.459  -1.549  1.00  0.00     0.050 C 
BRANCH  20  26
HETATM   26  C   UNL     1      40.095 -11.475  -2.623  1.00  0.00     0.036 C 
HETATM   27  C   UNL     1      41.127 -12.523  -3.018  1.00  0.00     0.010 C 
ENDBRANCH  20  26
ENDBRANCH  16  19
ENDBRANCH  14  15
ENDBRANCH  10  14
ENDBRANCH   1   7
BRANCH   3  28
HETATM   28  N   UNL     1      43.260 -13.083   7.396  1.00  0.00    -0.188 N 
HETATM   29  H   UNL     1      42.939 -13.504   8.257  1.00  0.00     0.184 HD
BRANCH  28  30
HETATM   30  C   UNL     1      44.132 -11.996   7.542  1.00  0.00     0.049 A 
HETATM   31  C   UNL     1      45.234 -11.896   6.679  1.00  0.00     0.030 A 
HETATM   32  C   UNL     1      46.165 -10.862   6.814  1.00  0.00     0.002 A 
HETATM   33  C   UNL     1      46.010  -9.911   7.817  1.00  0.00     0.000 A 
HETATM   34  C   UNL     1      44.928  -9.997   8.689  1.00  0.00     0.002 A 
HETATM   35  C   UNL     1      44.005 -11.038   8.556  1.00  0.00     0.030 A 
ENDBRANCH  28  30
ENDBRANCH   3  28
BRANCH   5  36
HETATM   36  N   UNL     1      44.187 -17.047   5.208  1.00  0.00    -0.188 N 
HETATM   37  H   UNL     1      45.163 -16.832   5.363  1.00  0.00     0.184 HD
BRANCH  36  38
HETATM   38  C   UNL     1      43.974 -18.227   4.470  1.00  0.00     0.049 A 
HETATM   39  C   UNL     1      44.106 -19.513   5.008  1.00  0.00     0.030 A 
HETATM   40  C   UNL     1      43.907 -20.652   4.221  1.00  0.00     0.002 A 
HETATM   41  C   UNL     1      43.596 -20.522   2.872  1.00  0.00     0.000 A 
HETATM   42  C   UNL     1      43.488 -19.254   2.309  1.00  0.00     0.002 A 
HETATM   43  C   UNL     1      43.682 -18.118   3.102  1.00  0.00     0.030 A 
ENDBRANCH  36  38
ENDBRANCH   5  36
TORSDOF 9
ENDMDL
