MODEL 1
REMARK VINA RESULT:      -9.1      0.000      0.000
REMARK  3 active torsions:
REMARK  status: ('A' for Active; 'I' for Inactive)
REMARK    1  A    between atoms: N_5  and  C_6 
REMARK    2  A    between atoms: C_7  and  C_8 
REMARK       I    between atoms: C_8  and  N_9 
REMARK    3  A    between atoms: N_9  and  N_10 
ROOT
HETATM    1  C   UNL     1      42.836 -11.468   2.901  1.00  0.00     0.056 C 
HETATM    2  C   UNL     1      42.052 -12.754   2.718  1.00  0.00     0.158 C 
HETATM    3  C   UNL     1      42.942 -14.001   2.749  1.00  0.00     0.267 C 
HETATM    4  O   UNL     1      43.903 -14.184   2.007  1.00  0.00    -0.269 OA
HETATM    5  N   UNL     1      42.368 -14.909   3.616  1.00  0.00    -0.230 N 
HETATM    6  C   UNL     1      41.193 -14.402   4.121  1.00  0.00     0.333 C 
HETATM    7  O   UNL     1      40.332 -15.023   4.727  1.00  0.00    -0.246 OA
HETATM    8  N   UNL     1      41.127 -13.041   3.809  1.00  0.00    -0.309 N 
HETATM    9  C   UNL     1      39.846 -12.326   3.862  1.00  0.00     0.134 C 
HETATM   10  C   UNL     1      38.979 -12.600   2.614  1.00  0.00     0.061 C 
HETATM   11  C   UNL     1      39.837 -12.714   1.391  1.00  0.00    -0.018 A 
HETATM   12  C   UNL     1      41.219 -12.776   1.460  1.00  0.00     0.055 A 
HETATM   13  N   UNL     1      41.702 -12.975   0.193  1.00  0.00    -0.356 N 
HETATM   14  H   UNL     1      42.676 -13.108  -0.053  1.00  0.00     0.166 HD
HETATM   15  C   UNL     1      40.648 -13.103  -0.689  1.00  0.00     0.043 A 
HETATM   16  C   UNL     1      39.467 -12.918   0.035  1.00  0.00    -0.001 A 
HETATM   17  C   UNL     1      40.654 -13.392  -2.058  1.00  0.00     0.030 A 
HETATM   18  C   UNL     1      39.418 -13.492  -2.705  1.00  0.00     0.002 A 
HETATM   19  C   UNL     1      38.226 -13.303  -2.011  1.00  0.00     0.001 A 
HETATM   20  C   UNL     1      38.236 -13.016  -0.641  1.00  0.00     0.014 A 
ENDROOT
BRANCH   5  21
HETATM   21  C   UNL     1      42.640 -16.286   3.479  1.00  0.00     0.063 A 
HETATM   22  C   UNL     1      43.395 -16.981   4.436  1.00  0.00     0.060 A 
HETATM   23  C   UNL     1      43.835 -18.285   4.168  1.00  0.00     0.019 A 
HETATM   24  C   UNL     1      43.497 -18.906   2.966  1.00  0.00     0.001 A 
HETATM   25  C   UNL     1      42.709 -18.235   2.032  1.00  0.00     0.002 A 
HETATM   26  C   UNL     1      42.279 -16.930   2.285  1.00  0.00     0.031 A 
BRANCH  22  27
HETATM   27  C   UNL     1      43.698 -16.425   5.777  1.00  0.00     0.268 C 
HETATM   28  N   UNL     1      42.624 -16.376   6.660  1.00  0.00    -0.290 N 
HETATM   29  H   UNL     1      41.719 -16.777   6.414  1.00  0.00     0.183 HD
HETATM   30  O   UNL     1      44.842 -16.107   6.087  1.00  0.00    -0.266 OA
BRANCH  28  31
HETATM   31  N   UNL     1      42.836 -15.943   7.985  1.00  0.00    -0.247 NA
HETATM   32  H   UNL     1      41.916 -15.947   8.446  1.00  0.00     0.143 HD
HETATM   33  H   UNL     1      43.065 -14.944   7.946  1.00  0.00     0.143 HD
ENDBRANCH  28  31
ENDBRANCH  22  27
ENDBRANCH   5  21
TORSDOF 3
ENDMDL
MODEL 2
REMARK VINA RESULT:      -8.8     14.771     16.774
REMARK  3 active torsions:
REMARK  status: ('A' for Active; 'I' for Inactive)
REMARK    1  A    between atoms: N_5  and  C_6 
REMARK    2  A    between atoms: C_7  and  C_8 
REMARK       I    between atoms: C_8  and  N_9 
REMARK    3  A    between atoms: N_9  and  N_10 
ROOT
HETATM    1  C   UNL     1      43.380 -29.243   2.472  1.00  0.00     0.056 C 
HETATM    2  C   UNL     1      44.579 -29.806   1.731  1.00  0.00     0.158 C 
HETATM    3  C   UNL     1      45.912 -29.272   2.265  1.00  0.00     0.267 C 
HETATM    4  O   UNL     1      46.199 -28.080   2.339  1.00  0.00    -0.269 OA
HETATM    5  N   UNL     1      46.749 -30.349   2.469  1.00  0.00    -0.230 N 
HETATM    6  C   UNL     1      46.119 -31.514   2.098  1.00  0.00     0.333 C 
HETATM    7  O   UNL     1      46.643 -32.607   1.937  1.00  0.00    -0.246 OA
HETATM    8  N   UNL     1      44.760 -31.243   1.910  1.00  0.00    -0.309 N 
HETATM    9  C   UNL     1      43.915 -32.168   1.145  1.00  0.00     0.134 C 
HETATM   10  C   UNL     1      44.105 -31.998  -0.378  1.00  0.00     0.061 C 
HETATM   11  C   UNL     1      44.317 -30.556  -0.726  1.00  0.00    -0.018 A 
HETATM   12  C   UNL     1      44.522 -29.585   0.240  1.00  0.00     0.055 A 
HETATM   13  N   UNL     1      44.779 -28.398  -0.396  1.00  0.00    -0.356 N 
HETATM   14  H   UNL     1      45.014 -27.524   0.059  1.00  0.00     0.166 HD
HETATM   15  C   UNL     1      44.802 -28.599  -1.760  1.00  0.00     0.043 A 
HETATM   16  C   UNL     1      44.490 -29.941  -1.995  1.00  0.00    -0.001 A 
HETATM   17  C   UNL     1      45.099 -27.705  -2.795  1.00  0.00     0.030 A 
HETATM   18  C   UNL     1      45.074 -28.195  -4.104  1.00  0.00     0.002 A 
HETATM   19  C   UNL     1      44.757 -29.526  -4.368  1.00  0.00     0.001 A 
HETATM   20  C   UNL     1      44.463 -30.409  -3.323  1.00  0.00     0.014 A 
ENDROOT
BRANCH   5  21
HETATM   21  C   UNL     1      48.148 -30.170   2.459  1.00  0.00     0.063 A 
HETATM   22  C   UNL     1      48.893 -30.293   1.277  1.00  0.00     0.060 A 
HETATM   23  C   UNL     1      50.294 -30.330   1.333  1.00  0.00     0.019 A 
HETATM   24  C   UNL     1      50.950 -30.212   2.558  1.00  0.00     0.001 A 
HETATM   25  C   UNL     1      50.214 -30.043   3.730  1.00  0.00     0.002 A 
HETATM   26  C   UNL     1      48.818 -30.021   3.684  1.00  0.00     0.031 A 
BRANCH  22  27
HETATM   27  C   UNL     1      48.267 -30.313  -0.067  1.00  0.00     0.268 C 
HETATM   28  N   UNL     1      48.146 -31.571  -0.651  1.00  0.00    -0.290 N 
HETATM   29  H   UNL     1      48.398 -32.417  -0.141  1.00  0.00     0.183 HD
HETATM   30  O   UNL     1      47.826 -29.287  -0.576  1.00  0.00    -0.266 OA
BRANCH  28  31
HETATM   31  N   UNL     1      47.486 -31.698  -1.890  1.00  0.00    -0.247 NA
HETATM   32  H   UNL     1      48.195 -31.543  -2.619  1.00  0.00     0.143 HD
HETATM   33  H   UNL     1      46.873 -30.882  -1.995  1.00  0.00     0.143 HD
ENDBRANCH  28  31
ENDBRANCH  22  27
ENDBRANCH   5  21
TORSDOF 3
ENDMDL
MODEL 3
REMARK VINA RESULT:      -8.6      2.588      6.199
REMARK  3 active torsions:
REMARK  status: ('A' for Active; 'I' for Inactive)
REMARK    1  A    between atoms: N_5  and  C_6 
REMARK    2  A    between atoms: C_7  and  C_8 
REMARK       I    between atoms: C_8  and  N_9 
REMARK    3  A    between atoms: N_9  and  N_10 
ROOT
HETATM    1  C   UNL     1      39.473 -10.444   4.154  1.00  0.00     0.056 C 
HETATM    2  C   UNL     1      40.019 -11.456   3.164  1.00  0.00     0.158 C 
HETATM    3  C   UNL     1      38.967 -11.924   2.153  1.00  0.00     0.267 C 
HETATM    4  O   UNL     1      37.890 -12.427   2.459  1.00  0.00    -0.269 OA
HETATM    5  N   UNL     1      39.521 -11.833   0.892  1.00  0.00    -0.230 N 
HETATM    6  C   UNL     1      40.821 -11.390   0.978  1.00  0.00     0.333 C 
HETATM    7  O   UNL     1      41.660 -11.414   0.089  1.00  0.00    -0.246 OA
HETATM    8  N   UNL     1      41.043 -10.917   2.275  1.00  0.00    -0.309 N 
HETATM    9  C   UNL     1      42.410 -10.750   2.783  1.00  0.00     0.134 C 
HETATM   10  C   UNL     1      43.030 -12.094   3.225  1.00  0.00     0.061 C 
HETATM   11  C   UNL     1      41.992 -12.972   3.854  1.00  0.00    -0.018 A 
HETATM   12  C   UNL     1      40.642 -12.663   3.820  1.00  0.00     0.055 A 
HETATM   13  N   UNL     1      39.951 -13.701   4.389  1.00  0.00    -0.356 N 
HETATM   14  H   UNL     1      38.943 -13.771   4.457  1.00  0.00     0.166 HD
HETATM   15  C   UNL     1      40.830 -14.706   4.736  1.00  0.00     0.043 A 
HETATM   16  C   UNL     1      42.121 -14.262   4.434  1.00  0.00    -0.001 A 
HETATM   17  C   UNL     1      40.578 -15.974   5.269  1.00  0.00     0.030 A 
HETATM   18  C   UNL     1      41.673 -16.812   5.501  1.00  0.00     0.002 A 
HETATM   19  C   UNL     1      42.971 -16.392   5.218  1.00  0.00     0.001 A 
HETATM   20  C   UNL     1      43.208 -15.121   4.683  1.00  0.00     0.014 A 
ENDROOT
BRANCH   5  21
HETATM   21  C   UNL     1      39.028 -12.637  -0.157  1.00  0.00     0.063 A 
HETATM   22  C   UNL     1      39.535 -13.924  -0.393  1.00  0.00     0.060 A 
HETATM   23  C   UNL     1      39.188 -14.609  -1.566  1.00  0.00     0.019 A 
HETATM   24  C   UNL     1      38.315 -14.027  -2.485  1.00  0.00     0.001 A 
HETATM   25  C   UNL     1      37.773 -12.768  -2.232  1.00  0.00     0.002 A 
HETATM   26  C   UNL     1      38.126 -12.073  -1.072  1.00  0.00     0.031 A 
BRANCH  22  27
HETATM   27  C   UNL     1      40.380 -14.646   0.590  1.00  0.00     0.268 C 
HETATM   28  N   UNL     1      41.748 -14.616   0.338  1.00  0.00    -0.290 N 
HETATM   29  H   UNL     1      42.133 -14.061  -0.426  1.00  0.00     0.183 HD
HETATM   30  O   UNL     1      39.888 -15.162   1.589  1.00  0.00    -0.266 OA
BRANCH  28  31
HETATM   31  N   UNL     1      42.635 -15.202   1.264  1.00  0.00    -0.247 NA
HETATM   32  H   UNL     1      43.525 -14.692   1.182  1.00  0.00     0.143 HD
HETATM   33  H   UNL     1      42.874 -16.134   0.910  1.00  0.00     0.143 HD
ENDBRANCH  28  31
ENDBRANCH  22  27
ENDBRANCH   5  21
TORSDOF 3
ENDMDL
MODEL 4
REMARK VINA RESULT:      -8.5     15.189     17.664
REMARK  3 active torsions:
REMARK  status: ('A' for Active; 'I' for Inactive)
REMARK    1  A    between atoms: N_5  and  C_6 
REMARK    2  A    between atoms: C_7  and  C_8 
REMARK       I    between atoms: C_8  and  N_9 
REMARK    3  A    between atoms: N_9  and  N_10 
ROOT
HETATM    1  C   UNL     1      45.079 -33.945   1.188  1.00  0.00     0.056 C 
HETATM    2  C   UNL     1      45.279 -32.455   0.975  1.00  0.00     0.158 C 
HETATM    3  C   UNL     1      45.409 -32.080  -0.504  1.00  0.00     0.267 C 
HETATM    4  O   UNL     1      46.242 -32.558  -1.269  1.00  0.00    -0.269 OA
HETATM    5  N   UNL     1      44.558 -31.021  -0.749  1.00  0.00    -0.230 N 
HETATM    6  C   UNL     1      43.920 -30.651   0.412  1.00  0.00     0.333 C 
HETATM    7  O   UNL     1      43.283 -29.624   0.599  1.00  0.00    -0.246 OA
HETATM    8  N   UNL     1      44.133 -31.645   1.373  1.00  0.00    -0.309 N 
HETATM    9  C   UNL     1      43.920 -31.362   2.797  1.00  0.00     0.134 C 
HETATM   10  C   UNL     1      45.104 -30.586   3.415  1.00  0.00     0.061 C 
HETATM   11  C   UNL     1      46.402 -31.047   2.825  1.00  0.00    -0.018 A 
HETATM   12  C   UNL     1      46.458 -31.894   1.731  1.00  0.00     0.055 A 
HETATM   13  N   UNL     1      47.773 -32.047   1.376  1.00  0.00    -0.356 N 
HETATM   14  H   UNL     1      48.111 -32.574   0.579  1.00  0.00     0.166 HD
HETATM   15  C   UNL     1      48.566 -31.263   2.188  1.00  0.00     0.043 A 
HETATM   16  C   UNL     1      47.731 -30.644   3.123  1.00  0.00    -0.001 A 
HETATM   17  C   UNL     1      49.946 -31.039   2.149  1.00  0.00     0.030 A 
HETATM   18  C   UNL     1      50.488 -30.160   3.092  1.00  0.00     0.002 A 
HETATM   19  C   UNL     1      49.682 -29.537   4.041  1.00  0.00     0.001 A 
HETATM   20  C   UNL     1      48.302 -29.770   4.068  1.00  0.00     0.014 A 
ENDROOT
BRANCH   5  21
HETATM   21  C   UNL     1      44.809 -30.146  -1.825  1.00  0.00     0.063 A 
HETATM   22  C   UNL     1      45.612 -29.005  -1.670  1.00  0.00     0.060 A 
HETATM   23  C   UNL     1      45.665 -28.042  -2.687  1.00  0.00     0.019 A 
HETATM   24  C   UNL     1      44.946 -28.229  -3.868  1.00  0.00     0.001 A 
HETATM   25  C   UNL     1      44.183 -29.382  -4.044  1.00  0.00     0.002 A 
HETATM   26  C   UNL     1      44.114 -30.340  -3.029  1.00  0.00     0.031 A 
BRANCH  22  27
HETATM   27  C   UNL     1      46.487 -28.795  -0.491  1.00  0.00     0.268 C 
HETATM   28  N   UNL     1      45.951 -27.999   0.517  1.00  0.00    -0.290 N 
HETATM   29  H   UNL     1      44.990 -27.661   0.468  1.00  0.00     0.183 HD
HETATM   30  O   UNL     1      47.574 -29.358  -0.400  1.00  0.00    -0.266 OA
BRANCH  28  31
HETATM   31  N   UNL     1      46.675 -27.814   1.712  1.00  0.00    -0.247 NA
HETATM   32  H   UNL     1      46.880 -28.753   2.080  1.00  0.00     0.143 HD
HETATM   33  H   UNL     1      46.023 -27.436   2.408  1.00  0.00     0.143 HD
ENDBRANCH  28  31
ENDBRANCH  22  27
ENDBRANCH   5  21
TORSDOF 3
ENDMDL
MODEL 5
REMARK VINA RESULT:      -8.3      8.286     10.802
REMARK  3 active torsions:
REMARK  status: ('A' for Active; 'I' for Inactive)
REMARK    1  A    between atoms: N_5  and  C_6 
REMARK    2  A    between atoms: C_7  and  C_8 
REMARK       I    between atoms: C_8  and  N_9 
REMARK    3  A    between atoms: N_9  and  N_10 
ROOT
HETATM    1  C   UNL     1      41.271  -5.692   8.067  1.00  0.00     0.056 C 
HETATM    2  C   UNL     1      41.478  -6.900   8.962  1.00  0.00     0.158 C 
HETATM    3  C   UNL     1      41.711  -6.520  10.428  1.00  0.00     0.267 C 
HETATM    4  O   UNL     1      42.600  -5.766  10.813  1.00  0.00    -0.269 OA
HETATM    5  N   UNL     1      40.875  -7.295  11.205  1.00  0.00    -0.230 N 
HETATM    6  C   UNL     1      40.152  -8.153  10.410  1.00  0.00     0.333 C 
HETATM    7  O   UNL     1      39.498  -9.117  10.783  1.00  0.00    -0.246 OA
HETATM    8  N   UNL     1      40.301  -7.756   9.077  1.00  0.00    -0.309 N 
HETATM    9  C   UNL     1      39.985  -8.682   7.984  1.00  0.00     0.134 C 
HETATM   10  C   UNL     1      41.117  -9.706   7.749  1.00  0.00     0.061 C 
HETATM   11  C   UNL     1      42.456  -9.070   7.962  1.00  0.00    -0.018 A 
HETATM   12  C   UNL     1      42.596  -7.803   8.504  1.00  0.00     0.055 A 
HETATM   13  N   UNL     1      43.934  -7.550   8.660  1.00  0.00    -0.356 N 
HETATM   14  H   UNL     1      44.331  -6.718   9.079  1.00  0.00     0.166 HD
HETATM   15  C   UNL     1      44.661  -8.659   8.282  1.00  0.00     0.043 A 
HETATM   16  C   UNL     1      43.758  -9.618   7.816  1.00  0.00    -0.001 A 
HETATM   17  C   UNL     1      46.040  -8.891   8.341  1.00  0.00     0.030 A 
HETATM   18  C   UNL     1      46.508 -10.136   7.911  1.00  0.00     0.002 A 
HETATM   19  C   UNL     1      45.632 -11.108   7.433  1.00  0.00     0.001 A 
HETATM   20  C   UNL     1      44.255 -10.862   7.381  1.00  0.00     0.014 A 
ENDROOT
BRANCH   5  21
HETATM   21  C   UNL     1      41.198  -7.551  12.554  1.00  0.00     0.063 A 
HETATM   22  C   UNL     1      42.085  -8.578  12.912  1.00  0.00     0.060 A 
HETATM   23  C   UNL     1      42.216  -8.953  14.256  1.00  0.00     0.019 A 
HETATM   24  C   UNL     1      41.492  -8.286  15.244  1.00  0.00     0.001 A 
HETATM   25  C   UNL     1      40.645  -7.234  14.897  1.00  0.00     0.002 A 
HETATM   26  C   UNL     1      40.497  -6.865  13.558  1.00  0.00     0.031 A 
BRANCH  22  27
HETATM   27  C   UNL     1      42.966  -9.255  11.929  1.00  0.00     0.268 C 
HETATM   28  N   UNL     1      42.552 -10.522  11.528  1.00  0.00    -0.290 N 
HETATM   29  H   UNL     1      41.658 -10.906  11.833  1.00  0.00     0.183 HD
HETATM   30  O   UNL     1      43.947  -8.686  11.461  1.00  0.00    -0.266 OA
BRANCH  28  31
HETATM   31  N   UNL     1      43.279 -11.205  10.533  1.00  0.00    -0.247 NA
HETATM   32  H   UNL     1      43.560 -10.501   9.837  1.00  0.00     0.143 HD
HETATM   33  H   UNL     1      42.613 -11.785  10.011  1.00  0.00     0.143 HD
ENDBRANCH  28  31
ENDBRANCH  22  27
ENDBRANCH   5  21
TORSDOF 3
ENDMDL
MODEL 6
REMARK VINA RESULT:      -8.3     14.851     17.181
REMARK  3 active torsions:
REMARK  status: ('A' for Active; 'I' for Inactive)
REMARK    1  A    between atoms: N_5  and  C_6 
REMARK    2  A    between atoms: C_7  and  C_8 
REMARK       I    between atoms: C_8  and  N_9 
REMARK    3  A    between atoms: N_9  and  N_10 
ROOT
HETATM    1  C   UNL     1      45.406 -31.217  -3.969  1.00  0.00     0.056 C 
HETATM    2  C   UNL     1      45.919 -30.638  -2.662  1.00  0.00     0.158 C 
HETATM    3  C   UNL     1      47.127 -31.402  -2.108  1.00  0.00     0.267 C 
HETATM    4  O   UNL     1      47.133 -32.606  -1.870  1.00  0.00    -0.269 OA
HETATM    5  N   UNL     1      48.098 -30.478  -1.782  1.00  0.00    -0.230 N 
HETATM    6  C   UNL     1      47.643 -29.205  -2.033  1.00  0.00     0.333 C 
HETATM    7  O   UNL     1      48.151 -28.160  -1.651  1.00  0.00    -0.246 OA
HETATM    8  N   UNL     1      46.471 -29.294  -2.790  1.00  0.00    -0.309 N 
HETATM    9  C   UNL     1      45.552 -28.153  -2.878  1.00  0.00     0.134 C 
HETATM   10  C   UNL     1      44.665 -28.028  -1.620  1.00  0.00     0.061 C 
HETATM   11  C   UNL     1      44.290 -29.382  -1.103  1.00  0.00    -0.018 A 
HETATM   12  C   UNL     1      44.862 -30.545  -1.590  1.00  0.00     0.055 A 
HETATM   13  N   UNL     1      44.386 -31.598  -0.853  1.00  0.00    -0.356 N 
HETATM   14  H   UNL     1      44.669 -32.565  -0.955  1.00  0.00     0.166 HD
HETATM   15  C   UNL     1      43.559 -31.127   0.145  1.00  0.00     0.043 A 
HETATM   16  C   UNL     1      43.462 -29.740  -0.005  1.00  0.00    -0.001 A 
HETATM   17  C   UNL     1      42.915 -31.817   1.178  1.00  0.00     0.030 A 
HETATM   18  C   UNL     1      42.149 -31.071   2.079  1.00  0.00     0.002 A 
HETATM   19  C   UNL     1      42.027 -29.690   1.948  1.00  0.00     0.001 A 
HETATM   20  C   UNL     1      42.678 -29.012   0.911  1.00  0.00     0.014 A 
ENDROOT
BRANCH   5  21
HETATM   21  C   UNL     1      49.076 -30.792  -0.815  1.00  0.00     0.063 A 
HETATM   22  C   UNL     1      48.903 -30.454   0.536  1.00  0.00     0.060 A 
HETATM   23  C   UNL     1      49.975 -30.576   1.431  1.00  0.00     0.019 A 
HETATM   24  C   UNL     1      51.205 -31.063   0.989  1.00  0.00     0.001 A 
HETATM   25  C   UNL     1      51.367 -31.443  -0.342  1.00  0.00     0.002 A 
HETATM   26  C   UNL     1      50.308 -31.310  -1.243  1.00  0.00     0.031 A 
BRANCH  22  27
HETATM   27  C   UNL     1      47.596 -30.034   1.097  1.00  0.00     0.268 C 
HETATM   28  N   UNL     1      47.450 -28.668   1.316  1.00  0.00    -0.290 N 
HETATM   29  H   UNL     1      48.170 -28.006   1.026  1.00  0.00     0.183 HD
HETATM   30  O   UNL     1      46.694 -30.847   1.276  1.00  0.00    -0.266 OA
BRANCH  28  31
HETATM   31  N   UNL     1      46.212 -28.167   1.766  1.00  0.00    -0.247 NA
HETATM   32  H   UNL     1      45.923 -27.445   1.092  1.00  0.00     0.143 HD
HETATM   33  H   UNL     1      46.393 -27.623   2.616  1.00  0.00     0.143 HD
ENDBRANCH  28  31
ENDBRANCH  22  27
ENDBRANCH   5  21
TORSDOF 3
ENDMDL
MODEL 7
REMARK VINA RESULT:      -8.2      2.104      3.129
REMARK  3 active torsions:
REMARK  status: ('A' for Active; 'I' for Inactive)
REMARK    1  A    between atoms: N_5  and  C_6 
REMARK    2  A    between atoms: C_7  and  C_8 
REMARK       I    between atoms: C_8  and  N_9 
REMARK    3  A    between atoms: N_9  and  N_10 
ROOT
HETATM    1  C   UNL     1      42.288 -10.123   5.661  1.00  0.00     0.056 C 
HETATM    2  C   UNL     1      41.805 -11.460   5.128  1.00  0.00     0.158 C 
HETATM    3  C   UNL     1      42.917 -12.512   5.071  1.00  0.00     0.267 C 
HETATM    4  O   UNL     1      43.975 -12.368   4.466  1.00  0.00    -0.269 OA
HETATM    5  N   UNL     1      42.439 -13.666   5.659  1.00  0.00    -0.230 N 
HETATM    6  C   UNL     1      41.135 -13.486   6.060  1.00  0.00     0.333 C 
HETATM    7  O   UNL     1      40.351 -14.359   6.403  1.00  0.00    -0.246 OA
HETATM    8  N   UNL     1      40.834 -12.122   5.993  1.00  0.00    -0.309 N 
HETATM    9  C   UNL     1      39.439 -11.667   5.976  1.00  0.00     0.134 C 
HETATM   10  C   UNL     1      38.798 -11.822   4.580  1.00  0.00     0.061 C 
HETATM   11  C   UNL     1      39.799 -11.530   3.504  1.00  0.00    -0.018 A 
HETATM   12  C   UNL     1      41.147 -11.364   3.774  1.00  0.00     0.055 A 
HETATM   13  N   UNL     1      41.805 -11.209   2.582  1.00  0.00    -0.356 N 
HETATM   14  H   UNL     1      42.808 -11.118   2.470  1.00  0.00     0.166 HD
HETATM   15  C   UNL     1      40.910 -11.333   1.540  1.00  0.00     0.043 A 
HETATM   16  C   UNL     1      39.639 -11.510   2.093  1.00  0.00    -0.001 A 
HETATM   17  C   UNL     1      41.134 -11.326   0.159  1.00  0.00     0.030 A 
HETATM   18  C   UNL     1      40.029 -11.503  -0.679  1.00  0.00     0.002 A 
HETATM   19  C   UNL     1      38.749 -11.672  -0.156  1.00  0.00     0.001 A 
HETATM   20  C   UNL     1      38.541 -11.678   1.228  1.00  0.00     0.014 A 
ENDROOT
BRANCH   5  21
HETATM   21  C   UNL     1      42.996 -14.916   5.319  1.00  0.00     0.063 A 
HETATM   22  C   UNL     1      42.472 -15.690   4.272  1.00  0.00     0.060 A 
HETATM   23  C   UNL     1      42.898 -17.015   4.101  1.00  0.00     0.019 A 
HETATM   24  C   UNL     1      43.865 -17.556   4.948  1.00  0.00     0.001 A 
HETATM   25  C   UNL     1      44.421 -16.775   5.960  1.00  0.00     0.002 A 
HETATM   26  C   UNL     1      43.990 -15.459   6.147  1.00  0.00     0.031 A 
BRANCH  22  27
HETATM   27  C   UNL     1      41.525 -15.146   3.269  1.00  0.00     0.268 C 
HETATM   28  N   UNL     1      40.192 -15.501   3.452  1.00  0.00    -0.290 N 
HETATM   29  H   UNL     1      39.893 -16.028   4.273  1.00  0.00     0.183 HD
HETATM   30  O   UNL     1      41.905 -14.378   2.391  1.00  0.00    -0.266 OA
BRANCH  28  31
HETATM   31  N   UNL     1      39.208 -14.961   2.599  1.00  0.00    -0.247 NA
HETATM   32  H   UNL     1      39.285 -15.466   1.705  1.00  0.00     0.143 HD
HETATM   33  H   UNL     1      39.507 -14.013   2.349  1.00  0.00     0.143 HD
ENDBRANCH  28  31
ENDBRANCH  22  27
ENDBRANCH   5  21
TORSDOF 3
ENDMDL
MODEL 8
REMARK VINA RESULT:      -8.1      1.774      2.315
REMARK  3 active torsions:
REMARK  status: ('A' for Active; 'I' for Inactive)
REMARK    1  A    between atoms: N_5  and  C_6 
REMARK    2  A    between atoms: C_7  and  C_8 
REMARK       I    between atoms: C_8  and  N_9 
REMARK    3  A    between atoms: N_9  and  N_10 
ROOT
HETATM    1  C   UNL     1      41.784  -9.981   1.433  1.00  0.00     0.056 C 
HETATM    2  C   UNL     1      41.038 -11.276   1.699  1.00  0.00     0.158 C 
HETATM    3  C   UNL     1      41.927 -12.353   2.330  1.00  0.00     0.267 C 
HETATM    4  O   UNL     1      42.974 -12.762   1.837  1.00  0.00    -0.269 OA
HETATM    5  N   UNL     1      41.256 -12.870   3.420  1.00  0.00    -0.230 N 
HETATM    6  C   UNL     1      40.024 -12.271   3.543  1.00  0.00     0.333 C 
HETATM    7  O   UNL     1      39.098 -12.646   4.249  1.00  0.00    -0.246 OA
HETATM    8  N   UNL     1      39.987 -11.154   2.702  1.00  0.00    -0.309 N 
HETATM    9  C   UNL     1      38.704 -10.553   2.320  1.00  0.00     0.134 C 
HETATM   10  C   UNL     1      38.002 -11.352   1.200  1.00  0.00     0.061 C 
HETATM   11  C   UNL     1      39.007 -11.897   0.232  1.00  0.00    -0.018 A 
HETATM   12  C   UNL     1      40.369 -11.847   0.473  1.00  0.00     0.055 A 
HETATM   13  N   UNL     1      41.008 -12.508  -0.544  1.00  0.00    -0.356 N 
HETATM   14  H   UNL     1      42.006 -12.672  -0.605  1.00  0.00     0.166 HD
HETATM   15  C   UNL     1      40.074 -13.038  -1.409  1.00  0.00     0.043 A 
HETATM   16  C   UNL     1      38.810 -12.647  -0.958  1.00  0.00    -0.001 A 
HETATM   17  C   UNL     1      40.252 -13.849  -2.535  1.00  0.00     0.030 A 
HETATM   18  C   UNL     1      39.108 -14.271  -3.220  1.00  0.00     0.002 A 
HETATM   19  C   UNL     1      37.837 -13.888  -2.799  1.00  0.00     0.001 A 
HETATM   20  C   UNL     1      37.674 -13.077  -1.670  1.00  0.00     0.014 A 
ENDROOT
BRANCH   5  21
HETATM   21  C   UNL     1      41.553 -14.169   3.882  1.00  0.00     0.063 A 
HETATM   22  C   UNL     1      42.542 -14.392   4.852  1.00  0.00     0.060 A 
HETATM   23  C   UNL     1      42.968 -15.698   5.130  1.00  0.00     0.019 A 
HETATM   24  C   UNL     1      42.389 -16.780   4.468  1.00  0.00     0.001 A 
HETATM   25  C   UNL     1      41.374 -16.566   3.537  1.00  0.00     0.002 A 
HETATM   26  C   UNL     1      40.955 -15.266   3.244  1.00  0.00     0.031 A 
BRANCH  22  27
HETATM   27  C   UNL     1      43.123 -13.300   5.671  1.00  0.00     0.268 C 
HETATM   28  N   UNL     1      42.956 -13.430   7.047  1.00  0.00    -0.290 N 
HETATM   29  H   UNL     1      42.535 -14.268   7.450  1.00  0.00     0.183 HD
HETATM   30  O   UNL     1      43.767 -12.393   5.152  1.00  0.00    -0.266 OA
BRANCH  28  31
HETATM   31  N   UNL     1      43.548 -12.486   7.909  1.00  0.00    -0.247 NA
HETATM   32  H   UNL     1      43.533 -12.898   8.851  1.00  0.00     0.143 HD
HETATM   33  H   UNL     1      42.895 -11.699   7.995  1.00  0.00     0.143 HD
ENDBRANCH  28  31
ENDBRANCH  22  27
ENDBRANCH   5  21
TORSDOF 3
ENDMDL
MODEL 9
REMARK VINA RESULT:      -7.8      2.647      4.084
REMARK  3 active torsions:
REMARK  status: ('A' for Active; 'I' for Inactive)
REMARK    1  A    between atoms: N_5  and  C_6 
REMARK    2  A    between atoms: C_7  and  C_8 
REMARK       I    between atoms: C_8  and  N_9 
REMARK    3  A    between atoms: N_9  and  N_10 
ROOT
HETATM    1  C   UNL     1      41.704  -9.313   4.283  1.00  0.00     0.056 C 
HETATM    2  C   UNL     1      41.236 -10.443   3.385  1.00  0.00     0.158 C 
HETATM    3  C   UNL     1      42.255 -11.583   3.285  1.00  0.00     0.267 C 
HETATM    4  O   UNL     1      43.419 -11.440   2.924  1.00  0.00    -0.269 OA
HETATM    5  N   UNL     1      41.585 -12.770   3.503  1.00  0.00    -0.230 N 
HETATM    6  C   UNL     1      40.245 -12.526   3.699  1.00  0.00     0.333 C 
HETATM    7  O   UNL     1      39.345 -13.354   3.692  1.00  0.00    -0.246 OA
HETATM    8  N   UNL     1      40.067 -11.153   3.892  1.00  0.00    -0.309 N 
HETATM    9  C   UNL     1      38.741 -10.545   3.735  1.00  0.00     0.134 C 
HETATM   10  C   UNL     1      38.377 -10.329   2.250  1.00  0.00     0.061 C 
HETATM   11  C   UNL     1      39.589  -9.938   1.461  1.00  0.00    -0.018 A 
HETATM   12  C   UNL     1      40.866  -9.991   1.994  1.00  0.00     0.055 A 
HETATM   13  N   UNL     1      41.756  -9.668   1.002  1.00  0.00    -0.356 N 
HETATM   14  H   UNL     1      42.765  -9.673   1.091  1.00  0.00     0.166 HD
HETATM   15  C   UNL     1      41.077  -9.466  -0.181  1.00  0.00     0.043 A 
HETATM   16  C   UNL     1      39.712  -9.605   0.086  1.00  0.00    -0.001 A 
HETATM   17  C   UNL     1      41.568  -9.197  -1.463  1.00  0.00     0.030 A 
HETATM   18  C   UNL     1      40.639  -9.065  -2.500  1.00  0.00     0.002 A 
HETATM   19  C   UNL     1      39.272  -9.188  -2.261  1.00  0.00     0.001 A 
HETATM   20  C   UNL     1      38.796  -9.459  -0.973  1.00  0.00     0.014 A 
ENDROOT
BRANCH   5  21
HETATM   21  C   UNL     1      42.102 -13.978   2.991  1.00  0.00     0.063 A 
HETATM   22  C   UNL     1      41.700 -14.475   1.742  1.00  0.00     0.060 A 
HETATM   23  C   UNL     1      42.056 -15.775   1.359  1.00  0.00     0.019 A 
HETATM   24  C   UNL     1      42.836 -16.566   2.202  1.00  0.00     0.001 A 
HETATM   25  C   UNL     1      43.275 -16.059   3.424  1.00  0.00     0.002 A 
HETATM   26  C   UNL     1      42.912 -14.770   3.820  1.00  0.00     0.031 A 
BRANCH  22  27
HETATM   27  C   UNL     1      40.964 -13.653   0.751  1.00  0.00     0.268 C 
HETATM   28  N   UNL     1      39.607 -13.935   0.630  1.00  0.00    -0.290 N 
HETATM   29  H   UNL     1      39.150 -14.605   1.249  1.00  0.00     0.183 HD
HETATM   30  O   UNL     1      41.521 -12.742   0.146  1.00  0.00    -0.266 OA
BRANCH  28  31
HETATM   31  N   UNL     1      38.809 -13.147  -0.224  1.00  0.00    -0.247 NA
HETATM   32  H   UNL     1      37.834 -13.286   0.073  1.00  0.00     0.143 HD
HETATM   33  H   UNL     1      38.828 -13.586  -1.151  1.00  0.00     0.143 HD
ENDBRANCH  28  31
ENDBRANCH  22  27
ENDBRANCH   5  21
TORSDOF 3
ENDMDL
MODEL 10
REMARK VINA RESULT:      -7.7      2.788      6.580
REMARK  3 active torsions:
REMARK  status: ('A' for Active; 'I' for Inactive)
REMARK    1  A    between atoms: N_5  and  C_6 
REMARK    2  A    between atoms: C_7  and  C_8 
REMARK       I    between atoms: C_8  and  N_9 
REMARK    3  A    between atoms: N_9  and  N_10 
ROOT
HETATM    1  C   UNL     1      40.753 -15.430   4.863  1.00  0.00     0.056 C 
HETATM    2  C   UNL     1      40.909 -14.002   4.374  1.00  0.00     0.158 C 
HETATM    3  C   UNL     1      41.291 -13.919   2.892  1.00  0.00     0.267 C 
HETATM    4  O   UNL     1      42.275 -14.463   2.401  1.00  0.00    -0.269 OA
HETATM    5  N   UNL     1      40.445 -13.012   2.287  1.00  0.00    -0.230 N 
HETATM    6  C   UNL     1      39.584 -12.477   3.217  1.00  0.00     0.333 C 
HETATM    7  O   UNL     1      38.870 -11.495   3.069  1.00  0.00    -0.246 OA
HETATM    8  N   UNL     1      39.668 -13.235   4.389  1.00  0.00    -0.309 N 
HETATM    9  C   UNL     1      39.181 -12.694   5.663  1.00  0.00     0.134 C 
HETATM   10  C   UNL     1      40.187 -11.706   6.293  1.00  0.00     0.061 C 
HETATM   11  C   UNL     1      41.594 -12.156   6.045  1.00  0.00    -0.018 A 
HETATM   12  C   UNL     1      41.896 -13.196   5.182  1.00  0.00     0.055 A 
HETATM   13  N   UNL     1      43.261 -13.297   5.097  1.00  0.00    -0.356 N 
HETATM   14  H   UNL     1      43.768 -13.940   4.500  1.00  0.00     0.166 HD
HETATM   15  C   UNL     1      43.846 -12.298   5.846  1.00  0.00     0.043 A 
HETATM   16  C   UNL     1      42.822 -11.583   6.472  1.00  0.00    -0.001 A 
HETATM   17  C   UNL     1      45.196 -11.962   5.995  1.00  0.00     0.030 A 
HETATM   18  C   UNL     1      45.507 -10.867   6.807  1.00  0.00     0.002 A 
HETATM   19  C   UNL     1      44.507 -10.142   7.451  1.00  0.00     0.001 A 
HETATM   20  C   UNL     1      43.161 -10.489   7.291  1.00  0.00     0.014 A 
ENDROOT
BRANCH   5  21
HETATM   21  C   UNL     1      40.844 -12.351   1.108  1.00  0.00     0.063 A 
HETATM   22  C   UNL     1      41.501 -11.111   1.149  1.00  0.00     0.060 A 
HETATM   23  C   UNL     1      41.686 -10.378  -0.031  1.00  0.00     0.019 A 
HETATM   24  C   UNL     1      41.249 -10.891  -1.252  1.00  0.00     0.001 A 
HETATM   25  C   UNL     1      40.638 -12.142  -1.303  1.00  0.00     0.002 A 
HETATM   26  C   UNL     1      40.436 -12.873  -0.130  1.00  0.00     0.031 A 
BRANCH  22  27
HETATM   27  C   UNL     1      42.088 -10.557   2.393  1.00  0.00     0.268 C 
HETATM   28  N   UNL     1      41.366  -9.525   2.987  1.00  0.00    -0.290 N 
HETATM   29  H   UNL     1      40.456  -9.241   2.624  1.00  0.00     0.183 HD
HETATM   30  O   UNL     1      43.102 -11.041   2.886  1.00  0.00    -0.266 OA
BRANCH  28  31
HETATM   31  N   UNL     1      41.801  -8.994   4.218  1.00  0.00    -0.247 NA
HETATM   32  H   UNL     1      42.799  -8.768   4.104  1.00  0.00     0.143 HD
HETATM   33  H   UNL     1      41.820  -9.766   4.894  1.00  0.00     0.143 HD
ENDBRANCH  28  31
ENDBRANCH  22  27
ENDBRANCH   5  21
TORSDOF 3
ENDMDL
