MODEL 1
REMARK VINA RESULT:      -8.3      0.000      0.000
REMARK  9 active torsions:
REMARK  status: ('A' for Active; 'I' for Inactive)
REMARK    1  A    between atoms: N_6  and  C_7 
REMARK    2  A    between atoms: C_9  and  S_10 
REMARK    3  A    between atoms: S_10  and  C_11 
REMARK    4  A    between atoms: C_11  and  C_12 
REMARK    5  A    between atoms: C_14  and  C_15 
REMARK       I    between atoms: C_15  and  N_16 
REMARK    6  A    between atoms: N_16  and  C_17 
REMARK    7  A    between atoms: C_17  and  C_18 
REMARK    8  A    between atoms: C_18  and  N_19 
REMARK    9  A    between atoms: C_27  and  C_28 
ROOT
HETATM    1  C   UNL     1      41.274 -15.702   3.559  1.00  0.00     0.130 A 
HETATM    2  N   UNL     1      41.774 -15.120   4.664  1.00  0.00    -0.205 NA
HETATM    3  C   UNL     1      42.895 -15.629   5.205  1.00  0.00     0.191 A 
HETATM    4  N   UNL     1      43.507 -16.733   4.772  1.00  0.00    -0.218 NA
HETATM    5  C   UNL     1      43.004 -17.326   3.668  1.00  0.00     0.146 A 
HETATM    6  C   UNL     1      41.888 -16.819   3.022  1.00  0.00     0.087 A 
ENDROOT
BRANCH   3   7
HETATM    7  S   UNL     1      43.637 -14.737   6.549  1.00  0.00    -0.084 SA
BRANCH   7   8
HETATM    8  C   UNL     1      43.535 -13.072   5.832  1.00  0.00     0.147 C 
BRANCH   8   9
HETATM    9  C   UNL     1      44.287 -12.047   6.603  1.00  0.00     0.063 A 
HETATM   10  O   UNL     1      43.752 -11.637   7.792  1.00  0.00    -0.309 OA
HETATM   11  C   UNL     1      44.691 -10.851   8.408  1.00  0.00     0.143 A 
HETATM   12  C   UNL     1      45.799 -10.727   7.595  1.00  0.00     0.045 A 
HETATM   13  C   UNL     1      45.529 -11.474   6.424  1.00  0.00     0.036 A 
BRANCH  11  14
HETATM   14  C   UNL     1      44.427 -10.356   9.735  1.00  0.00     0.275 C 
HETATM   15  N   UNL     1      43.213 -10.729  10.272  1.00  0.00    -0.354 N 
HETATM   16  H   UNL     1      42.587 -11.228   9.642  1.00  0.00     0.162 HD
HETATM   17  O   UNL     1      45.211  -9.681  10.404  1.00  0.00    -0.265 OA
BRANCH  15  18
HETATM   18  C   UNL     1      42.673 -10.120  11.479  1.00  0.00     0.150 C 
BRANCH  18  19
HETATM   19  C   UNL     1      41.278  -9.490  11.293  1.00  0.00     0.253 C 
BRANCH  19  20
HETATM   20  N   UNL     1      40.551  -9.290  12.607  1.00  0.00    -0.077 N 
HETATM   21  H   UNL     1      41.270  -9.066  13.324  1.00  0.00     0.279 HD
HETATM   22  C   UNL     1      39.647  -8.092  12.620  1.00  0.00     0.269 C 
HETATM   23  C   UNL     1      39.847 -10.529  13.069  1.00  0.00     0.269 C 
ENDBRANCH  19  20
ENDBRANCH  18  19
ENDBRANCH  15  18
ENDBRANCH  11  14
ENDBRANCH   8   9
ENDBRANCH   7   8
ENDBRANCH   3   7
BRANCH   1  24
HETATM   24  N   UNL     1      40.173 -15.111   2.933  1.00  0.00    -0.362 N 
HETATM   25  C   UNL     1      39.902 -15.560   1.550  1.00  0.00     0.152 C 
HETATM   26  C   UNL     1      40.695 -14.717   0.529  1.00  0.00     0.254 C 
HETATM   27  N   UNL     1      40.377 -13.228   0.727  1.00  0.00    -0.072 N 
HETATM   28  C   UNL     1      41.071 -12.358  -0.276  1.00  0.00     0.269 C 
HETATM   29  H   UNL     1      39.365 -13.119   0.573  1.00  0.00     0.279 HD
HETATM   30  C   UNL     1      40.665 -12.792   2.162  1.00  0.00     0.254 C 
HETATM   31  C   UNL     1      39.892 -13.680   3.164  1.00  0.00     0.152 C 
ENDBRANCH   1  24
BRANCH   5  32
HETATM   32  C   UNL     1      43.674 -18.574   3.114  1.00  0.00     0.434 C 
HETATM   33  F   UNL     1      44.951 -18.373   2.692  1.00  0.00    -0.165 F 
HETATM   34  F   UNL     1      43.730 -19.570   4.042  1.00  0.00    -0.165 F 
HETATM   35  F   UNL     1      42.998 -19.094   2.052  1.00  0.00    -0.165 F 
ENDBRANCH   5  32
TORSDOF 9
ENDMDL
MODEL 2
REMARK VINA RESULT:      -8.1      1.702      2.127
REMARK  9 active torsions:
REMARK  status: ('A' for Active; 'I' for Inactive)
REMARK    1  A    between atoms: N_6  and  C_7 
REMARK    2  A    between atoms: C_9  and  S_10 
REMARK    3  A    between atoms: S_10  and  C_11 
REMARK    4  A    between atoms: C_11  and  C_12 
REMARK    5  A    between atoms: C_14  and  C_15 
REMARK       I    between atoms: C_15  and  N_16 
REMARK    6  A    between atoms: N_16  and  C_17 
REMARK    7  A    between atoms: C_17  and  C_18 
REMARK    8  A    between atoms: C_18  and  N_19 
REMARK    9  A    between atoms: C_27  and  C_28 
ROOT
HETATM    1  C   UNL     1      41.081 -14.430   3.955  1.00  0.00     0.130 A 
HETATM    2  N   UNL     1      41.556 -13.223   4.310  1.00  0.00    -0.205 NA
HETATM    3  C   UNL     1      42.747 -13.161   4.931  1.00  0.00     0.191 A 
HETATM    4  N   UNL     1      43.461 -14.226   5.303  1.00  0.00    -0.218 NA
HETATM    5  C   UNL     1      42.983 -15.441   4.955  1.00  0.00     0.146 A 
HETATM    6  C   UNL     1      41.793 -15.576   4.259  1.00  0.00     0.087 A 
ENDROOT
BRANCH   3   7
HETATM    7  S   UNL     1      43.439 -11.552   5.224  1.00  0.00    -0.084 SA
BRANCH   7   8
HETATM    8  C   UNL     1      44.761 -12.051   6.365  1.00  0.00     0.147 C 
BRANCH   8   9
HETATM    9  C   UNL     1      44.861 -11.187   7.570  1.00  0.00     0.063 A 
HETATM   10  O   UNL     1      43.955 -11.397   8.572  1.00  0.00    -0.309 OA
HETATM   11  C   UNL     1      44.351 -10.636   9.641  1.00  0.00     0.143 A 
HETATM   12  C   UNL     1      45.475  -9.912   9.305  1.00  0.00     0.045 A 
HETATM   13  C   UNL     1      45.789 -10.246   7.966  1.00  0.00     0.036 A 
BRANCH  11  14
HETATM   14  C   UNL     1      43.623 -10.740  10.880  1.00  0.00     0.275 C 
HETATM   15  N   UNL     1      42.380 -10.142  10.885  1.00  0.00    -0.354 N 
HETATM   16  H   UNL     1      42.146  -9.605  10.052  1.00  0.00     0.162 HD
HETATM   17  O   UNL     1      44.016 -11.342  11.880  1.00  0.00    -0.265 OA
BRANCH  15  18
HETATM   18  C   UNL     1      41.623  -9.926  12.110  1.00  0.00     0.150 C 
BRANCH  18  19
HETATM   19  C   UNL     1      40.096  -9.867  11.900  1.00  0.00     0.253 C 
BRANCH  19  20
HETATM   20  N   UNL     1      39.711  -9.129  10.634  1.00  0.00    -0.077 N 
HETATM   21  H   UNL     1      40.594  -8.876  10.147  1.00  0.00     0.279 HD
HETATM   22  C   UNL     1      38.983  -9.982   9.637  1.00  0.00     0.269 C 
HETATM   23  C   UNL     1      38.985  -7.849  10.914  1.00  0.00     0.269 C 
ENDBRANCH  19  20
ENDBRANCH  18  19
ENDBRANCH  15  18
ENDBRANCH  11  14
ENDBRANCH   8   9
ENDBRANCH   7   8
ENDBRANCH   3   7
BRANCH   1  24
HETATM   24  N   UNL     1      39.896 -14.489   3.214  1.00  0.00    -0.362 N 
HETATM   25  C   UNL     1      39.808 -15.590   2.229  1.00  0.00     0.152 C 
HETATM   26  C   UNL     1      40.413 -15.169   0.873  1.00  0.00     0.254 C 
HETATM   27  N   UNL     1      39.726 -13.889   0.374  1.00  0.00    -0.072 N 
HETATM   28  C   UNL     1      40.228 -13.461  -0.972  1.00  0.00     0.269 C 
HETATM   29  H   UNL     1      38.727 -14.112   0.268  1.00  0.00     0.279 HD
HETATM   30  C   UNL     1      39.832 -12.771   1.409  1.00  0.00     0.254 C 
HETATM   31  C   UNL     1      39.259 -13.235   2.768  1.00  0.00     0.152 C 
ENDBRANCH   1  24
BRANCH   5  32
HETATM   32  C   UNL     1      43.764 -16.691   5.330  1.00  0.00     0.434 C 
HETATM   33  F   UNL     1      44.904 -16.440   6.027  1.00  0.00    -0.165 F 
HETATM   34  F   UNL     1      43.023 -17.536   6.101  1.00  0.00    -0.165 F 
HETATM   35  F   UNL     1      44.135 -17.414   4.237  1.00  0.00    -0.165 F 
ENDBRANCH   5  32
TORSDOF 9
ENDMDL
MODEL 3
REMARK VINA RESULT:      -8.0      2.266      2.801
REMARK  9 active torsions:
REMARK  status: ('A' for Active; 'I' for Inactive)
REMARK    1  A    between atoms: N_6  and  C_7 
REMARK    2  A    between atoms: C_9  and  S_10 
REMARK    3  A    between atoms: S_10  and  C_11 
REMARK    4  A    between atoms: C_11  and  C_12 
REMARK    5  A    between atoms: C_14  and  C_15 
REMARK       I    between atoms: C_15  and  N_16 
REMARK    6  A    between atoms: N_16  and  C_17 
REMARK    7  A    between atoms: C_17  and  C_18 
REMARK    8  A    between atoms: C_18  and  N_19 
REMARK    9  A    between atoms: C_27  and  C_28 
ROOT
HETATM    1  C   UNL     1      42.288 -14.899   3.984  1.00  0.00     0.130 A 
HETATM    2  N   UNL     1      42.599 -13.599   4.132  1.00  0.00    -0.205 NA
HETATM    3  C   UNL     1      43.225 -13.214   5.258  1.00  0.00     0.191 A 
HETATM    4  N   UNL     1      43.488 -14.020   6.289  1.00  0.00    -0.218 NA
HETATM    5  C   UNL     1      43.171 -15.325   6.148  1.00  0.00     0.146 A 
HETATM    6  C   UNL     1      42.580 -15.803   4.990  1.00  0.00     0.087 A 
ENDROOT
BRANCH   3   7
HETATM    7  S   UNL     1      43.789 -11.532   5.351  1.00  0.00    -0.084 SA
BRANCH   7   8
HETATM    8  C   UNL     1      45.173 -11.794   6.497  1.00  0.00     0.147 C 
BRANCH   8   9
HETATM    9  C   UNL     1      45.095 -10.954   7.721  1.00  0.00     0.063 A 
HETATM   10  O   UNL     1      44.165 -11.296   8.661  1.00  0.00    -0.309 OA
HETATM   11  C   UNL     1      44.401 -10.519   9.765  1.00  0.00     0.143 A 
HETATM   12  C   UNL     1      45.447  -9.657   9.512  1.00  0.00     0.045 A 
HETATM   13  C   UNL     1      45.877  -9.918   8.190  1.00  0.00     0.036 A 
BRANCH  11  14
HETATM   14  C   UNL     1      43.619 -10.740  10.956  1.00  0.00     0.275 C 
HETATM   15  N   UNL     1      42.379 -10.135  10.967  1.00  0.00    -0.354 N 
HETATM   16  H   UNL     1      42.184  -9.515  10.182  1.00  0.00     0.162 HD
HETATM   17  O   UNL     1      43.966 -11.442  11.907  1.00  0.00    -0.265 OA
BRANCH  15  18
HETATM   18  C   UNL     1      41.571 -10.036  12.173  1.00  0.00     0.150 C 
BRANCH  18  19
HETATM   19  C   UNL     1      41.455  -8.604  12.734  1.00  0.00     0.253 C 
BRANCH  19  20
HETATM   20  N   UNL     1      42.220  -8.425  14.030  1.00  0.00    -0.077 N 
HETATM   21  H   UNL     1      42.836  -9.255  14.139  1.00  0.00     0.279 HD
HETATM   22  C   UNL     1      43.176  -7.268  14.011  1.00  0.00     0.269 C 
HETATM   23  C   UNL     1      41.321  -8.389  15.228  1.00  0.00     0.269 C 
ENDBRANCH  19  20
ENDBRANCH  18  19
ENDBRANCH  15  18
ENDBRANCH  11  14
ENDBRANCH   8   9
ENDBRANCH   7   8
ENDBRANCH   3   7
BRANCH   1  24
HETATM   24  N   UNL     1      41.735 -15.319   2.772  1.00  0.00    -0.362 N 
HETATM   25  C   UNL     1      42.336 -14.732   1.553  1.00  0.00     0.152 C 
HETATM   26  C   UNL     1      41.652 -13.398   1.187  1.00  0.00     0.254 C 
HETATM   27  N   UNL     1      40.138 -13.614   1.039  1.00  0.00    -0.072 N 
HETATM   28  C   UNL     1      39.422 -12.366   0.623  1.00  0.00     0.269 C 
HETATM   29  H   UNL     1      40.010 -14.302   0.285  1.00  0.00     0.279 HD
HETATM   30  C   UNL     1      39.546 -14.221   2.309  1.00  0.00     0.254 C 
HETATM   31  C   UNL     1      40.277 -15.532   2.677  1.00  0.00     0.152 C 
ENDBRANCH   1  24
BRANCH   5  32
HETATM   32  C   UNL     1      43.469 -16.297   7.279  1.00  0.00     0.434 C 
HETATM   33  F   UNL     1      44.777 -16.654   7.369  1.00  0.00    -0.165 F 
HETATM   34  F   UNL     1      43.131 -15.776   8.493  1.00  0.00    -0.165 F 
HETATM   35  F   UNL     1      42.763 -17.456   7.163  1.00  0.00    -0.165 F 
ENDBRANCH   5  32
TORSDOF 9
ENDMDL
MODEL 4
REMARK VINA RESULT:      -7.6      1.478      1.939
REMARK  9 active torsions:
REMARK  status: ('A' for Active; 'I' for Inactive)
REMARK    1  A    between atoms: N_6  and  C_7 
REMARK    2  A    between atoms: C_9  and  S_10 
REMARK    3  A    between atoms: S_10  and  C_11 
REMARK    4  A    between atoms: C_11  and  C_12 
REMARK    5  A    between atoms: C_14  and  C_15 
REMARK       I    between atoms: C_15  and  N_16 
REMARK    6  A    between atoms: N_16  and  C_17 
REMARK    7  A    between atoms: C_17  and  C_18 
REMARK    8  A    between atoms: C_18  and  N_19 
REMARK    9  A    between atoms: C_27  and  C_28 
ROOT
HETATM    1  C   UNL     1      40.405 -13.817   2.364  1.00  0.00     0.130 A 
HETATM    2  N   UNL     1      40.518 -13.278   3.592  1.00  0.00    -0.205 NA
HETATM    3  C   UNL     1      41.430 -13.792   4.435  1.00  0.00     0.191 A 
HETATM    4  N   UNL     1      42.182 -14.863   4.173  1.00  0.00    -0.218 NA
HETATM    5  C   UNL     1      42.066 -15.412   2.945  1.00  0.00     0.146 A 
HETATM    6  C   UNL     1      41.190 -14.896   2.003  1.00  0.00     0.087 A 
ENDROOT
BRANCH   3   7
HETATM    7  S   UNL     1      41.689 -12.950   5.978  1.00  0.00    -0.084 SA
BRANCH   7   8
HETATM    8  C   UNL     1      43.468 -13.275   6.145  1.00  0.00     0.147 C 
BRANCH   8   9
HETATM    9  C   UNL     1      44.212 -12.171   6.808  1.00  0.00     0.063 A 
HETATM   10  O   UNL     1      43.794 -11.788   8.051  1.00  0.00    -0.309 OA
HETATM   11  C   UNL     1      44.726 -10.909   8.538  1.00  0.00     0.143 A 
HETATM   12  C   UNL     1      45.707 -10.700   7.591  1.00  0.00     0.045 A 
HETATM   13  C   UNL     1      45.364 -11.491   6.469  1.00  0.00     0.036 A 
BRANCH  11  14
HETATM   14  C   UNL     1      44.585 -10.414   9.884  1.00  0.00     0.275 C 
HETATM   15  N   UNL     1      43.501 -10.905  10.581  1.00  0.00    -0.354 N 
HETATM   16  H   UNL     1      42.858 -11.485  10.045  1.00  0.00     0.162 HD
HETATM   17  O   UNL     1      45.369  -9.641  10.436  1.00  0.00    -0.265 OA
BRANCH  15  18
HETATM   18  C   UNL     1      43.061 -10.330  11.844  1.00  0.00     0.150 C 
BRANCH  18  19
HETATM   19  C   UNL     1      42.002  -9.220  11.691  1.00  0.00     0.253 C 
BRANCH  19  20
HETATM   20  N   UNL     1      41.021  -9.189  12.845  1.00  0.00    -0.077 N 
HETATM   21  H   UNL     1      40.383  -8.385  12.683  1.00  0.00     0.279 HD
HETATM   22  C   UNL     1      40.101 -10.375  12.886  1.00  0.00     0.269 C 
HETATM   23  C   UNL     1      41.692  -8.955  14.164  1.00  0.00     0.269 C 
ENDBRANCH  19  20
ENDBRANCH  18  19
ENDBRANCH  15  18
ENDBRANCH  11  14
ENDBRANCH   8   9
ENDBRANCH   7   8
ENDBRANCH   3   7
BRANCH   1  24
HETATM   24  N   UNL     1      39.534 -13.218   1.450  1.00  0.00    -0.362 N 
HETATM   25  C   UNL     1      39.850 -13.439   0.021  1.00  0.00     0.152 C 
HETATM   26  C   UNL     1      40.833 -12.368  -0.499  1.00  0.00     0.254 C 
HETATM   27  N   UNL     1      40.257 -10.967  -0.244  1.00  0.00    -0.072 N 
HETATM   28  C   UNL     1      41.138  -9.882  -0.784  1.00  0.00     0.269 C 
HETATM   29  H   UNL     1      39.366 -10.916  -0.756  1.00  0.00     0.279 HD
HETATM   30  C   UNL     1      39.940 -10.768   1.236  1.00  0.00     0.254 C 
HETATM   31  C   UNL     1      38.990 -11.877   1.742  1.00  0.00     0.152 C 
ENDBRANCH   1  24
BRANCH   5  32
HETATM   32  C   UNL     1      42.915 -16.620   2.579  1.00  0.00     0.434 C 
HETATM   33  F   UNL     1      43.716 -16.424   1.498  1.00  0.00    -0.165 F 
HETATM   34  F   UNL     1      43.737 -16.987   3.603  1.00  0.00    -0.165 F 
HETATM   35  F   UNL     1      42.157 -17.717   2.299  1.00  0.00    -0.165 F 
ENDBRANCH   5  32
TORSDOF 9
ENDMDL
MODEL 5
REMARK VINA RESULT:      -7.6      4.947      9.343
REMARK  9 active torsions:
REMARK  status: ('A' for Active; 'I' for Inactive)
REMARK    1  A    between atoms: N_6  and  C_7 
REMARK    2  A    between atoms: C_9  and  S_10 
REMARK    3  A    between atoms: S_10  and  C_11 
REMARK    4  A    between atoms: C_11  and  C_12 
REMARK    5  A    between atoms: C_14  and  C_15 
REMARK       I    between atoms: C_15  and  N_16 
REMARK    6  A    between atoms: N_16  and  C_17 
REMARK    7  A    between atoms: C_17  and  C_18 
REMARK    8  A    between atoms: C_18  and  N_19 
REMARK    9  A    between atoms: C_27  and  C_28 
ROOT
HETATM    1  C   UNL     1      42.531 -13.949   6.580  1.00  0.00     0.130 A 
HETATM    2  N   UNL     1      41.794 -13.459   5.567  1.00  0.00    -0.205 NA
HETATM    3  C   UNL     1      42.178 -12.303   4.997  1.00  0.00     0.191 A 
HETATM    4  N   UNL     1      43.198 -11.554   5.422  1.00  0.00    -0.218 NA
HETATM    5  C   UNL     1      43.935 -12.039   6.444  1.00  0.00     0.146 A 
HETATM    6  C   UNL     1      43.634 -13.253   7.039  1.00  0.00     0.087 A 
ENDROOT
BRANCH   3   7
HETATM    7  S   UNL     1      41.301 -11.771   3.547  1.00  0.00    -0.084 SA
BRANCH   7   8
HETATM    8  C   UNL     1      39.887 -12.904   3.679  1.00  0.00     0.147 C 
BRANCH   8   9
HETATM    9  C   UNL     1      39.846 -13.928   2.603  1.00  0.00     0.063 A 
HETATM   10  O   UNL     1      39.666 -13.488   1.322  1.00  0.00    -0.309 OA
HETATM   11  C   UNL     1      39.853 -14.565   0.494  1.00  0.00     0.143 A 
HETATM   12  C   UNL     1      40.105 -15.692   1.248  1.00  0.00     0.045 A 
HETATM   13  C   UNL     1      40.076 -15.289   2.604  1.00  0.00     0.036 A 
BRANCH  11  14
HETATM   14  C   UNL     1      39.816 -14.365  -0.932  1.00  0.00     0.275 C 
HETATM   15  N   UNL     1      40.778 -13.512  -1.433  1.00  0.00    -0.354 N 
HETATM   16  H   UNL     1      41.348 -13.035  -0.737  1.00  0.00     0.162 HD
HETATM   17  O   UNL     1      39.032 -14.922  -1.702  1.00  0.00    -0.265 OA
BRANCH  15  18
HETATM   18  C   UNL     1      40.733 -12.998  -2.793  1.00  0.00     0.150 C 
BRANCH  18  19
HETATM   19  C   UNL     1      41.055 -11.494  -2.906  1.00  0.00     0.253 C 
BRANCH  19  20
HETATM   20  N   UNL     1      39.848 -10.619  -2.632  1.00  0.00    -0.077 N 
HETATM   21  H   UNL     1      39.888  -9.825  -3.300  1.00  0.00     0.279 HD
HETATM   22  C   UNL     1      38.539 -11.284  -2.941  1.00  0.00     0.269 C 
HETATM   23  C   UNL     1      39.866 -10.031  -1.254  1.00  0.00     0.269 C 
ENDBRANCH  19  20
ENDBRANCH  18  19
ENDBRANCH  15  18
ENDBRANCH  11  14
ENDBRANCH   8   9
ENDBRANCH   7   8
ENDBRANCH   3   7
BRANCH   1  24
HETATM   24  N   UNL     1      42.197 -15.202   7.103  1.00  0.00    -0.362 N 
HETATM   25  C   UNL     1      43.281 -15.909   7.820  1.00  0.00     0.152 C 
HETATM   26  C   UNL     1      44.132 -16.751   6.846  1.00  0.00     0.254 C 
HETATM   27  N   UNL     1      43.226 -17.718   6.069  1.00  0.00    -0.072 N 
HETATM   28  C   UNL     1      44.002 -18.610   5.148  1.00  0.00     0.269 C 
HETATM   29  H   UNL     1      42.773 -18.324   6.767  1.00  0.00     0.279 HD
HETATM   30  C   UNL     1      42.118 -16.963   5.340  1.00  0.00     0.254 C 
HETATM   31  C   UNL     1      41.310 -16.094   6.331  1.00  0.00     0.152 C 
ENDBRANCH   1  24
BRANCH   5  32
HETATM   32  C   UNL     1      45.125 -11.241   6.956  1.00  0.00     0.434 C 
HETATM   33  F   UNL     1      45.004  -9.899   6.782  1.00  0.00    -0.165 F 
HETATM   34  F   UNL     1      45.325 -11.437   8.290  1.00  0.00    -0.165 F 
HETATM   35  F   UNL     1      46.289 -11.603   6.349  1.00  0.00    -0.165 F 
ENDBRANCH   5  32
TORSDOF 9
ENDMDL
MODEL 6
REMARK VINA RESULT:      -7.6      3.976      5.211
REMARK  9 active torsions:
REMARK  status: ('A' for Active; 'I' for Inactive)
REMARK    1  A    between atoms: N_6  and  C_7 
REMARK    2  A    between atoms: C_9  and  S_10 
REMARK    3  A    between atoms: S_10  and  C_11 
REMARK    4  A    between atoms: C_11  and  C_12 
REMARK    5  A    between atoms: C_14  and  C_15 
REMARK       I    between atoms: C_15  and  N_16 
REMARK    6  A    between atoms: N_16  and  C_17 
REMARK    7  A    between atoms: C_17  and  C_18 
REMARK    8  A    between atoms: C_18  and  N_19 
REMARK    9  A    between atoms: C_27  and  C_28 
ROOT
HETATM    1  C   UNL     1      40.922 -13.796   5.623  1.00  0.00     0.130 A 
HETATM    2  N   UNL     1      42.128 -13.348   5.231  1.00  0.00    -0.205 NA
HETATM    3  C   UNL     1      42.396 -12.036   5.357  1.00  0.00     0.191 A 
HETATM    4  N   UNL     1      41.515 -11.122   5.767  1.00  0.00    -0.218 NA
HETATM    5  C   UNL     1      40.300 -11.567   6.154  1.00  0.00     0.146 A 
HETATM    6  C   UNL     1      39.976 -12.913   6.110  1.00  0.00     0.087 A 
ENDROOT
BRANCH   3   7
HETATM    7  S   UNL     1      44.053 -11.499   5.007  1.00  0.00    -0.084 SA
BRANCH   7   8
HETATM    8  C   UNL     1      44.854 -12.176   6.489  1.00  0.00     0.147 C 
BRANCH   8   9
HETATM    9  C   UNL     1      44.856 -11.239   7.643  1.00  0.00     0.063 A 
HETATM   10  O   UNL     1      43.958 -11.475   8.645  1.00  0.00    -0.309 OA
HETATM   11  C   UNL     1      44.265 -10.621   9.672  1.00  0.00     0.143 A 
HETATM   12  C   UNL     1      45.324  -9.816   9.307  1.00  0.00     0.045 A 
HETATM   13  C   UNL     1      45.687 -10.195   7.993  1.00  0.00     0.036 A 
BRANCH  11  14
HETATM   14  C   UNL     1      43.530 -10.720  10.908  1.00  0.00     0.275 C 
HETATM   15  N   UNL     1      42.282 -10.134  10.900  1.00  0.00    -0.354 N 
HETATM   16  H   UNL     1      42.049  -9.605  10.061  1.00  0.00     0.162 HD
HETATM   17  O   UNL     1      43.923 -11.311  11.916  1.00  0.00    -0.265 OA
BRANCH  15  18
HETATM   18  C   UNL     1      41.516  -9.914  12.118  1.00  0.00     0.150 C 
BRANCH  18  19
HETATM   19  C   UNL     1      40.843  -8.529  12.194  1.00  0.00     0.253 C 
BRANCH  19  20
HETATM   20  N   UNL     1      39.363  -8.584  11.875  1.00  0.00    -0.077 N 
HETATM   21  H   UNL     1      39.011  -9.502  12.213  1.00  0.00     0.279 HD
HETATM   22  C   UNL     1      38.544  -7.583  12.636  1.00  0.00     0.269 C 
HETATM   23  C   UNL     1      39.089  -8.528  10.403  1.00  0.00     0.269 C 
ENDBRANCH  19  20
ENDBRANCH  18  19
ENDBRANCH  15  18
ENDBRANCH  11  14
ENDBRANCH   8   9
ENDBRANCH   7   8
ENDBRANCH   3   7
BRANCH   1  24
HETATM   24  N   UNL     1      40.680 -15.173   5.593  1.00  0.00    -0.362 N 
HETATM   25  C   UNL     1      41.125 -15.930   6.785  1.00  0.00     0.152 C 
HETATM   26  C   UNL     1      42.595 -16.376   6.639  1.00  0.00     0.254 C 
HETATM   27  N   UNL     1      42.767 -17.183   5.344  1.00  0.00    -0.072 N 
HETATM   28  C   UNL     1      44.163 -17.699   5.174  1.00  0.00     0.269 C 
HETATM   29  H   UNL     1      42.149 -18.002   5.422  1.00  0.00     0.279 HD
HETATM   30  C   UNL     1      42.300 -16.379   4.132  1.00  0.00     0.254 C 
HETATM   31  C   UNL     1      40.840 -15.908   4.323  1.00  0.00     0.152 C 
ENDBRANCH   1  24
BRANCH   5  32
HETATM   32  C   UNL     1      39.261 -10.575   6.655  1.00  0.00     0.434 C 
HETATM   33  F   UNL     1      38.172 -10.464   5.849  1.00  0.00    -0.165 F 
HETATM   34  F   UNL     1      38.791 -10.916   7.888  1.00  0.00    -0.165 F 
HETATM   35  F   UNL     1      39.769  -9.318   6.786  1.00  0.00    -0.165 F 
ENDBRANCH   5  32
TORSDOF 9
ENDMDL
MODEL 7
REMARK VINA RESULT:      -7.6      2.569      4.253
REMARK  9 active torsions:
REMARK  status: ('A' for Active; 'I' for Inactive)
REMARK    1  A    between atoms: N_6  and  C_7 
REMARK    2  A    between atoms: C_9  and  S_10 
REMARK    3  A    between atoms: S_10  and  C_11 
REMARK    4  A    between atoms: C_11  and  C_12 
REMARK    5  A    between atoms: C_14  and  C_15 
REMARK       I    between atoms: C_15  and  N_16 
REMARK    6  A    between atoms: N_16  and  C_17 
REMARK    7  A    between atoms: C_17  and  C_18 
REMARK    8  A    between atoms: C_18  and  N_19 
REMARK    9  A    between atoms: C_27  and  C_28 
ROOT
HETATM    1  C   UNL     1      41.647 -15.236   2.869  1.00  0.00     0.130 A 
HETATM    2  N   UNL     1      42.399 -14.221   3.330  1.00  0.00    -0.205 NA
HETATM    3  C   UNL     1      42.358 -13.045   2.677  1.00  0.00     0.191 A 
HETATM    4  N   UNL     1      41.684 -12.834   1.545  1.00  0.00    -0.218 NA
HETATM    5  C   UNL     1      40.934 -13.854   1.074  1.00  0.00     0.146 A 
HETATM    6  C   UNL     1      40.881 -15.073   1.729  1.00  0.00     0.087 A 
ENDROOT
BRANCH   3   7
HETATM    7  S   UNL     1      43.212 -11.670   3.407  1.00  0.00    -0.084 SA
BRANCH   7   8
HETATM    8  C   UNL     1      42.895 -12.073   5.149  1.00  0.00     0.147 C 
BRANCH   8   9
HETATM    9  C   UNL     1      43.905 -11.508   6.082  1.00  0.00     0.063 A 
HETATM   10  O   UNL     1      43.485 -11.180   7.340  1.00  0.00    -0.309 OA
HETATM   11  C   UNL     1      44.603 -10.867   8.070  1.00  0.00     0.143 A 
HETATM   12  C   UNL     1      45.721 -10.952   7.268  1.00  0.00     0.045 A 
HETATM   13  C   UNL     1      45.271 -11.339   5.983  1.00  0.00     0.036 A 
BRANCH  11  14
HETATM   14  C   UNL     1      44.461 -10.574   9.474  1.00  0.00     0.275 C 
HETATM   15  N   UNL     1      43.162 -10.459   9.924  1.00  0.00    -0.354 N 
HETATM   16  H   UNL     1      42.442 -10.492   9.204  1.00  0.00     0.162 HD
HETATM   17  O   UNL     1      45.396 -10.465  10.269  1.00  0.00    -0.265 OA
BRANCH  15  18
HETATM   18  C   UNL     1      42.836  -9.919  11.236  1.00  0.00     0.150 C 
BRANCH  18  19
HETATM   19  C   UNL     1      41.330  -9.673  11.455  1.00  0.00     0.253 C 
BRANCH  19  20
HETATM   20  N   UNL     1      40.979  -9.481  12.916  1.00  0.00    -0.077 N 
HETATM   21  H   UNL     1      40.662 -10.402  13.278  1.00  0.00     0.279 HD
HETATM   22  C   UNL     1      42.159  -9.143  13.780  1.00  0.00     0.269 C 
HETATM   23  C   UNL     1      39.847  -8.520  13.115  1.00  0.00     0.269 C 
ENDBRANCH  19  20
ENDBRANCH  18  19
ENDBRANCH  15  18
ENDBRANCH  11  14
ENDBRANCH   8   9
ENDBRANCH   7   8
ENDBRANCH   3   7
BRANCH   1  24
HETATM   24  N   UNL     1      41.606 -16.423   3.605  1.00  0.00    -0.362 N 
HETATM   25  C   UNL     1      40.693 -16.426   4.770  1.00  0.00     0.152 C 
HETATM   26  C   UNL     1      41.405 -15.890   6.031  1.00  0.00     0.254 C 
HETATM   27  N   UNL     1      42.680 -16.704   6.293  1.00  0.00    -0.072 N 
HETATM   28  C   UNL     1      43.386 -16.272   7.542  1.00  0.00     0.269 C 
HETATM   29  H   UNL     1      42.384 -17.679   6.435  1.00  0.00     0.279 HD
HETATM   30  C   UNL     1      43.602 -16.685   5.075  1.00  0.00     0.254 C 
HETATM   31  C   UNL     1      42.852 -17.185   3.820  1.00  0.00     0.152 C 
ENDBRANCH   1  24
BRANCH   5  32
HETATM   32  C   UNL     1      40.125 -13.665  -0.200  1.00  0.00     0.434 C 
HETATM   33  F   UNL     1      39.038 -12.863  -0.049  1.00  0.00    -0.165 F 
HETATM   34  F   UNL     1      40.874 -13.110  -1.195  1.00  0.00    -0.165 F 
HETATM   35  F   UNL     1      39.663 -14.846  -0.698  1.00  0.00    -0.165 F 
ENDBRANCH   5  32
TORSDOF 9
ENDMDL
MODEL 8
REMARK VINA RESULT:      -7.5      4.679      8.667
REMARK  9 active torsions:
REMARK  status: ('A' for Active; 'I' for Inactive)
REMARK    1  A    between atoms: N_6  and  C_7 
REMARK    2  A    between atoms: C_9  and  S_10 
REMARK    3  A    between atoms: S_10  and  C_11 
REMARK    4  A    between atoms: C_11  and  C_12 
REMARK    5  A    between atoms: C_14  and  C_15 
REMARK       I    between atoms: C_15  and  N_16 
REMARK    6  A    between atoms: N_16  and  C_17 
REMARK    7  A    between atoms: C_17  and  C_18 
REMARK    8  A    between atoms: C_18  and  N_19 
REMARK    9  A    between atoms: C_27  and  C_28 
ROOT
HETATM    1  C   UNL     1      42.285 -11.192   6.430  1.00  0.00     0.130 A 
HETATM    2  N   UNL     1      42.456 -12.509   6.217  1.00  0.00    -0.205 NA
HETATM    3  C   UNL     1      43.581 -13.090   6.671  1.00  0.00     0.191 A 
HETATM    4  N   UNL     1      44.590 -12.433   7.248  1.00  0.00    -0.218 NA
HETATM    5  C   UNL     1      44.425 -11.109   7.456  1.00  0.00     0.146 A 
HETATM    6  C   UNL     1      43.265 -10.457   7.070  1.00  0.00     0.087 A 
ENDROOT
BRANCH   3   7
HETATM    7  S   UNL     1      43.703 -14.857   6.542  1.00  0.00    -0.084 SA
BRANCH   7   8
HETATM    8  C   UNL     1      42.022 -15.181   5.938  1.00  0.00     0.147 C 
BRANCH   8   9
HETATM    9  C   UNL     1      41.988 -15.848   4.610  1.00  0.00     0.063 A 
HETATM   10  O   UNL     1      41.084 -15.384   3.696  1.00  0.00    -0.309 OA
HETATM   11  C   UNL     1      41.359 -16.004   2.505  1.00  0.00     0.143 A 
HETATM   12  C   UNL     1      42.402 -16.890   2.672  1.00  0.00     0.045 A 
HETATM   13  C   UNL     1      42.789 -16.810   4.030  1.00  0.00     0.036 A 
BRANCH  11  14
HETATM   14  C   UNL     1      40.613 -15.625   1.331  1.00  0.00     0.275 C 
HETATM   15  N   UNL     1      41.121 -14.552   0.630  1.00  0.00    -0.354 N 
HETATM   16  H   UNL     1      41.909 -14.075   1.066  1.00  0.00     0.162 HD
HETATM   17  O   UNL     1      39.611 -16.210   0.915  1.00  0.00    -0.265 OA
BRANCH  15  18
HETATM   18  C   UNL     1      40.369 -13.878  -0.418  1.00  0.00     0.150 C 
BRANCH  18  19
HETATM   19  C   UNL     1      40.772 -12.405  -0.630  1.00  0.00     0.253 C 
BRANCH  19  20
HETATM   20  N   UNL     1      39.704 -11.609  -1.352  1.00  0.00    -0.077 N 
HETATM   21  H   UNL     1      39.749 -10.636  -0.988  1.00  0.00     0.279 HD
HETATM   22  C   UNL     1      39.958 -11.454  -2.823  1.00  0.00     0.269 C 
HETATM   23  C   UNL     1      38.322 -12.116  -1.073  1.00  0.00     0.269 C 
ENDBRANCH  19  20
ENDBRANCH  18  19
ENDBRANCH  15  18
ENDBRANCH  11  14
ENDBRANCH   8   9
ENDBRANCH   7   8
ENDBRANCH   3   7
BRANCH   1  24
HETATM   24  N   UNL     1      41.071 -10.609   6.055  1.00  0.00    -0.362 N 
HETATM   25  C   UNL     1      39.855 -11.387   6.381  1.00  0.00     0.152 C 
HETATM   26  C   UNL     1      39.513 -12.378   5.249  1.00  0.00     0.254 C 
HETATM   27  N   UNL     1      39.375 -11.620   3.920  1.00  0.00    -0.072 N 
HETATM   28  C   UNL     1      38.981 -12.520   2.789  1.00  0.00     0.269 C 
HETATM   29  H   UNL     1      38.613 -10.940   4.045  1.00  0.00     0.279 HD
HETATM   30  C   UNL     1      40.642 -10.827   3.609  1.00  0.00     0.254 C 
HETATM   31  C   UNL     1      40.986  -9.875   4.777  1.00  0.00     0.152 C 
ENDBRANCH   1  24
BRANCH   5  32
HETATM   32  C   UNL     1      45.529 -10.311   8.132  1.00  0.00     0.434 C 
HETATM   33  F   UNL     1      45.609 -10.508   9.475  1.00  0.00    -0.165 F 
HETATM   34  F   UNL     1      46.757 -10.624   7.627  1.00  0.00    -0.165 F 
HETATM   35  F   UNL     1      45.383  -8.970   7.949  1.00  0.00    -0.165 F 
ENDBRANCH   5  32
TORSDOF 9
ENDMDL
MODEL 9
REMARK VINA RESULT:      -7.4      1.946      2.674
REMARK  9 active torsions:
REMARK  status: ('A' for Active; 'I' for Inactive)
REMARK    1  A    between atoms: N_6  and  C_7 
REMARK    2  A    between atoms: C_9  and  S_10 
REMARK    3  A    between atoms: S_10  and  C_11 
REMARK    4  A    between atoms: C_11  and  C_12 
REMARK    5  A    between atoms: C_14  and  C_15 
REMARK       I    between atoms: C_15  and  N_16 
REMARK    6  A    between atoms: N_16  and  C_17 
REMARK    7  A    between atoms: C_17  and  C_18 
REMARK    8  A    between atoms: C_18  and  N_19 
REMARK    9  A    between atoms: C_27  and  C_28 
ROOT
HETATM    1  C   UNL     1      42.178 -13.126   3.203  1.00  0.00     0.130 A 
HETATM    2  N   UNL     1      42.454 -12.916   4.502  1.00  0.00    -0.205 NA
HETATM    3  C   UNL     1      42.970 -13.929   5.219  1.00  0.00     0.191 A 
HETATM    4  N   UNL     1      43.152 -15.167   4.754  1.00  0.00    -0.218 NA
HETATM    5  C   UNL     1      42.869 -15.385   3.452  1.00  0.00     0.146 A 
HETATM    6  C   UNL     1      42.392 -14.370   2.638  1.00  0.00     0.087 A 
ENDROOT
BRANCH   3   7
HETATM    7  S   UNL     1      43.498 -13.577   6.879  1.00  0.00    -0.084 SA
BRANCH   7   8
HETATM    8  C   UNL     1      44.842 -12.425   6.475  1.00  0.00     0.147 C 
BRANCH   8   9
HETATM    9  C   UNL     1      45.010 -11.338   7.476  1.00  0.00     0.063 A 
HETATM   10  O   UNL     1      44.207 -11.369   8.580  1.00  0.00    -0.309 OA
HETATM   11  C   UNL     1      44.662 -10.402   9.439  1.00  0.00     0.143 A 
HETATM   12  C   UNL     1      45.721  -9.731   8.864  1.00  0.00     0.045 A 
HETATM   13  C   UNL     1      45.928 -10.314   7.591  1.00  0.00     0.036 A 
BRANCH  11  14
HETATM   14  C   UNL     1      44.051 -10.278  10.738  1.00  0.00     0.275 C 
HETATM   15  N   UNL     1      43.529  -9.034  11.027  1.00  0.00    -0.354 N 
HETATM   16  H   UNL     1      43.717  -8.307  10.338  1.00  0.00     0.162 HD
HETATM   17  O   UNL     1      43.939 -11.194  11.555  1.00  0.00    -0.265 OA
BRANCH  15  18
HETATM   18  C   UNL     1      43.112  -8.656  12.369  1.00  0.00     0.150 C 
BRANCH  18  19
HETATM   19  C   UNL     1      41.813  -7.826  12.410  1.00  0.00     0.253 C 
BRANCH  19  20
HETATM   20  N   UNL     1      40.570  -8.691  12.415  1.00  0.00    -0.077 N 
HETATM   21  H   UNL     1      39.848  -8.188  12.968  1.00  0.00     0.279 HD
HETATM   22  C   UNL     1      39.939  -8.848  11.062  1.00  0.00     0.269 C 
HETATM   23  C   UNL     1      40.792 -10.012  13.086  1.00  0.00     0.269 C 
ENDBRANCH  19  20
ENDBRANCH  18  19
ENDBRANCH  15  18
ENDBRANCH  11  14
ENDBRANCH   8   9
ENDBRANCH   7   8
ENDBRANCH   3   7
BRANCH   1  24
HETATM   24  N   UNL     1      41.743 -12.045   2.430  1.00  0.00    -0.362 N 
HETATM   25  C   UNL     1      42.084 -10.703   2.951  1.00  0.00     0.152 C 
HETATM   26  C   UNL     1      41.001 -10.198   3.929  1.00  0.00     0.254 C 
HETATM   27  N   UNL     1      39.629 -10.219   3.239  1.00  0.00    -0.072 N 
HETATM   28  C   UNL     1      38.542  -9.680   4.117  1.00  0.00     0.269 C 
HETATM   29  H   UNL     1      39.698  -9.593   2.424  1.00  0.00     0.279 HD
HETATM   30  C   UNL     1      39.304 -11.614   2.710  1.00  0.00     0.254 C 
HETATM   31  C   UNL     1      40.424 -12.113   1.770  1.00  0.00     0.152 C 
ENDBRANCH   1  24
BRANCH   5  32
HETATM   32  C   UNL     1      43.078 -16.769   2.858  1.00  0.00     0.434 C 
HETATM   33  F   UNL     1      41.925 -17.457   2.644  1.00  0.00    -0.165 F 
HETATM   34  F   UNL     1      43.717 -16.710   1.656  1.00  0.00    -0.165 F 
HETATM   35  F   UNL     1      43.853 -17.559   3.652  1.00  0.00    -0.165 F 
ENDBRANCH   5  32
TORSDOF 9
ENDMDL
MODEL 10
REMARK VINA RESULT:      -7.4      3.937      9.768
REMARK  9 active torsions:
REMARK  status: ('A' for Active; 'I' for Inactive)
REMARK    1  A    between atoms: N_6  and  C_7 
REMARK    2  A    between atoms: C_9  and  S_10 
REMARK    3  A    between atoms: S_10  and  C_11 
REMARK    4  A    between atoms: C_11  and  C_12 
REMARK    5  A    between atoms: C_14  and  C_15 
REMARK       I    between atoms: C_15  and  N_16 
REMARK    6  A    between atoms: N_16  and  C_17 
REMARK    7  A    between atoms: C_17  and  C_18 
REMARK    8  A    between atoms: C_18  and  N_19 
REMARK    9  A    between atoms: C_27  and  C_28 
ROOT
HETATM    1  C   UNL     1      42.446  -8.802   9.429  1.00  0.00     0.130 A 
HETATM    2  N   UNL     1      41.584  -9.106   8.442  1.00  0.00    -0.205 NA
HETATM    3  C   UNL     1      42.052  -9.750   7.358  1.00  0.00     0.191 A 
HETATM    4  N   UNL     1      43.338 -10.039   7.149  1.00  0.00    -0.218 NA
HETATM    5  C   UNL     1      44.208  -9.728   8.134  1.00  0.00     0.146 A 
HETATM    6  C   UNL     1      43.786  -9.119   9.305  1.00  0.00     0.087 A 
ENDROOT
BRANCH   3   7
HETATM    7  S   UNL     1      40.868 -10.303   6.155  1.00  0.00    -0.084 SA
BRANCH   7   8
HETATM    8  C   UNL     1      41.881 -10.048   4.671  1.00  0.00     0.147 C 
BRANCH   8   9
HETATM    9  C   UNL     1      42.341 -11.315   4.042  1.00  0.00     0.063 A 
HETATM   10  O   UNL     1      42.155 -12.470   4.747  1.00  0.00    -0.309 OA
HETATM   11  C   UNL     1      42.469 -13.510   3.910  1.00  0.00     0.143 A 
HETATM   12  C   UNL     1      42.895 -13.015   2.695  1.00  0.00     0.045 A 
HETATM   13  C   UNL     1      42.837 -11.605   2.788  1.00  0.00     0.036 A 
BRANCH  11  14
HETATM   14  C   UNL     1      42.270 -14.861   4.369  1.00  0.00     0.275 C 
HETATM   15  N   UNL     1      43.286 -15.742   4.066  1.00  0.00    -0.354 N 
HETATM   16  H   UNL     1      44.023 -15.375   3.465  1.00  0.00     0.162 HD
HETATM   17  O   UNL     1      41.300 -15.247   5.024  1.00  0.00    -0.265 OA
BRANCH  15  18
HETATM   18  C   UNL     1      43.142 -17.182   4.220  1.00  0.00     0.150 C 
BRANCH  18  19
HETATM   19  C   UNL     1      43.187 -17.963   2.891  1.00  0.00     0.253 C 
BRANCH  19  20
HETATM   20  N   UNL     1      44.023 -19.223   2.985  1.00  0.00    -0.077 N 
HETATM   21  H   UNL     1      44.987 -18.974   2.685  1.00  0.00     0.279 HD
HETATM   22  C   UNL     1      44.202 -19.724   4.388  1.00  0.00     0.269 C 
HETATM   23  C   UNL     1      43.544 -20.301   2.061  1.00  0.00     0.269 C 
ENDBRANCH  19  20
ENDBRANCH  18  19
ENDBRANCH  15  18
ENDBRANCH  11  14
ENDBRANCH   8   9
ENDBRANCH   7   8
ENDBRANCH   3   7
BRANCH   1  24
HETATM   24  N   UNL     1      41.943  -8.229  10.601  1.00  0.00    -0.362 N 
HETATM   25  C   UNL     1      42.539  -8.720  11.863  1.00  0.00     0.152 C 
HETATM   26  C   UNL     1      41.793  -9.970  12.378  1.00  0.00     0.254 C 
HETATM   27  N   UNL     1      40.298  -9.656  12.528  1.00  0.00    -0.072 N 
HETATM   28  C   UNL     1      39.526 -10.813  13.085  1.00  0.00     0.269 C 
HETATM   29  H   UNL     1      40.224  -8.888  13.209  1.00  0.00     0.279 HD
HETATM   30  C   UNL     1      39.709  -9.151  11.212  1.00  0.00     0.254 C 
HETATM   31  C   UNL     1      40.501  -7.928  10.697  1.00  0.00     0.152 C 
ENDBRANCH   1  24
BRANCH   5  32
HETATM   32  C   UNL     1      45.684 -10.055   7.963  1.00  0.00     0.434 C 
HETATM   33  F   UNL     1      45.972 -10.721   6.814  1.00  0.00    -0.165 F 
HETATM   34  F   UNL     1      46.451  -8.928   7.954  1.00  0.00    -0.165 F 
HETATM   35  F   UNL     1      46.164 -10.822   8.981  1.00  0.00    -0.165 F 
ENDBRANCH   5  32
TORSDOF 9
ENDMDL
