MODEL 1
REMARK VINA RESULT:      -8.0      0.000      0.000
REMARK  6 active torsions:
REMARK  status: ('A' for Active; 'I' for Inactive)
REMARK    1  A    between atoms: C_6  and  C_7 
REMARK       I    between atoms: C_7  and  N_8 
REMARK    2  A    between atoms: N_8  and  C_9 
REMARK    3  A    between atoms: C_9  and  C_10 
REMARK    4  A    between atoms: C_10  and  O_11 
REMARK    5  A    between atoms: C_10  and  C_12 
REMARK    6  A    between atoms: C_15  and  O_16 
ROOT
HETATM    1  C   UNL     1      40.207 -14.574   0.169  1.00  0.00     0.258 C 
HETATM    2  N   UNL     1      40.990 -14.013   1.145  1.00  0.00    -0.350 N 
HETATM    3  O   UNL     1      39.673 -15.672   0.290  1.00  0.00    -0.267 OA
HETATM    4  H   UNL     1      41.321 -13.058   1.008  1.00  0.00     0.163 HD
ENDROOT
BRANCH   2   5
HETATM    5  C   UNL     1      41.264 -14.643   2.431  1.00  0.00     0.114 C 
HETATM    6  C   UNL     1      40.618 -13.811   3.541  1.00  0.00     0.035 C 
BRANCH   5   7
HETATM    7  C   UNL     1      42.791 -14.802   2.674  1.00  0.00     0.173 C 
BRANCH   7   8
HETATM    8  O   UNL     1      43.522 -14.513   1.474  1.00  0.00    -0.389 OA
HETATM    9  H   UNL     1      43.189 -13.662   1.141  1.00  0.00     0.210 HD
ENDBRANCH   7   8
BRANCH   7  10
HETATM   10  C   UNL     1      43.183 -16.169   3.207  1.00  0.00    -0.028 A 
HETATM   11  C   UNL     1      43.156 -17.286   2.362  1.00  0.00     0.012 A 
HETATM   12  C   UNL     1      43.532 -18.546   2.839  1.00  0.00     0.037 A 
HETATM   13  C   UNL     1      43.952 -18.713   4.160  1.00  0.00     0.068 A 
HETATM   14  C   UNL     1      43.975 -17.610   5.010  1.00  0.00     0.037 A 
HETATM   15  C   UNL     1      43.591 -16.349   4.537  1.00  0.00     0.012 A 
BRANCH  13  16
HETATM   16  O   UNL     1      44.302 -19.992   4.493  1.00  0.00    -0.356 OA
HETATM   17  C   UNL     1      43.890 -21.019   3.600  1.00  0.00     0.210 C 
ENDBRANCH  13  16
ENDBRANCH   7  10
ENDBRANCH   5   7
ENDBRANCH   2   5
BRANCH   1  18
HETATM   18  C   UNL     1      40.060 -13.768  -1.034  1.00  0.00     0.105 A 
HETATM   19  C   UNL     1      39.454 -14.140  -2.264  1.00  0.00     0.071 A 
HETATM   20  C   UNL     1      38.828 -15.443  -2.611  1.00  0.00     0.073 C 
HETATM   21  N   UNL     1      39.490 -13.157  -3.170  1.00  0.00    -0.170 NA
HETATM   22  N   UNL     1      40.114 -12.136  -2.547  1.00  0.00    -0.225 N 
HETATM   23  C   UNL     1      40.489 -12.468  -1.241  1.00  0.00     0.168 A 
HETATM   24  C   UNL     1      40.395 -10.875  -3.063  1.00  0.00     0.122 A 
HETATM   25  N   UNL     1      41.147 -11.575  -0.428  1.00  0.00    -0.240 NA
HETATM   26  C   UNL     1      41.388 -10.407  -0.945  1.00  0.00     0.120 A 
HETATM   27  C   UNL     1      41.027  -9.960  -2.318  1.00  0.00     0.038 A 
ENDBRANCH   1  18
TORSDOF 6
ENDMDL
MODEL 2
REMARK VINA RESULT:      -8.0      4.728      8.210
REMARK  6 active torsions:
REMARK  status: ('A' for Active; 'I' for Inactive)
REMARK    1  A    between atoms: C_6  and  C_7 
REMARK       I    between atoms: C_7  and  N_8 
REMARK    2  A    between atoms: N_8  and  C_9 
REMARK    3  A    between atoms: C_9  and  C_10 
REMARK    4  A    between atoms: C_10  and  O_11 
REMARK    5  A    between atoms: C_10  and  C_12 
REMARK    6  A    between atoms: C_15  and  O_16 
ROOT
HETATM    1  C   UNL     1      42.175 -14.482   5.215  1.00  0.00     0.258 C 
HETATM    2  N   UNL     1      42.823 -13.691   4.300  1.00  0.00    -0.350 N 
HETATM    3  O   UNL     1      41.156 -14.128   5.799  1.00  0.00    -0.267 OA
HETATM    4  H   UNL     1      43.608 -14.092   3.789  1.00  0.00     0.163 HD
ENDROOT
BRANCH   2   5
HETATM    5  C   UNL     1      42.370 -12.361   3.909  1.00  0.00     0.114 C 
HETATM    6  C   UNL     1      41.913 -12.399   2.449  1.00  0.00     0.035 C 
BRANCH   5   7
HETATM    7  C   UNL     1      43.486 -11.298   4.113  1.00  0.00     0.173 C 
BRANCH   7   8
HETATM    8  O   UNL     1      44.606 -11.576   3.261  1.00  0.00    -0.389 OA
HETATM    9  H   UNL     1      44.336 -11.337   2.357  1.00  0.00     0.210 HD
ENDBRANCH   7   8
BRANCH   7  10
HETATM   10  C   UNL     1      43.947 -11.171   5.555  1.00  0.00    -0.028 A 
HETATM   11  C   UNL     1      45.298 -11.347   5.878  1.00  0.00     0.012 A 
HETATM   12  C   UNL     1      45.735 -11.215   7.200  1.00  0.00     0.037 A 
HETATM   13  C   UNL     1      44.837 -10.893   8.219  1.00  0.00     0.068 A 
HETATM   14  C   UNL     1      43.489 -10.723   7.909  1.00  0.00     0.037 A 
HETATM   15  C   UNL     1      43.049 -10.863   6.588  1.00  0.00     0.012 A 
BRANCH  13  16
HETATM   16  O   UNL     1      45.396 -10.782   9.463  1.00  0.00    -0.356 OA
HETATM   17  C   UNL     1      44.767  -9.881  10.366  1.00  0.00     0.210 C 
ENDBRANCH  13  16
ENDBRANCH   7  10
ENDBRANCH   5   7
ENDBRANCH   2   5
BRANCH   1  18
HETATM   18  C   UNL     1      42.795 -15.777   5.450  1.00  0.00     0.105 A 
HETATM   19  C   UNL     1      43.205 -16.335   6.691  1.00  0.00     0.071 A 
HETATM   20  C   UNL     1      43.098 -15.724   8.041  1.00  0.00     0.073 C 
HETATM   21  N   UNL     1      43.745 -17.551   6.551  1.00  0.00    -0.170 NA
HETATM   22  N   UNL     1      43.692 -17.802   5.226  1.00  0.00    -0.225 N 
HETATM   23  C   UNL     1      43.127 -16.740   4.513  1.00  0.00     0.168 A 
HETATM   24  C   UNL     1      44.126 -18.946   4.565  1.00  0.00     0.122 A 
HETATM   25  N   UNL     1      42.985 -16.782   3.145  1.00  0.00    -0.240 NA
HETATM   26  C   UNL     1      43.398 -17.869   2.564  1.00  0.00     0.120 A 
HETATM   27  C   UNL     1      44.008 -19.049   3.235  1.00  0.00     0.038 A 
ENDBRANCH   1  18
TORSDOF 6
ENDMDL
MODEL 3
REMARK VINA RESULT:      -8.0      2.905      8.112
REMARK  6 active torsions:
REMARK  status: ('A' for Active; 'I' for Inactive)
REMARK    1  A    between atoms: C_6  and  C_7 
REMARK       I    between atoms: C_7  and  N_8 
REMARK    2  A    between atoms: N_8  and  C_9 
REMARK    3  A    between atoms: C_9  and  C_10 
REMARK    4  A    between atoms: C_10  and  O_11 
REMARK    5  A    between atoms: C_10  and  C_12 
REMARK    6  A    between atoms: C_15  and  O_16 
ROOT
HETATM    1  C   UNL     1      43.100 -15.707   2.949  1.00  0.00     0.258 C 
HETATM    2  N   UNL     1      42.122 -14.891   3.458  1.00  0.00    -0.350 N 
HETATM    3  O   UNL     1      43.638 -15.509   1.865  1.00  0.00    -0.267 OA
HETATM    4  H   UNL     1      41.791 -15.068   4.406  1.00  0.00     0.163 HD
ENDROOT
BRANCH   2   5
HETATM    5  C   UNL     1      41.625 -13.697   2.783  1.00  0.00     0.114 C 
HETATM    6  C   UNL     1      41.823 -12.488   3.699  1.00  0.00     0.035 C 
BRANCH   5   7
HETATM    7  C   UNL     1      40.132 -13.851   2.381  1.00  0.00     0.173 C 
BRANCH   7   8
HETATM    8  O   UNL     1      39.596 -15.076   2.900  1.00  0.00    -0.389 OA
HETATM    9  H   UNL     1      40.354 -15.660   3.077  1.00  0.00     0.210 HD
ENDBRANCH   7   8
BRANCH   7  10
HETATM   10  C   UNL     1      39.894 -13.771   0.883  1.00  0.00    -0.028 A 
HETATM   11  C   UNL     1      39.835 -14.943   0.118  1.00  0.00     0.012 A 
HETATM   12  C   UNL     1      39.599 -14.880  -1.259  1.00  0.00     0.037 A 
HETATM   13  C   UNL     1      39.407 -13.653  -1.895  1.00  0.00     0.068 A 
HETATM   14  C   UNL     1      39.472 -12.481  -1.145  1.00  0.00     0.037 A 
HETATM   15  C   UNL     1      39.716 -12.541   0.232  1.00  0.00     0.012 A 
BRANCH  13  16
HETATM   16  O   UNL     1      39.174 -13.734  -3.241  1.00  0.00    -0.356 OA
HETATM   17  C   UNL     1      38.226 -14.706  -3.666  1.00  0.00     0.210 C 
ENDBRANCH  13  16
ENDBRANCH   7  10
ENDBRANCH   5   7
ENDBRANCH   2   5
BRANCH   1  18
HETATM   18  C   UNL     1      43.450 -16.839   3.793  1.00  0.00     0.105 A 
HETATM   19  C   UNL     1      43.797 -16.825   5.171  1.00  0.00     0.071 A 
HETATM   20  C   UNL     1      43.886 -15.648   6.074  1.00  0.00     0.073 C 
HETATM   21  N   UNL     1      44.067 -18.047   5.643  1.00  0.00    -0.170 NA
HETATM   22  N   UNL     1      43.897 -18.870   4.587  1.00  0.00    -0.225 N 
HETATM   23  C   UNL     1      43.529 -18.174   3.433  1.00  0.00     0.168 A 
HETATM   24  C   UNL     1      44.052 -20.252   4.560  1.00  0.00     0.122 A 
HETATM   25  N   UNL     1      43.314 -18.818   2.236  1.00  0.00    -0.240 NA
HETATM   26  C   UNL     1      43.463 -20.109   2.252  1.00  0.00     0.120 A 
HETATM   27  C   UNL     1      43.849 -20.937   3.427  1.00  0.00     0.038 A 
ENDBRANCH   1  18
TORSDOF 6
ENDMDL
MODEL 4
REMARK VINA RESULT:      -7.6      1.653      2.658
REMARK  6 active torsions:
REMARK  status: ('A' for Active; 'I' for Inactive)
REMARK    1  A    between atoms: C_6  and  C_7 
REMARK       I    between atoms: C_7  and  N_8 
REMARK    2  A    between atoms: N_8  and  C_9 
REMARK    3  A    between atoms: C_9  and  C_10 
REMARK    4  A    between atoms: C_10  and  O_11 
REMARK    5  A    between atoms: C_10  and  C_12 
REMARK    6  A    between atoms: C_15  and  O_16 
ROOT
HETATM    1  C   UNL     1      40.078 -14.112   1.944  1.00  0.00     0.258 C 
HETATM    2  N   UNL     1      41.254 -13.716   2.528  1.00  0.00    -0.350 N 
HETATM    3  O   UNL     1      39.525 -15.175   2.211  1.00  0.00    -0.267 OA
HETATM    4  H   UNL     1      41.601 -12.780   2.324  1.00  0.00     0.163 HD
ENDROOT
BRANCH   2   5
HETATM    5  C   UNL     1      41.968 -14.496   3.533  1.00  0.00     0.114 C 
HETATM    6  C   UNL     1      42.223 -13.616   4.758  1.00  0.00     0.035 C 
BRANCH   5   7
HETATM    7  C   UNL     1      43.301 -15.065   2.971  1.00  0.00     0.173 C 
BRANCH   7   8
HETATM    8  O   UNL     1      43.441 -14.735   1.582  1.00  0.00    -0.389 OA
HETATM    9  H   UNL     1      42.542 -14.669   1.218  1.00  0.00     0.210 HD
ENDBRANCH   7   8
BRANCH   7  10
HETATM   10  C   UNL     1      43.453 -16.563   3.168  1.00  0.00    -0.028 A 
HETATM   11  C   UNL     1      43.917 -17.068   4.390  1.00  0.00     0.012 A 
HETATM   12  C   UNL     1      44.043 -18.446   4.586  1.00  0.00     0.037 A 
HETATM   13  C   UNL     1      43.699 -19.346   3.576  1.00  0.00     0.068 A 
HETATM   14  C   UNL     1      43.244 -18.854   2.354  1.00  0.00     0.037 A 
HETATM   15  C   UNL     1      43.124 -17.474   2.153  1.00  0.00     0.012 A 
BRANCH  13  16
HETATM   16  O   UNL     1      43.858 -20.665   3.903  1.00  0.00    -0.356 OA
HETATM   17  C   UNL     1      44.159 -20.952   5.263  1.00  0.00     0.210 C 
ENDBRANCH  13  16
ENDBRANCH   7  10
ENDBRANCH   5   7
ENDBRANCH   2   5
BRANCH   1  18
HETATM   18  C   UNL     1      39.533 -13.177   0.972  1.00  0.00     0.105 A 
HETATM   19  C   UNL     1      38.879 -11.941   1.224  1.00  0.00     0.071 A 
HETATM   20  C   UNL     1      38.597 -11.314   2.541  1.00  0.00     0.073 C 
HETATM   21  N   UNL     1      38.497 -11.326   0.099  1.00  0.00    -0.170 NA
HETATM   22  N   UNL     1      38.897 -12.147  -0.896  1.00  0.00    -0.225 N 
HETATM   23  C   UNL     1      39.527 -13.295  -0.407  1.00  0.00     0.168 A 
HETATM   24  C   UNL     1      38.741 -11.955  -2.264  1.00  0.00     0.122 A 
HETATM   25  N   UNL     1      40.006 -14.272  -1.250  1.00  0.00    -0.240 NA
HETATM   26  C   UNL     1      39.844 -14.054  -2.521  1.00  0.00     0.120 A 
HETATM   27  C   UNL     1      39.192 -12.866  -3.135  1.00  0.00     0.038 A 
ENDBRANCH   1  18
TORSDOF 6
ENDMDL
MODEL 5
REMARK VINA RESULT:      -7.6      4.332      7.364
REMARK  6 active torsions:
REMARK  status: ('A' for Active; 'I' for Inactive)
REMARK    1  A    between atoms: C_6  and  C_7 
REMARK       I    between atoms: C_7  and  N_8 
REMARK    2  A    between atoms: N_8  and  C_9 
REMARK    3  A    between atoms: C_9  and  C_10 
REMARK    4  A    between atoms: C_10  and  O_11 
REMARK    5  A    between atoms: C_10  and  C_12 
REMARK    6  A    between atoms: C_15  and  O_16 
ROOT
HETATM    1  C   UNL     1      41.254 -14.439   4.368  1.00  0.00     0.258 C 
HETATM    2  N   UNL     1      41.698 -13.276   3.792  1.00  0.00    -0.350 N 
HETATM    3  O   UNL     1      40.520 -14.459   5.351  1.00  0.00    -0.267 OA
HETATM    4  H   UNL     1      42.227 -13.341   2.923  1.00  0.00     0.163 HD
ENDROOT
BRANCH   2   5
HETATM    5  C   UNL     1      41.341 -11.944   4.267  1.00  0.00     0.114 C 
HETATM    6  C   UNL     1      40.172 -11.415   3.434  1.00  0.00     0.035 C 
BRANCH   5   7
HETATM    7  C   UNL     1      42.554 -10.973   4.201  1.00  0.00     0.173 C 
BRANCH   7   8
HETATM    8  O   UNL     1      43.384 -11.283   3.073  1.00  0.00    -0.389 OA
HETATM    9  H   UNL     1      43.630 -10.435   2.665  1.00  0.00     0.210 HD
ENDBRANCH   7   8
BRANCH   7  10
HETATM   10  C   UNL     1      43.386 -10.954   5.471  1.00  0.00    -0.028 A 
HETATM   11  C   UNL     1      42.867 -10.389   6.642  1.00  0.00     0.012 A 
HETATM   12  C   UNL     1      43.619 -10.382   7.821  1.00  0.00     0.037 A 
HETATM   13  C   UNL     1      44.895 -10.948   7.857  1.00  0.00     0.068 A 
HETATM   14  C   UNL     1      45.424 -11.505   6.695  1.00  0.00     0.037 A 
HETATM   15  C   UNL     1      44.676 -11.506   5.512  1.00  0.00     0.012 A 
BRANCH  13  16
HETATM   16  O   UNL     1      45.517 -10.885   9.074  1.00  0.00    -0.356 OA
HETATM   17  C   UNL     1      44.854 -10.143  10.090  1.00  0.00     0.210 C 
ENDBRANCH  13  16
ENDBRANCH   7  10
ENDBRANCH   5   7
ENDBRANCH   2   5
BRANCH   1  18
HETATM   18  C   UNL     1      41.726 -15.657   3.727  1.00  0.00     0.105 A 
HETATM   19  C   UNL     1      41.251 -16.252   2.527  1.00  0.00     0.071 A 
HETATM   20  C   UNL     1      40.157 -15.768   1.645  1.00  0.00     0.073 C 
HETATM   21  N   UNL     1      41.907 -17.376   2.219  1.00  0.00    -0.170 NA
HETATM   22  N   UNL     1      42.816 -17.527   3.206  1.00  0.00    -0.225 N 
HETATM   23  C   UNL     1      42.735 -16.504   4.155  1.00  0.00     0.168 A 
HETATM   24  C   UNL     1      43.753 -18.545   3.342  1.00  0.00     0.122 A 
HETATM   25  N   UNL     1      43.564 -16.467   5.252  1.00  0.00    -0.240 NA
HETATM   26  C   UNL     1      44.429 -17.434   5.342  1.00  0.00     0.120 A 
HETATM   27  C   UNL     1      44.593 -18.561   4.385  1.00  0.00     0.038 A 
ENDBRANCH   1  18
TORSDOF 6
ENDMDL
MODEL 6
REMARK VINA RESULT:      -7.5      2.848      4.484
REMARK  6 active torsions:
REMARK  status: ('A' for Active; 'I' for Inactive)
REMARK    1  A    between atoms: C_6  and  C_7 
REMARK       I    between atoms: C_7  and  N_8 
REMARK    2  A    between atoms: N_8  and  C_9 
REMARK    3  A    between atoms: C_9  and  C_10 
REMARK    4  A    between atoms: C_10  and  O_11 
REMARK    5  A    between atoms: C_10  and  C_12 
REMARK    6  A    between atoms: C_15  and  O_16 
ROOT
HETATM    1  C   UNL     1      40.271 -13.270   5.119  1.00  0.00     0.258 C 
HETATM    2  N   UNL     1      41.568 -13.713   5.177  1.00  0.00    -0.350 N 
HETATM    3  O   UNL     1      39.507 -13.315   6.078  1.00  0.00    -0.267 OA
HETATM    4  H   UNL     1      42.168 -13.555   4.368  1.00  0.00     0.163 HD
ENDROOT
BRANCH   2   5
HETATM    5  C   UNL     1      42.186 -14.268   6.377  1.00  0.00     0.114 C 
HETATM    6  C   UNL     1      43.696 -14.032   6.314  1.00  0.00     0.035 C 
BRANCH   5   7
HETATM    7  C   UNL     1      41.866 -15.781   6.533  1.00  0.00     0.173 C 
BRANCH   7   8
HETATM    8  O   UNL     1      42.240 -16.241   7.839  1.00  0.00    -0.389 OA
HETATM    9  H   UNL     1      42.130 -17.207   7.838  1.00  0.00     0.210 HD
ENDBRANCH   7   8
BRANCH   7  10
HETATM   10  C   UNL     1      42.514 -16.652   5.470  1.00  0.00    -0.028 A 
HETATM   11  C   UNL     1      43.523 -17.556   5.822  1.00  0.00     0.012 A 
HETATM   12  C   UNL     1      44.112 -18.374   4.852  1.00  0.00     0.037 A 
HETATM   13  C   UNL     1      43.699 -18.314   3.520  1.00  0.00     0.068 A 
HETATM   14  C   UNL     1      42.701 -17.412   3.159  1.00  0.00     0.037 A 
HETATM   15  C   UNL     1      42.116 -16.587   4.126  1.00  0.00     0.012 A 
BRANCH  13  16
HETATM   16  O   UNL     1      44.348 -19.175   2.679  1.00  0.00    -0.356 OA
HETATM   17  C   UNL     1      43.549 -20.159   2.033  1.00  0.00     0.210 C 
ENDBRANCH  13  16
ENDBRANCH   7  10
ENDBRANCH   5   7
ENDBRANCH   2   5
BRANCH   1  18
HETATM   18  C   UNL     1      39.863 -12.746   3.825  1.00  0.00     0.105 A 
HETATM   19  C   UNL     1      39.262 -11.489   3.543  1.00  0.00     0.071 A 
HETATM   20  C   UNL     1      38.909 -10.415   4.508  1.00  0.00     0.073 C 
HETATM   21  N   UNL     1      39.010 -11.324   2.240  1.00  0.00    -0.170 NA
HETATM   22  N   UNL     1      39.442 -12.462   1.658  1.00  0.00    -0.225 N 
HETATM   23  C   UNL     1      39.963 -13.364   2.590  1.00  0.00     0.168 A 
HETATM   24  C   UNL     1      39.409 -12.784   0.305  1.00  0.00     0.122 A 
HETATM   25  N   UNL     1      40.452 -14.593   2.212  1.00  0.00    -0.240 NA
HETATM   26  C   UNL     1      40.408 -14.855   0.940  1.00  0.00     0.120 A 
HETATM   27  C   UNL     1      39.878 -13.962  -0.126  1.00  0.00     0.038 A 
ENDBRANCH   1  18
TORSDOF 6
ENDMDL
MODEL 7
REMARK VINA RESULT:      -7.5      5.617      7.253
REMARK  6 active torsions:
REMARK  status: ('A' for Active; 'I' for Inactive)
REMARK    1  A    between atoms: C_6  and  C_7 
REMARK       I    between atoms: C_7  and  N_8 
REMARK    2  A    between atoms: N_8  and  C_9 
REMARK    3  A    between atoms: C_9  and  C_10 
REMARK    4  A    between atoms: C_10  and  O_11 
REMARK    5  A    between atoms: C_10  and  C_12 
REMARK    6  A    between atoms: C_15  and  O_16 
ROOT
HETATM    1  C   UNL     1      42.259 -12.337   5.829  1.00  0.00     0.258 C 
HETATM    2  N   UNL     1      42.051 -13.453   6.599  1.00  0.00    -0.350 N 
HETATM    3  O   UNL     1      42.212 -12.354   4.603  1.00  0.00    -0.267 OA
HETATM    4  H   UNL     1      42.013 -13.339   7.611  1.00  0.00     0.163 HD
ENDROOT
BRANCH   2   5
HETATM    5  C   UNL     1      41.738 -14.770   6.056  1.00  0.00     0.114 C 
HETATM    6  C   UNL     1      40.349 -15.191   6.540  1.00  0.00     0.035 C 
BRANCH   5   7
HETATM    7  C   UNL     1      42.809 -15.821   6.461  1.00  0.00     0.173 C 
BRANCH   7   8
HETATM    8  O   UNL     1      43.978 -15.172   6.980  1.00  0.00    -0.389 OA
HETATM    9  H   UNL     1      44.398 -15.800   7.593  1.00  0.00     0.210 HD
ENDBRANCH   7   8
BRANCH   7  10
HETATM   10  C   UNL     1      43.194 -16.762   5.331  1.00  0.00    -0.028 A 
HETATM   11  C   UNL     1      43.835 -17.974   5.615  1.00  0.00     0.012 A 
HETATM   12  C   UNL     1      44.177 -18.854   4.583  1.00  0.00     0.037 A 
HETATM   13  C   UNL     1      43.876 -18.548   3.255  1.00  0.00     0.068 A 
HETATM   14  C   UNL     1      43.246 -17.341   2.962  1.00  0.00     0.037 A 
HETATM   15  C   UNL     1      42.910 -16.455   3.992  1.00  0.00     0.012 A 
BRANCH  13  16
HETATM   16  O   UNL     1      44.255 -19.499   2.347  1.00  0.00    -0.356 OA
HETATM   17  C   UNL     1      43.228 -20.348   1.849  1.00  0.00     0.210 C 
ENDBRANCH  13  16
ENDBRANCH   7  10
ENDBRANCH   5   7
ENDBRANCH   2   5
BRANCH   1  18
HETATM   18  C   UNL     1      42.550 -11.124   6.577  1.00  0.00     0.105 A 
HETATM   19  C   UNL     1      41.655 -10.073   6.916  1.00  0.00     0.071 A 
HETATM   20  C   UNL     1      40.211  -9.967   6.583  1.00  0.00     0.073 C 
HETATM   21  N   UNL     1      42.251  -9.099   7.612  1.00  0.00    -0.170 NA
HETATM   22  N   UNL     1      43.534  -9.500   7.738  1.00  0.00    -0.225 N 
HETATM   23  C   UNL     1      43.764 -10.729   7.113  1.00  0.00     0.168 A 
HETATM   24  C   UNL     1      44.567  -8.834   8.390  1.00  0.00     0.122 A 
HETATM   25  N   UNL     1      45.007 -11.318   7.111  1.00  0.00    -0.240 NA
HETATM   26  C   UNL     1      45.944 -10.669   7.734  1.00  0.00     0.120 A 
HETATM   27  C   UNL     1      45.797  -9.361   8.430  1.00  0.00     0.038 A 
ENDBRANCH   1  18
TORSDOF 6
ENDMDL
MODEL 8
REMARK VINA RESULT:      -7.4      4.174      6.237
REMARK  6 active torsions:
REMARK  status: ('A' for Active; 'I' for Inactive)
REMARK    1  A    between atoms: C_6  and  C_7 
REMARK       I    between atoms: C_7  and  N_8 
REMARK    2  A    between atoms: N_8  and  C_9 
REMARK    3  A    between atoms: C_9  and  C_10 
REMARK    4  A    between atoms: C_10  and  O_11 
REMARK    5  A    between atoms: C_10  and  C_12 
REMARK    6  A    between atoms: C_15  and  O_16 
ROOT
HETATM    1  C   UNL     1      41.249 -12.403   4.233  1.00  0.00     0.258 C 
HETATM    2  N   UNL     1      41.647 -13.714   4.288  1.00  0.00    -0.350 N 
HETATM    3  O   UNL     1      40.655 -11.924   3.273  1.00  0.00    -0.267 OA
HETATM    4  H   UNL     1      42.051 -14.060   5.157  1.00  0.00     0.163 HD
ENDROOT
BRANCH   2   5
HETATM    5  C   UNL     1      41.397 -14.685   3.228  1.00  0.00     0.114 C 
HETATM    6  C   UNL     1      40.636 -15.876   3.812  1.00  0.00     0.035 C 
BRANCH   5   7
HETATM    7  C   UNL     1      42.721 -15.147   2.556  1.00  0.00     0.173 C 
BRANCH   7   8
HETATM    8  O   UNL     1      42.587 -15.143   1.128  1.00  0.00    -0.389 OA
HETATM    9  H   UNL     1      42.595 -16.073   0.843  1.00  0.00     0.210 HD
ENDBRANCH   7   8
BRANCH   7  10
HETATM   10  C   UNL     1      43.200 -16.508   3.030  1.00  0.00    -0.028 A 
HETATM   11  C   UNL     1      43.750 -16.652   4.310  1.00  0.00     0.012 A 
HETATM   12  C   UNL     1      44.177 -17.905   4.762  1.00  0.00     0.037 A 
HETATM   13  C   UNL     1      44.054 -19.035   3.953  1.00  0.00     0.068 A 
HETATM   14  C   UNL     1      43.516 -18.901   2.675  1.00  0.00     0.037 A 
HETATM   15  C   UNL     1      43.095 -17.647   2.218  1.00  0.00     0.012 A 
BRANCH  13  16
HETATM   16  O   UNL     1      44.499 -20.198   4.520  1.00  0.00    -0.356 OA
HETATM   17  C   UNL     1      43.812 -20.644   5.682  1.00  0.00     0.210 C 
ENDBRANCH  13  16
ENDBRANCH   7  10
ENDBRANCH   5   7
ENDBRANCH   2   5
BRANCH   1  18
HETATM   18  C   UNL     1      41.594 -11.612   5.405  1.00  0.00     0.105 A 
HETATM   19  C   UNL     1      40.750 -10.748   6.153  1.00  0.00     0.071 A 
HETATM   20  C   UNL     1      39.314 -10.447   5.911  1.00  0.00     0.073 C 
HETATM   21  N   UNL     1      41.388 -10.168   7.175  1.00  0.00    -0.170 NA
HETATM   22  N   UNL     1      42.649 -10.645   7.110  1.00  0.00    -0.225 N 
HETATM   23  C   UNL     1      42.823 -11.525   6.038  1.00  0.00     0.168 A 
HETATM   24  C   UNL     1      43.709 -10.350   7.961  1.00  0.00     0.122 A 
HETATM   25  N   UNL     1      44.035 -12.121   5.780  1.00  0.00    -0.240 NA
HETATM   26  C   UNL     1      45.000 -11.824   6.600  1.00  0.00     0.120 A 
HETATM   27  C   UNL     1      44.912 -10.905   7.767  1.00  0.00     0.038 A 
ENDBRANCH   1  18
TORSDOF 6
ENDMDL
MODEL 9
REMARK VINA RESULT:      -7.3      4.773      8.365
REMARK  6 active torsions:
REMARK  status: ('A' for Active; 'I' for Inactive)
REMARK    1  A    between atoms: C_6  and  C_7 
REMARK       I    between atoms: C_7  and  N_8 
REMARK    2  A    between atoms: N_8  and  C_9 
REMARK    3  A    between atoms: C_9  and  C_10 
REMARK    4  A    between atoms: C_10  and  O_11 
REMARK    5  A    between atoms: C_10  and  C_12 
REMARK    6  A    between atoms: C_15  and  O_16 
ROOT
HETATM    1  C   UNL     1      43.261 -15.828   5.137  1.00  0.00     0.258 C 
HETATM    2  N   UNL     1      42.099 -15.107   5.031  1.00  0.00    -0.350 N 
HETATM    3  O   UNL     1      44.143 -15.558   5.946  1.00  0.00    -0.267 OA
HETATM    4  H   UNL     1      41.375 -15.450   4.401  1.00  0.00     0.163 HD
ENDROOT
BRANCH   2   5
HETATM    5  C   UNL     1      41.774 -13.958   5.870  1.00  0.00     0.114 C 
HETATM    6  C   UNL     1      40.258 -13.893   6.059  1.00  0.00     0.035 C 
BRANCH   5   7
HETATM    7  C   UNL     1      42.314 -12.636   5.257  1.00  0.00     0.173 C 
BRANCH   7   8
HETATM    8  O   UNL     1      43.192 -12.914   4.156  1.00  0.00    -0.389 OA
HETATM    9  H   UNL     1      43.029 -12.227   3.488  1.00  0.00     0.210 HD
ENDBRANCH   7   8
BRANCH   7  10
HETATM   10  C   UNL     1      43.012 -11.739   6.265  1.00  0.00    -0.028 A 
HETATM   11  C   UNL     1      42.361 -10.604   6.764  1.00  0.00     0.012 A 
HETATM   12  C   UNL     1      42.989  -9.783   7.706  1.00  0.00     0.037 A 
HETATM   13  C   UNL     1      44.268 -10.084   8.175  1.00  0.00     0.068 A 
HETATM   14  C   UNL     1      44.927 -11.207   7.680  1.00  0.00     0.037 A 
HETATM   15  C   UNL     1      44.304 -12.026   6.731  1.00  0.00     0.012 A 
BRANCH  13  16
HETATM   16  O   UNL     1      44.760  -9.206   9.103  1.00  0.00    -0.356 OA
HETATM   17  C   UNL     1      45.310  -9.772  10.286  1.00  0.00     0.210 C 
ENDBRANCH  13  16
ENDBRANCH   7  10
ENDBRANCH   5   7
ENDBRANCH   2   5
BRANCH   1  18
HETATM   18  C   UNL     1      43.375 -16.941   4.207  1.00  0.00     0.105 A 
HETATM   19  C   UNL     1      43.305 -16.902   2.788  1.00  0.00     0.071 A 
HETATM   20  C   UNL     1      43.096 -15.713   1.921  1.00  0.00     0.073 C 
HETATM   21  N   UNL     1      43.448 -18.111   2.235  1.00  0.00    -0.170 NA
HETATM   22  N   UNL     1      43.615 -18.950   3.280  1.00  0.00    -0.225 N 
HETATM   23  C   UNL     1      43.569 -18.279   4.505  1.00  0.00     0.168 A 
HETATM   24  C   UNL     1      43.812 -20.326   3.235  1.00  0.00     0.122 A 
HETATM   25  N   UNL     1      43.708 -18.945   5.701  1.00  0.00    -0.240 NA
HETATM   26  C   UNL     1      43.894 -20.229   5.617  1.00  0.00     0.120 A 
HETATM   27  C   UNL     1      43.962 -21.030   4.365  1.00  0.00     0.038 A 
ENDBRANCH   1  18
TORSDOF 6
ENDMDL
MODEL 10
REMARK VINA RESULT:      -7.2      3.042      5.564
REMARK  6 active torsions:
REMARK  status: ('A' for Active; 'I' for Inactive)
REMARK    1  A    between atoms: C_6  and  C_7 
REMARK       I    between atoms: C_7  and  N_8 
REMARK    2  A    between atoms: N_8  and  C_9 
REMARK    3  A    between atoms: C_9  and  C_10 
REMARK    4  A    between atoms: C_10  and  O_11 
REMARK    5  A    between atoms: C_10  and  C_12 
REMARK    6  A    between atoms: C_15  and  O_16 
ROOT
HETATM    1  C   UNL     1      40.927 -12.873   2.794  1.00  0.00     0.258 C 
HETATM    2  N   UNL     1      41.668 -13.712   2.002  1.00  0.00    -0.350 N 
HETATM    3  O   UNL     1      39.700 -12.876   2.805  1.00  0.00    -0.267 OA
HETATM    4  H   UNL     1      42.681 -13.714   2.118  1.00  0.00     0.163 HD
ENDROOT
BRANCH   2   5
HETATM    5  C   UNL     1      41.090 -14.705   1.102  1.00  0.00     0.114 C 
HETATM    6  C   UNL     1      40.001 -14.039   0.259  1.00  0.00     0.035 C 
BRANCH   5   7
HETATM    7  C   UNL     1      40.520 -15.920   1.887  1.00  0.00     0.173 C 
BRANCH   7   8
HETATM    8  O   UNL     1      39.220 -15.614   2.410  1.00  0.00    -0.389 OA
HETATM    9  H   UNL     1      39.357 -15.041   3.184  1.00  0.00     0.210 HD
ENDBRANCH   7   8
BRANCH   7  10
HETATM   10  C   UNL     1      41.430 -16.403   3.004  1.00  0.00    -0.028 A 
HETATM   11  C   UNL     1      41.037 -16.261   4.341  1.00  0.00     0.012 A 
HETATM   12  C   UNL     1      41.861 -16.719   5.374  1.00  0.00     0.037 A 
HETATM   13  C   UNL     1      43.082 -17.335   5.094  1.00  0.00     0.068 A 
HETATM   14  C   UNL     1      43.485 -17.473   3.768  1.00  0.00     0.037 A 
HETATM   15  C   UNL     1      42.666 -17.009   2.733  1.00  0.00     0.012 A 
BRANCH  13  16
HETATM   16  O   UNL     1      43.782 -17.746   6.195  1.00  0.00    -0.356 OA
HETATM   17  C   UNL     1      43.655 -16.949   7.366  1.00  0.00     0.210 C 
ENDBRANCH  13  16
ENDBRANCH   7  10
ENDBRANCH   5   7
ENDBRANCH   2   5
BRANCH   1  18
HETATM   18  C   UNL     1      41.708 -11.966   3.621  1.00  0.00     0.105 A 
HETATM   19  C   UNL     1      41.780 -10.550   3.533  1.00  0.00     0.071 A 
HETATM   20  C   UNL     1      41.075  -9.662   2.572  1.00  0.00     0.073 C 
HETATM   21  N   UNL     1      42.600 -10.022   4.449  1.00  0.00    -0.170 NA
HETATM   22  N   UNL     1      43.067 -11.080   5.144  1.00  0.00    -0.225 N 
HETATM   23  C   UNL     1      42.555 -12.290   4.667  1.00  0.00     0.168 A 
HETATM   24  C   UNL     1      43.954 -11.061   6.216  1.00  0.00     0.122 A 
HETATM   25  N   UNL     1      42.909 -13.496   5.226  1.00  0.00    -0.240 NA
HETATM   26  C   UNL     1      43.735 -13.437   6.228  1.00  0.00     0.120 A 
HETATM   27  C   UNL     1      44.330 -12.203   6.808  1.00  0.00     0.038 A 
ENDBRANCH   1  18
TORSDOF 6
ENDMDL
