MODEL 1
REMARK VINA RESULT:      -9.0      0.000      0.000
REMARK  3 active torsions:
REMARK  status: ('A' for Active; 'I' for Inactive)
REMARK    1  A    between atoms: O_2  and  C_3 
REMARK    2  A    between atoms: C_9  and  C_10 
REMARK       I    between atoms: C_10  and  N_11 
REMARK    3  A    between atoms: N_11  and  C_12 
ROOT
HETATM    1  C   UNL     1      43.823 -19.876   3.563  1.00  0.00     0.068 A 
HETATM    2  C   UNL     1      43.500 -18.638   2.998  1.00  0.00     0.044 A 
HETATM    3  C   UNL     1      43.339 -17.503   3.803  1.00  0.00    -0.043 A 
HETATM    4  C   UNL     1      43.477 -17.625   5.205  1.00  0.00    -0.001 A 
HETATM    5  C   UNL     1      43.312 -16.407   5.979  1.00  0.00     0.069 A 
HETATM    6  C   UNL     1      43.247 -15.142   5.435  1.00  0.00     0.007 A 
HETATM    7  C   UNL     1      43.118 -14.259   6.535  1.00  0.00     0.153 A 
HETATM    8  N   UNL     1      43.072 -14.950   7.700  1.00  0.00    -0.168 NA
HETATM    9  N   UNL     1      43.191 -16.242   7.323  1.00  0.00    -0.276 N 
HETATM   10  H   UNL     1      43.179 -16.956   8.042  1.00  0.00     0.189 HD
HETATM   11  C   UNL     1      43.365 -14.919   3.969  1.00  0.00     0.048 C 
HETATM   12  C   UNL     1      42.923 -16.175   3.179  1.00  0.00     0.044 C 
HETATM   13  C   UNL     1      43.793 -18.861   5.768  1.00  0.00     0.017 A 
HETATM   14  C   UNL     1      43.967 -19.983   4.948  1.00  0.00     0.037 A 
ENDROOT
BRANCH   7  15
HETATM   15  C   UNL     1      43.057 -12.784   6.516  1.00  0.00     0.277 C 
HETATM   16  N   UNL     1      43.678 -12.238   7.624  1.00  0.00    -0.322 N 
HETATM   17  H   UNL     1      44.050 -12.946   8.254  1.00  0.00     0.169 HD
HETATM   18  O   UNL     1      42.517 -12.166   5.606  1.00  0.00    -0.266 OA
BRANCH  16  19
HETATM   19  C   UNL     1      43.864 -10.885   7.950  1.00  0.00     0.036 A 
HETATM   20  C   UNL     1      42.821  -9.964   8.080  1.00  0.00     0.056 A 
HETATM   21  C   UNL     1      43.098  -8.631   8.398  1.00  0.00     0.074 A 
HETATM   22 CL   UNL     1      41.800  -7.507   8.549  1.00  0.00    -0.081 Cl
HETATM   23  C   UNL     1      44.414  -8.217   8.586  1.00  0.00     0.138 A 
HETATM   24  F   UNL     1      44.698  -6.942   8.889  1.00  0.00    -0.204 F 
HETATM   25  C   UNL     1      45.461  -9.123   8.462  1.00  0.00     0.046 A 
HETATM   26  C   UNL     1      45.185 -10.455   8.144  1.00  0.00     0.032 A 
ENDBRANCH  16  19
ENDBRANCH   7  15
BRANCH   1  27
HETATM   27  O   UNL     1      43.963 -20.894   2.659  1.00  0.00    -0.356 OA
HETATM   28  C   UNL     1      43.581 -20.621   1.317  1.00  0.00     0.210 C 
ENDBRANCH   1  27
TORSDOF 3
ENDMDL
MODEL 2
REMARK VINA RESULT:      -8.9      1.895      2.448
REMARK  3 active torsions:
REMARK  status: ('A' for Active; 'I' for Inactive)
REMARK    1  A    between atoms: O_2  and  C_3 
REMARK    2  A    between atoms: C_9  and  C_10 
REMARK       I    between atoms: C_10  and  N_11 
REMARK    3  A    between atoms: N_11  and  C_12 
ROOT
HETATM    1  C   UNL     1      43.623 -19.636   3.097  1.00  0.00     0.068 A 
HETATM    2  C   UNL     1      44.060 -18.994   4.259  1.00  0.00     0.044 A 
HETATM    3  C   UNL     1      43.881 -17.614   4.426  1.00  0.00    -0.043 A 
HETATM    4  C   UNL     1      43.278 -16.866   3.390  1.00  0.00    -0.001 A 
HETATM    5  C   UNL     1      43.110 -15.443   3.634  1.00  0.00     0.069 A 
HETATM    6  C   UNL     1      43.295 -14.836   4.857  1.00  0.00     0.007 A 
HETATM    7  C   UNL     1      42.998 -13.466   4.653  1.00  0.00     0.153 A 
HETATM    8  N   UNL     1      42.676 -13.235   3.357  1.00  0.00    -0.168 NA
HETATM    9  N   UNL     1      42.756 -14.451   2.774  1.00  0.00    -0.276 N 
HETATM   10  H   UNL     1      42.555 -14.523   1.783  1.00  0.00     0.189 HD
HETATM   11  C   UNL     1      43.675 -15.619   6.064  1.00  0.00     0.048 C 
HETATM   12  C   UNL     1      44.421 -16.917   5.671  1.00  0.00     0.044 C 
HETATM   13  C   UNL     1      42.849 -17.506   2.227  1.00  0.00     0.017 A 
HETATM   14  C   UNL     1      43.020 -18.889   2.083  1.00  0.00     0.037 A 
ENDROOT
BRANCH   7  15
HETATM   15  C   UNL     1      42.991 -12.378   5.651  1.00  0.00     0.277 C 
HETATM   16  N   UNL     1      44.153 -12.372   6.400  1.00  0.00    -0.322 N 
HETATM   17  H   UNL     1      44.792 -13.121   6.140  1.00  0.00     0.169 HD
HETATM   18  O   UNL     1      42.052 -11.598   5.758  1.00  0.00    -0.266 OA
BRANCH  16  19
HETATM   19  C   UNL     1      44.541 -11.480   7.413  1.00  0.00     0.036 A 
HETATM   20  C   UNL     1      43.842 -11.309   8.611  1.00  0.00     0.056 A 
HETATM   21  C   UNL     1      44.295 -10.390   9.562  1.00  0.00     0.074 A 
HETATM   22 CL   UNL     1      43.418 -10.188  11.032  1.00  0.00    -0.081 Cl
HETATM   23  C   UNL     1      45.444  -9.643   9.319  1.00  0.00     0.138 A 
HETATM   24  F   UNL     1      45.892  -8.755  10.218  1.00  0.00    -0.204 F 
HETATM   25  C   UNL     1      46.151  -9.804   8.133  1.00  0.00     0.046 A 
HETATM   26  C   UNL     1      45.699 -10.722   7.181  1.00  0.00     0.032 A 
ENDBRANCH  16  19
ENDBRANCH   7  15
BRANCH   1  27
HETATM   27  O   UNL     1      43.850 -20.985   3.073  1.00  0.00    -0.356 OA
HETATM   28  C   UNL     1      44.108 -21.617   4.321  1.00  0.00     0.210 C 
ENDBRANCH   1  27
TORSDOF 3
ENDMDL
MODEL 3
REMARK VINA RESULT:      -8.8      2.192      3.217
REMARK  3 active torsions:
REMARK  status: ('A' for Active; 'I' for Inactive)
REMARK    1  A    between atoms: O_2  and  C_3 
REMARK    2  A    between atoms: C_9  and  C_10 
REMARK       I    between atoms: C_10  and  N_11 
REMARK    3  A    between atoms: N_11  and  C_12 
ROOT
HETATM    1  C   UNL     1      43.106 -17.151   2.364  1.00  0.00     0.068 A 
HETATM    2  C   UNL     1      43.036 -16.867   3.731  1.00  0.00     0.044 A 
HETATM    3  C   UNL     1      43.057 -15.543   4.190  1.00  0.00    -0.043 A 
HETATM    4  C   UNL     1      43.179 -14.489   3.256  1.00  0.00    -0.001 A 
HETATM    5  C   UNL     1      43.179 -13.142   3.798  1.00  0.00     0.069 A 
HETATM    6  C   UNL     1      42.859 -12.826   5.100  1.00  0.00     0.007 A 
HETATM    7  C   UNL     1      42.955 -11.416   5.188  1.00  0.00     0.153 A 
HETATM    8  N   UNL     1      43.349 -10.890   4.003  1.00  0.00    -0.168 NA
HETATM    9  N   UNL     1      43.475 -11.961   3.190  1.00  0.00    -0.276 N 
HETATM   10  H   UNL     1      43.769 -11.807   2.233  1.00  0.00     0.189 HD
HETATM   11  C   UNL     1      42.456 -13.875   6.077  1.00  0.00     0.048 C 
HETATM   12  C   UNL     1      43.045 -15.252   5.687  1.00  0.00     0.044 C 
HETATM   13  C   UNL     1      43.256 -14.773   1.892  1.00  0.00     0.017 A 
HETATM   14  C   UNL     1      43.218 -16.102   1.448  1.00  0.00     0.037 A 
ENDROOT
BRANCH   7  15
HETATM   15  C   UNL     1      42.667 -10.554   6.352  1.00  0.00     0.277 C 
HETATM   16  N   UNL     1      43.542 -10.803   7.393  1.00  0.00    -0.322 N 
HETATM   17  H   UNL     1      44.211 -11.539   7.176  1.00  0.00     0.169 HD
HETATM   18  O   UNL     1      41.760  -9.731   6.344  1.00  0.00    -0.266 OA
BRANCH  16  19
HETATM   19  C   UNL     1      43.620 -10.172   8.645  1.00  0.00     0.036 A 
HETATM   20  C   UNL     1      42.569  -9.454   9.224  1.00  0.00     0.056 A 
HETATM   21  C   UNL     1      42.739  -8.848  10.472  1.00  0.00     0.074 A 
HETATM   22 CL   UNL     1      41.435  -7.963  11.169  1.00  0.00    -0.081 Cl
HETATM   23  C   UNL     1      43.954  -8.957  11.142  1.00  0.00     0.138 A 
HETATM   24  F   UNL     1      44.135  -8.379  12.339  1.00  0.00    -0.204 F 
HETATM   25  C   UNL     1      45.007  -9.669  10.579  1.00  0.00     0.046 A 
HETATM   26  C   UNL     1      44.839 -10.275   9.332  1.00  0.00     0.032 A 
ENDBRANCH  16  19
ENDBRANCH   7  15
BRANCH   1  27
HETATM   27  O   UNL     1      43.063 -18.483   2.057  1.00  0.00    -0.356 OA
HETATM   28  C   UNL     1      43.853 -19.355   2.856  1.00  0.00     0.210 C 
ENDBRANCH   1  27
TORSDOF 3
ENDMDL
MODEL 4
REMARK VINA RESULT:      -8.5      6.734      9.426
REMARK  3 active torsions:
REMARK  status: ('A' for Active; 'I' for Inactive)
REMARK    1  A    between atoms: O_2  and  C_3 
REMARK    2  A    between atoms: C_9  and  C_10 
REMARK       I    between atoms: C_10  and  N_11 
REMARK    3  A    between atoms: N_11  and  C_12 
ROOT
HETATM    1  C   UNL     1      38.121 -11.104  -1.950  1.00  0.00     0.068 A 
HETATM    2  C   UNL     1      38.768 -12.344  -1.961  1.00  0.00     0.044 A 
HETATM    3  C   UNL     1      39.230 -12.922  -0.772  1.00  0.00    -0.043 A 
HETATM    4  C   UNL     1      39.063 -12.225   0.446  1.00  0.00    -0.001 A 
HETATM    5  C   UNL     1      39.552 -12.888   1.643  1.00  0.00     0.069 A 
HETATM    6  C   UNL     1      39.957 -14.204   1.693  1.00  0.00     0.007 A 
HETATM    7  C   UNL     1      40.320 -14.441   3.042  1.00  0.00     0.153 A 
HETATM    8  N   UNL     1      40.177 -13.314   3.781  1.00  0.00    -0.168 NA
HETATM    9  N   UNL     1      39.712 -12.399   2.902  1.00  0.00    -0.276 N 
HETATM   10  H   UNL     1      39.530 -11.460   3.236  1.00  0.00     0.189 HD
HETATM   11  C   UNL     1      39.904 -15.080   0.492  1.00  0.00     0.048 C 
HETATM   12  C   UNL     1      39.990 -14.244  -0.808  1.00  0.00     0.044 C 
HETATM   13  C   UNL     1      38.424 -10.985   0.456  1.00  0.00     0.017 A 
HETATM   14  C   UNL     1      37.953 -10.428  -0.740  1.00  0.00     0.037 A 
ENDROOT
BRANCH   7  15
HETATM   15  C   UNL     1      40.779 -15.705   3.652  1.00  0.00     0.277 C 
HETATM   16  N   UNL     1      42.000 -16.100   3.139  1.00  0.00    -0.322 N 
HETATM   17  H   UNL     1      42.352 -15.461   2.428  1.00  0.00     0.169 HD
HETATM   18  O   UNL     1      40.126 -16.289   4.509  1.00  0.00    -0.266 OA
BRANCH  16  19
HETATM   19  C   UNL     1      42.780 -17.216   3.484  1.00  0.00     0.036 A 
HETATM   20  C   UNL     1      43.028 -18.289   2.625  1.00  0.00     0.056 A 
HETATM   21  C   UNL     1      43.809 -19.366   3.056  1.00  0.00     0.074 A 
HETATM   22 CL   UNL     1      44.101 -20.684   1.986  1.00  0.00    -0.081 Cl
HETATM   23  C   UNL     1      44.342 -19.371   4.342  1.00  0.00     0.138 A 
HETATM   24  F   UNL     1      45.091 -20.396   4.774  1.00  0.00    -0.204 F 
HETATM   25  C   UNL     1      44.105 -18.309   5.206  1.00  0.00     0.046 A 
HETATM   26  C   UNL     1      43.324 -17.232   4.777  1.00  0.00     0.032 A 
ENDBRANCH  16  19
ENDBRANCH   7  15
BRANCH   1  27
HETATM   27  O   UNL     1      37.711 -10.666  -3.179  1.00  0.00    -0.356 OA
HETATM   28  C   UNL     1      38.492  -9.649  -3.794  1.00  0.00     0.210 C 
ENDBRANCH   1  27
TORSDOF 3
ENDMDL
MODEL 5
REMARK VINA RESULT:      -8.4      6.799      9.744
REMARK  3 active torsions:
REMARK  status: ('A' for Active; 'I' for Inactive)
REMARK    1  A    between atoms: O_2  and  C_3 
REMARK    2  A    between atoms: C_9  and  C_10 
REMARK       I    between atoms: C_10  and  N_11 
REMARK    3  A    between atoms: N_11  and  C_12 
ROOT
HETATM    1  C   UNL     1      41.289  -8.895  -2.261  1.00  0.00     0.068 A 
HETATM    2  C   UNL     1      41.552  -9.212  -0.924  1.00  0.00     0.044 A 
HETATM    3  C   UNL     1      41.285 -10.494  -0.426  1.00  0.00    -0.043 A 
HETATM    4  C   UNL     1      40.718 -11.464  -1.283  1.00  0.00    -0.001 A 
HETATM    5  C   UNL     1      40.481 -12.777  -0.706  1.00  0.00     0.069 A 
HETATM    6  C   UNL     1      40.960 -13.186   0.520  1.00  0.00     0.007 A 
HETATM    7  C   UNL     1      40.527 -14.526   0.671  1.00  0.00     0.153 A 
HETATM    8  N   UNL     1      39.787 -14.913  -0.396  1.00  0.00    -0.168 NA
HETATM    9  N   UNL     1      39.781 -13.831  -1.204  1.00  0.00    -0.276 N 
HETATM   10  H   UNL     1      39.276 -13.888  -2.081  1.00  0.00     0.189 HD
HETATM   11  C   UNL     1      41.801 -12.294   1.364  1.00  0.00     0.048 C 
HETATM   12  C   UNL     1      41.517 -10.805   1.049  1.00  0.00     0.044 C 
HETATM   13  C   UNL     1      40.449 -11.146  -2.614  1.00  0.00     0.017 A 
HETATM   14  C   UNL     1      40.736  -9.864  -3.101  1.00  0.00     0.037 A 
ENDROOT
BRANCH   7  15
HETATM   15  C   UNL     1      40.809 -15.454   1.786  1.00  0.00     0.277 C 
HETATM   16  N   UNL     1      42.111 -15.916   1.741  1.00  0.00    -0.322 N 
HETATM   17  H   UNL     1      42.632 -15.548   0.946  1.00  0.00     0.169 HD
HETATM   18  O   UNL     1      39.964 -15.740   2.625  1.00  0.00    -0.266 OA
BRANCH  16  19
HETATM   19  C   UNL     1      42.770 -16.776   2.634  1.00  0.00     0.036 A 
HETATM   20  C   UNL     1      43.215 -16.390   3.902  1.00  0.00     0.056 A 
HETATM   21  C   UNL     1      43.873 -17.310   4.723  1.00  0.00     0.074 A 
HETATM   22 CL   UNL     1      44.420 -16.816   6.282  1.00  0.00    -0.081 Cl
HETATM   23  C   UNL     1      44.086 -18.612   4.282  1.00  0.00     0.138 A 
HETATM   24  F   UNL     1      44.718 -19.508   5.056  1.00  0.00    -0.204 F 
HETATM   25  C   UNL     1      43.647 -19.010   3.025  1.00  0.00     0.046 A 
HETATM   26  C   UNL     1      42.990 -18.092   2.202  1.00  0.00     0.032 A 
ENDBRANCH  16  19
ENDBRANCH   7  15
BRANCH   1  27
HETATM   27  O   UNL     1      41.609  -7.613  -2.615  1.00  0.00    -0.356 OA
HETATM   28  C   UNL     1      42.368  -7.443  -3.805  1.00  0.00     0.210 C 
ENDBRANCH   1  27
TORSDOF 3
ENDMDL
MODEL 6
REMARK VINA RESULT:      -8.4      6.870      9.887
REMARK  3 active torsions:
REMARK  status: ('A' for Active; 'I' for Inactive)
REMARK    1  A    between atoms: O_2  and  C_3 
REMARK    2  A    between atoms: C_9  and  C_10 
REMARK       I    between atoms: C_10  and  N_11 
REMARK    3  A    between atoms: N_11  and  C_12 
ROOT
HETATM    1  C   UNL     1      41.404  -8.859  -1.663  1.00  0.00     0.068 A 
HETATM    2  C   UNL     1      41.664  -9.253  -0.347  1.00  0.00     0.044 A 
HETATM    3  C   UNL     1      41.398 -10.563   0.075  1.00  0.00    -0.043 A 
HETATM    4  C   UNL     1      40.834 -11.482  -0.839  1.00  0.00    -0.001 A 
HETATM    5  C   UNL     1      40.598 -12.826  -0.340  1.00  0.00     0.069 A 
HETATM    6  C   UNL     1      41.075 -13.306   0.860  1.00  0.00     0.007 A 
HETATM    7  C   UNL     1      40.643 -14.653   0.932  1.00  0.00     0.153 A 
HETATM    8  N   UNL     1      39.906 -14.978  -0.158  1.00  0.00    -0.168 NA
HETATM    9  N   UNL     1      39.900 -13.850  -0.901  1.00  0.00    -0.276 N 
HETATM   10  H   UNL     1      39.396 -13.856  -1.780  1.00  0.00     0.189 HD
HETATM   11  C   UNL     1      41.912 -12.463   1.757  1.00  0.00     0.048 C 
HETATM   12  C   UNL     1      41.627 -10.959   1.530  1.00  0.00     0.044 C 
HETATM   13  C   UNL     1      40.568 -11.086  -2.149  1.00  0.00     0.017 A 
HETATM   14  C   UNL     1      40.854  -9.778  -2.560  1.00  0.00     0.037 A 
ENDROOT
BRANCH   7  15
HETATM   15  C   UNL     1      40.924 -15.644   1.991  1.00  0.00     0.277 C 
HETATM   16  N   UNL     1      42.172 -16.215   1.830  1.00  0.00    -0.322 N 
HETATM   17  H   UNL     1      42.663 -15.863   1.009  1.00  0.00     0.169 HD
HETATM   18  O   UNL     1      40.121 -15.889   2.884  1.00  0.00    -0.266 OA
BRANCH  16  19
HETATM   19  C   UNL     1      42.817 -17.162   2.641  1.00  0.00     0.036 A 
HETATM   20  C   UNL     1      43.044 -18.488   2.262  1.00  0.00     0.056 A 
HETATM   21  C   UNL     1      43.686 -19.368   3.139  1.00  0.00     0.074 A 
HETATM   22 CL   UNL     1      43.953 -21.001   2.657  1.00  0.00    -0.081 Cl
HETATM   23  C   UNL     1      44.101 -18.926   4.392  1.00  0.00     0.138 A 
HETATM   24  F   UNL     1      44.715 -19.757   5.247  1.00  0.00    -0.204 F 
HETATM   25  C   UNL     1      43.883 -17.610   4.781  1.00  0.00     0.046 A 
HETATM   26  C   UNL     1      43.242 -16.729   3.906  1.00  0.00     0.032 A 
ENDBRANCH  16  19
ENDBRANCH   7  15
BRANCH   1  27
HETATM   27  O   UNL     1      41.723  -7.558  -1.941  1.00  0.00    -0.356 OA
HETATM   28  C   UNL     1      42.999  -7.101  -1.510  1.00  0.00     0.210 C 
ENDBRANCH   1  27
TORSDOF 3
ENDMDL
MODEL 7
REMARK VINA RESULT:      -8.4      5.470      6.756
REMARK  3 active torsions:
REMARK  status: ('A' for Active; 'I' for Inactive)
REMARK    1  A    between atoms: O_2  and  C_3 
REMARK    2  A    between atoms: C_9  and  C_10 
REMARK       I    between atoms: C_10  and  N_11 
REMARK    3  A    between atoms: N_11  and  C_12 
ROOT
HETATM    1  C   UNL     1      43.886 -18.733   5.004  1.00  0.00     0.068 A 
HETATM    2  C   UNL     1      43.823 -18.271   3.685  1.00  0.00     0.044 A 
HETATM    3  C   UNL     1      43.326 -16.993   3.396  1.00  0.00    -0.043 A 
HETATM    4  C   UNL     1      42.858 -16.179   4.452  1.00  0.00    -0.001 A 
HETATM    5  C   UNL     1      42.371 -14.861   4.084  1.00  0.00     0.069 A 
HETATM    6  C   UNL     1      42.532 -14.290   2.840  1.00  0.00     0.007 A 
HETATM    7  C   UNL     1      41.941 -13.006   2.929  1.00  0.00     0.153 A 
HETATM    8  N   UNL     1      41.411 -12.807   4.160  1.00  0.00    -0.168 NA
HETATM    9  N   UNL     1      41.689 -13.948   4.827  1.00  0.00    -0.276 N 
HETATM   10  H   UNL     1      41.379 -14.031   5.789  1.00  0.00     0.189 HD
HETATM   11  C   UNL     1      43.259 -14.995   1.750  1.00  0.00     0.048 C 
HETATM   12  C   UNL     1      43.204 -16.529   1.948  1.00  0.00     0.044 C 
HETATM   13  C   UNL     1      42.915 -16.642   5.766  1.00  0.00     0.017 A 
HETATM   14  C   UNL     1      43.430 -17.916   6.040  1.00  0.00     0.037 A 
ENDROOT
BRANCH   7  15
HETATM   15  C   UNL     1      41.882 -11.958   1.890  1.00  0.00     0.277 C 
HETATM   16  N   UNL     1      41.099 -12.350   0.820  1.00  0.00    -0.322 N 
HETATM   17  H   UNL     1      40.719 -13.288   0.935  1.00  0.00     0.169 HD
HETATM   18  O   UNL     1      42.465 -10.887   2.011  1.00  0.00    -0.266 OA
BRANCH  16  19
HETATM   19  C   UNL     1      40.766 -11.628  -0.337  1.00  0.00     0.036 A 
HETATM   20  C   UNL     1      40.127 -10.385  -0.324  1.00  0.00     0.056 A 
HETATM   21  C   UNL     1      39.824  -9.741  -1.527  1.00  0.00     0.074 A 
HETATM   22 CL   UNL     1      39.031  -8.211  -1.493  1.00  0.00    -0.081 Cl
HETATM   23  C   UNL     1      40.158 -10.334  -2.741  1.00  0.00     0.138 A 
HETATM   24  F   UNL     1      39.872  -9.732  -3.905  1.00  0.00    -0.204 F 
HETATM   25  C   UNL     1      40.795 -11.569  -2.769  1.00  0.00     0.046 A 
HETATM   26  C   UNL     1      41.099 -12.215  -1.567  1.00  0.00     0.032 A 
ENDBRANCH  16  19
ENDBRANCH   7  15
BRANCH   1  27
HETATM   27  O   UNL     1      44.404 -19.991   5.141  1.00  0.00    -0.356 OA
HETATM   28  C   UNL     1      44.007 -20.961   4.180  1.00  0.00     0.210 C 
ENDBRANCH   1  27
TORSDOF 3
ENDMDL
MODEL 8
REMARK VINA RESULT:      -8.1      4.566     10.310
REMARK  3 active torsions:
REMARK  status: ('A' for Active; 'I' for Inactive)
REMARK    1  A    between atoms: O_2  and  C_3 
REMARK    2  A    between atoms: C_9  and  C_10 
REMARK       I    between atoms: C_10  and  N_11 
REMARK    3  A    between atoms: N_11  and  C_12 
ROOT
HETATM    1  C   UNL     1      41.714  -6.654  12.775  1.00  0.00     0.068 A 
HETATM    2  C   UNL     1      41.335  -6.886  11.449  1.00  0.00     0.044 A 
HETATM    3  C   UNL     1      42.044  -7.793  10.650  1.00  0.00    -0.043 A 
HETATM    4  C   UNL     1      43.171  -8.455  11.189  1.00  0.00    -0.001 A 
HETATM    5  C   UNL     1      43.851  -9.392  10.312  1.00  0.00     0.069 A 
HETATM    6  C   UNL     1      43.354  -9.826   9.102  1.00  0.00     0.007 A 
HETATM    7  C   UNL     1      44.311 -10.744   8.603  1.00  0.00     0.153 A 
HETATM    8  N   UNL     1      45.363 -10.846   9.450  1.00  0.00    -0.168 NA
HETATM    9  N   UNL     1      45.049 -10.015  10.468  1.00  0.00    -0.276 N 
HETATM   10  H   UNL     1      45.706  -9.925  11.235  1.00  0.00     0.189 HD
HETATM   11  C   UNL     1      42.032  -9.367   8.594  1.00  0.00     0.048 C 
HETATM   12  C   UNL     1      41.659  -7.987   9.187  1.00  0.00     0.044 C 
HETATM   13  C   UNL     1      43.552  -8.218  12.510  1.00  0.00     0.017 A 
HETATM   14  C   UNL     1      42.823  -7.320  13.301  1.00  0.00     0.037 A 
ENDROOT
BRANCH   7  15
HETATM   15  C   UNL     1      44.247 -11.539   7.359  1.00  0.00     0.277 C 
HETATM   16  N   UNL     1      43.466 -12.668   7.521  1.00  0.00    -0.322 N 
HETATM   17  H   UNL     1      43.090 -12.753   8.464  1.00  0.00     0.169 HD
HETATM   18  O   UNL     1      44.827 -11.195   6.336  1.00  0.00    -0.266 OA
BRANCH  16  19
HETATM   19  C   UNL     1      43.131 -13.648   6.573  1.00  0.00     0.036 A 
HETATM   20  C   UNL     1      43.808 -14.863   6.436  1.00  0.00     0.056 A 
HETATM   21  C   UNL     1      43.413 -15.778   5.456  1.00  0.00     0.074 A 
HETATM   22 CL   UNL     1      44.263 -17.270   5.297  1.00  0.00    -0.081 Cl
HETATM   23  C   UNL     1      42.344 -15.484   4.616  1.00  0.00     0.138 A 
HETATM   24  F   UNL     1      41.952 -16.349   3.669  1.00  0.00    -0.204 F 
HETATM   25  C   UNL     1      41.660 -14.280   4.742  1.00  0.00     0.046 A 
HETATM   26  C   UNL     1      42.054 -13.364   5.720  1.00  0.00     0.032 A 
ENDBRANCH  16  19
ENDBRANCH   7  15
BRANCH   1  27
HETATM   27  O   UNL     1      40.926  -5.756  13.442  1.00  0.00    -0.356 OA
HETATM   28  C   UNL     1      41.350  -5.368  14.743  1.00  0.00     0.210 C 
ENDBRANCH   1  27
TORSDOF 3
ENDMDL
MODEL 9
REMARK VINA RESULT:      -8.1      5.041     10.670
REMARK  3 active torsions:
REMARK  status: ('A' for Active; 'I' for Inactive)
REMARK    1  A    between atoms: O_2  and  C_3 
REMARK    2  A    between atoms: C_9  and  C_10 
REMARK       I    between atoms: C_10  and  N_11 
REMARK    3  A    between atoms: N_11  and  C_12 
ROOT
HETATM    1  C   UNL     1      42.323  -7.210  14.508  1.00  0.00     0.068 A 
HETATM    2  C   UNL     1      42.441  -8.571  14.209  1.00  0.00     0.044 A 
HETATM    3  C   UNL     1      42.718  -8.996  12.902  1.00  0.00    -0.043 A 
HETATM    4  C   UNL     1      42.849  -8.034  11.876  1.00  0.00    -0.001 A 
HETATM    5  C   UNL     1      43.150  -8.543  10.548  1.00  0.00     0.069 A 
HETATM    6  C   UNL     1      43.519  -9.842  10.278  1.00  0.00     0.007 A 
HETATM    7  C   UNL     1      43.746  -9.893   8.881  1.00  0.00     0.153 A 
HETATM    8  N   UNL     1      43.496  -8.688   8.312  1.00  0.00    -0.168 NA
HETATM    9  N   UNL     1      43.138  -7.901   9.349  1.00  0.00    -0.276 N 
HETATM   10  H   UNL     1      42.898  -6.934   9.159  1.00  0.00     0.189 HD
HETATM   11  C   UNL     1      43.661 -10.852  11.362  1.00  0.00     0.048 C 
HETATM   12  C   UNL     1      42.778 -10.486  12.580  1.00  0.00     0.044 C 
HETATM   13  C   UNL     1      42.725  -6.677  12.173  1.00  0.00     0.017 A 
HETATM   14  C   UNL     1      42.464  -6.267  13.487  1.00  0.00     0.037 A 
ENDROOT
BRANCH   7  15
HETATM   15  C   UNL     1      44.210 -11.040   8.074  1.00  0.00     0.277 C 
HETATM   16  N   UNL     1      43.148 -11.727   7.516  1.00  0.00    -0.322 N 
HETATM   17  H   UNL     1      42.245 -11.329   7.770  1.00  0.00     0.169 HD
HETATM   18  O   UNL     1      45.399 -11.305   7.942  1.00  0.00    -0.266 OA
BRANCH  16  19
HETATM   19  C   UNL     1      43.174 -12.841   6.662  1.00  0.00     0.036 A 
HETATM   20  C   UNL     1      43.534 -14.128   7.071  1.00  0.00     0.056 A 
HETATM   21  C   UNL     1      43.542 -15.179   6.149  1.00  0.00     0.074 A 
HETATM   22 CL   UNL     1      43.994 -16.759   6.669  1.00  0.00    -0.081 Cl
HETATM   23  C   UNL     1      43.190 -14.948   4.823  1.00  0.00     0.138 A 
HETATM   24  F   UNL     1      43.195 -15.944   3.924  1.00  0.00    -0.204 F 
HETATM   25  C   UNL     1      42.828 -13.674   4.403  1.00  0.00     0.046 A 
HETATM   26  C   UNL     1      42.820 -12.622   5.322  1.00  0.00     0.032 A 
ENDBRANCH  16  19
ENDBRANCH   7  15
BRANCH   1  27
HETATM   27  O   UNL     1      42.065  -6.937  15.823  1.00  0.00    -0.356 OA
HETATM   28  C   UNL     1      41.465  -5.681  16.115  1.00  0.00     0.210 C 
ENDBRANCH   1  27
TORSDOF 3
ENDMDL
MODEL 10
REMARK VINA RESULT:      -7.8      5.293      9.614
REMARK  3 active torsions:
REMARK  status: ('A' for Active; 'I' for Inactive)
REMARK    1  A    between atoms: O_2  and  C_3 
REMARK    2  A    between atoms: C_9  and  C_10 
REMARK       I    between atoms: C_10  and  N_11 
REMARK    3  A    between atoms: N_11  and  C_12 
ROOT
HETATM    1  C   UNL     1      40.214  -8.359   6.211  1.00  0.00     0.068 A 
HETATM    2  C   UNL     1      39.681  -9.622   6.485  1.00  0.00     0.044 A 
HETATM    3  C   UNL     1      40.063 -10.740   5.730  1.00  0.00    -0.043 A 
HETATM    4  C   UNL     1      40.975 -10.574   4.663  1.00  0.00    -0.001 A 
HETATM    5  C   UNL     1      41.339 -11.775   3.931  1.00  0.00     0.069 A 
HETATM    6  C   UNL     1      41.031 -13.056   4.335  1.00  0.00     0.007 A 
HETATM    7  C   UNL     1      41.596 -13.912   3.359  1.00  0.00     0.153 A 
HETATM    8  N   UNL     1      42.196 -13.190   2.380  1.00  0.00    -0.168 NA
HETATM    9  N   UNL     1      42.019 -11.906   2.761  1.00  0.00    -0.276 N 
HETATM   10  H   UNL     1      42.390 -11.173   2.167  1.00  0.00     0.189 HD
HETATM   11  C   UNL     1      40.296 -13.316   5.603  1.00  0.00     0.048 C 
HETATM   12  C   UNL     1      39.425 -12.099   5.998  1.00  0.00     0.044 C 
HETATM   13  C   UNL     1      41.501  -9.312   4.386  1.00  0.00     0.017 A 
HETATM   14  C   UNL     1      41.121  -8.208   5.161  1.00  0.00     0.037 A 
ENDROOT
BRANCH   7  15
HETATM   15  C   UNL     1      41.602 -15.388   3.335  1.00  0.00     0.277 C 
HETATM   16  N   UNL     1      42.851 -15.894   3.643  1.00  0.00    -0.322 N 
HETATM   17  H   UNL     1      43.539 -15.163   3.814  1.00  0.00     0.169 HD
HETATM   18  O   UNL     1      40.596 -16.039   3.077  1.00  0.00    -0.266 OA
BRANCH  16  19
HETATM   19  C   UNL     1      43.252 -17.234   3.760  1.00  0.00     0.036 A 
HETATM   20  C   UNL     1      43.291 -18.133   2.691  1.00  0.00     0.056 A 
HETATM   21  C   UNL     1      43.694 -19.455   2.901  1.00  0.00     0.074 A 
HETATM   22 CL   UNL     1      43.732 -20.552   1.572  1.00  0.00    -0.081 Cl
HETATM   23  C   UNL     1      44.059 -19.880   4.175  1.00  0.00     0.138 A 
HETATM   24  F   UNL     1      44.446 -21.145   4.396  1.00  0.00    -0.204 F 
HETATM   25  C   UNL     1      44.027 -18.996   5.247  1.00  0.00     0.046 A 
HETATM   26  C   UNL     1      43.624 -17.675   5.039  1.00  0.00     0.032 A 
ENDBRANCH  16  19
ENDBRANCH   7  15
BRANCH   1  27
HETATM   27  O   UNL     1      39.764  -7.362   7.033  1.00  0.00    -0.356 OA
HETATM   28  C   UNL     1      39.527  -7.706   8.393  1.00  0.00     0.210 C 
ENDBRANCH   1  27
TORSDOF 3
ENDMDL
