MODEL 1
REMARK VINA RESULT:      -8.4      0.000      0.000
REMARK  4 active torsions:
REMARK  status: ('A' for Active; 'I' for Inactive)
REMARK    1  A    between atoms: O_2  and  C_3 
REMARK    2  A    between atoms: C_5  and  O_6 
REMARK    3  A    between atoms: C_8  and  C_9 
REMARK    4  A    between atoms: C_20  and  N_21 
ROOT
HETATM    1  C   UNL     1      42.935 -14.395   5.656  1.00  0.00    -0.022 A 
HETATM    2  C   UNL     1      43.942 -13.546   6.137  1.00  0.00     0.031 A 
HETATM    3  C   UNL     1      43.668 -12.225   6.546  1.00  0.00     0.059 A 
HETATM    4  C   UNL     1      42.354 -11.738   6.489  1.00  0.00     0.050 A 
HETATM    5  N   UNL     1      41.892 -10.501   6.986  1.00  0.00    -0.324 N 
HETATM    6  C   UNL     1      42.376  -9.788   8.043  1.00  0.00     0.247 C 
HETATM    7  O   UNL     1      41.684  -8.901   8.551  1.00  0.00    -0.271 OA
HETATM    8  C   UNL     1      43.641 -10.255   8.737  1.00  0.00     0.210 C 
HETATM    9  N   UNL     1      44.737 -10.396   7.805  1.00  0.00    -0.332 N 
HETATM   10  C   UNL     1      44.856 -11.395   6.870  1.00  0.00     0.256 C 
HETATM   11  O   UNL     1      45.921 -11.617   6.301  1.00  0.00    -0.267 OA
HETATM   12  C   UNL     1      44.129  -9.187   9.740  1.00  0.00     0.217 C 
HETATM   13  C   UNL     1      45.649  -9.229   9.614  1.00  0.00     0.055 C 
HETATM   14  C   UNL     1      45.848  -9.521   8.136  1.00  0.00     0.129 C 
HETATM   15  C   UNL     1      41.365 -12.549   5.916  1.00  0.00     0.031 A 
HETATM   16  C   UNL     1      41.651 -13.856   5.513  1.00  0.00     0.014 A 
HETATM   17  H   UNL     1      40.957 -10.211   6.710  1.00  0.00     0.169 HD
ENDROOT
BRANCH   1  18
HETATM   18  C   UNL     1      43.216 -15.803   5.307  1.00  0.00     0.008 A 
HETATM   19  C   UNL     1      43.419 -16.222   3.971  1.00  0.00     0.082 A 
HETATM   20  C   UNL     1      43.679 -17.569   3.692  1.00  0.00     0.074 A 
HETATM   21  C   UNL     1      43.763 -18.515   4.718  1.00  0.00     0.070 A 
HETATM   22  C   UNL     1      43.560 -18.115   6.034  1.00  0.00     0.038 A 
HETATM   23  C   UNL     1      43.290 -16.774   6.323  1.00  0.00     0.018 A 
BRANCH  19  24
HETATM   24  O   UNL     1      43.303 -15.257   2.998  1.00  0.00    -0.355 OA
HETATM   25  C   UNL     1      43.359 -15.696   1.645  1.00  0.00     0.210 C 
ENDBRANCH  19  24
BRANCH  21  26
HETATM   26  O   UNL     1      44.033 -19.788   4.296  1.00  0.00    -0.356 OA
HETATM   27  C   UNL     1      44.247 -20.766   5.306  1.00  0.00     0.210 C 
ENDBRANCH  21  26
ENDBRANCH   1  18
BRANCH  12  28
HETATM   28  N   UNL     1      43.728  -9.489  11.144  1.00  0.00    -0.072 N 
HETATM   29  H   UNL     1      44.296 -10.263  11.523  1.00  0.00     0.274 HD
HETATM   30  H   UNL     1      43.826  -8.683  11.777  1.00  0.00     0.274 HD
HETATM   31  H   UNL     1      42.747  -9.799  11.193  1.00  0.00     0.274 HD
ENDBRANCH  12  28
TORSDOF 4
ENDMDL
MODEL 2
REMARK VINA RESULT:      -8.2      1.221      1.988
REMARK  4 active torsions:
REMARK  status: ('A' for Active; 'I' for Inactive)
REMARK    1  A    between atoms: O_2  and  C_3 
REMARK    2  A    between atoms: C_5  and  O_6 
REMARK    3  A    between atoms: C_8  and  C_9 
REMARK    4  A    between atoms: C_20  and  N_21 
ROOT
HETATM    1  C   UNL     1      42.600 -13.597   4.918  1.00  0.00    -0.022 A 
HETATM    2  C   UNL     1      43.660 -12.942   5.561  1.00  0.00     0.031 A 
HETATM    3  C   UNL     1      43.465 -11.752   6.290  1.00  0.00     0.059 A 
HETATM    4  C   UNL     1      42.178 -11.204   6.396  1.00  0.00     0.050 A 
HETATM    5  N   UNL     1      41.792 -10.108   7.196  1.00  0.00    -0.324 N 
HETATM    6  C   UNL     1      42.333  -9.702   8.380  1.00  0.00     0.247 C 
HETATM    7  O   UNL     1      41.699  -8.936   9.113  1.00  0.00    -0.271 OA
HETATM    8  C   UNL     1      43.584 -10.386   8.898  1.00  0.00     0.210 C 
HETATM    9  N   UNL     1      44.653 -10.344   7.927  1.00  0.00    -0.332 N 
HETATM   10  C   UNL     1      44.701 -11.085   6.771  1.00  0.00     0.256 C 
HETATM   11  O   UNL     1      45.743 -11.209   6.133  1.00  0.00    -0.267 OA
HETATM   12  C   UNL     1      44.146  -9.623  10.117  1.00  0.00     0.217 C 
HETATM   13  C   UNL     1      45.660  -9.705   9.938  1.00  0.00     0.055 C 
HETATM   14  C   UNL     1      45.816  -9.631   8.428  1.00  0.00     0.129 C 
HETATM   15  C   UNL     1      41.137 -11.800   5.672  1.00  0.00     0.031 A 
HETATM   16  C   UNL     1      41.345 -12.980   4.951  1.00  0.00     0.014 A 
HETATM   17  H   UNL     1      40.869  -9.715   7.029  1.00  0.00     0.169 HD
ENDROOT
BRANCH   1  18
HETATM   18  C   UNL     1      42.800 -14.887   4.224  1.00  0.00     0.008 A 
HETATM   19  C   UNL     1      42.784 -16.123   4.913  1.00  0.00     0.082 A 
HETATM   20  C   UNL     1      42.983 -17.317   4.210  1.00  0.00     0.074 A 
HETATM   21  C   UNL     1      43.178 -17.316   2.826  1.00  0.00     0.070 A 
HETATM   22  C   UNL     1      43.201 -16.106   2.140  1.00  0.00     0.038 A 
HETATM   23  C   UNL     1      43.013 -14.907   2.834  1.00  0.00     0.018 A 
BRANCH  19  24
HETATM   24  O   UNL     1      42.611 -16.067   6.276  1.00  0.00    -0.355 OA
HETATM   25  C   UNL     1      43.632 -16.648   7.079  1.00  0.00     0.210 C 
ENDBRANCH  19  24
BRANCH  21  26
HETATM   26  O   UNL     1      43.347 -18.557   2.275  1.00  0.00    -0.356 OA
HETATM   27  C   UNL     1      43.949 -19.548   3.099  1.00  0.00     0.210 C 
ENDBRANCH  21  26
ENDBRANCH   1  18
BRANCH  12  28
HETATM   28  N   UNL     1      43.755 -10.243  11.416  1.00  0.00    -0.072 N 
HETATM   29  H   UNL     1      44.230  -9.767  12.200  1.00  0.00     0.274 HD
HETATM   30  H   UNL     1      42.742 -10.212  11.592  1.00  0.00     0.274 HD
HETATM   31  H   UNL     1      44.044 -11.231  11.459  1.00  0.00     0.274 HD
ENDBRANCH  12  28
TORSDOF 4
ENDMDL
MODEL 3
REMARK VINA RESULT:      -8.2      5.016      7.657
REMARK  4 active torsions:
REMARK  status: ('A' for Active; 'I' for Inactive)
REMARK    1  A    between atoms: O_2  and  C_3 
REMARK    2  A    between atoms: C_5  and  O_6 
REMARK    3  A    between atoms: C_8  and  C_9 
REMARK    4  A    between atoms: C_20  and  N_21 
ROOT
HETATM    1  C   UNL     1      42.544 -15.611   2.801  1.00  0.00    -0.022 A 
HETATM    2  C   UNL     1      41.631 -15.658   1.739  1.00  0.00     0.031 A 
HETATM    3  C   UNL     1      41.100 -14.487   1.162  1.00  0.00     0.059 A 
HETATM    4  C   UNL     1      41.500 -13.231   1.645  1.00  0.00     0.050 A 
HETATM    5  N   UNL     1      41.176 -11.974   1.094  1.00  0.00    -0.324 N 
HETATM    6  C   UNL     1      40.926 -11.670  -0.213  1.00  0.00     0.247 C 
HETATM    7  O   UNL     1      40.972 -10.495  -0.587  1.00  0.00    -0.271 OA
HETATM    8  C   UNL     1      40.846 -12.789  -1.233  1.00  0.00     0.210 C 
HETATM    9  N   UNL     1      39.868 -13.784  -0.853  1.00  0.00    -0.332 N 
HETATM   10  C   UNL     1      40.021 -14.695   0.164  1.00  0.00     0.256 C 
HETATM   11  O   UNL     1      39.288 -15.675   0.262  1.00  0.00    -0.267 OA
HETATM   12  C   UNL     1      40.331 -12.247  -2.584  1.00  0.00     0.217 C 
HETATM   13  C   UNL     1      39.430 -13.360  -3.110  1.00  0.00     0.055 C 
HETATM   14  C   UNL     1      38.806 -13.907  -1.836  1.00  0.00     0.129 C 
HETATM   15  C   UNL     1      42.334 -13.183   2.771  1.00  0.00     0.031 A 
HETATM   16  C   UNL     1      42.851 -14.353   3.333  1.00  0.00     0.014 A 
HETATM   17  H   UNL     1      41.386 -11.154   1.656  1.00  0.00     0.169 HD
ENDROOT
BRANCH   1  18
HETATM   18  C   UNL     1      43.156 -16.841   3.345  1.00  0.00     0.008 A 
HETATM   19  C   UNL     1      43.371 -17.026   4.731  1.00  0.00     0.082 A 
HETATM   20  C   UNL     1      43.960 -18.210   5.196  1.00  0.00     0.074 A 
HETATM   21  C   UNL     1      44.324 -19.229   4.312  1.00  0.00     0.070 A 
HETATM   22  C   UNL     1      44.121 -19.055   2.947  1.00  0.00     0.038 A 
HETATM   23  C   UNL     1      43.544 -17.874   2.472  1.00  0.00     0.018 A 
BRANCH  19  24
HETATM   24  O   UNL     1      43.017 -15.984   5.556  1.00  0.00    -0.355 OA
HETATM   25  C   UNL     1      42.117 -16.280   6.618  1.00  0.00     0.210 C 
ENDBRANCH  19  24
BRANCH  21  26
HETATM   26  O   UNL     1      44.876 -20.329   4.910  1.00  0.00    -0.356 OA
HETATM   27  C   UNL     1      43.981 -21.220   5.566  1.00  0.00     0.210 C 
ENDBRANCH  21  26
ENDBRANCH   1  18
BRANCH  12  28
HETATM   28  N   UNL     1      41.432 -11.984  -3.556  1.00  0.00    -0.072 N 
HETATM   29  H   UNL     1      41.487 -10.976  -3.774  1.00  0.00     0.274 HD
HETATM   30  H   UNL     1      42.354 -12.287  -3.216  1.00  0.00     0.274 HD
HETATM   31  H   UNL     1      41.261 -12.465  -4.451  1.00  0.00     0.274 HD
ENDBRANCH  12  28
TORSDOF 4
ENDMDL
MODEL 4
REMARK VINA RESULT:      -8.0      4.393      5.278
REMARK  4 active torsions:
REMARK  status: ('A' for Active; 'I' for Inactive)
REMARK    1  A    between atoms: O_2  and  C_3 
REMARK    2  A    between atoms: C_5  and  O_6 
REMARK    3  A    between atoms: C_8  and  C_9 
REMARK    4  A    between atoms: C_20  and  N_21 
ROOT
HETATM    1  C   UNL     1      41.698 -15.710   2.727  1.00  0.00    -0.022 A 
HETATM    2  C   UNL     1      41.977 -14.367   3.015  1.00  0.00     0.031 A 
HETATM    3  C   UNL     1      41.145 -13.322   2.566  1.00  0.00     0.059 A 
HETATM    4  C   UNL     1      39.994 -13.621   1.821  1.00  0.00     0.050 A 
HETATM    5  N   UNL     1      38.991 -12.713   1.420  1.00  0.00    -0.324 N 
HETATM    6  C   UNL     1      38.589 -11.573   2.053  1.00  0.00     0.247 C 
HETATM    7  O   UNL     1      37.504 -11.061   1.761  1.00  0.00    -0.271 OA
HETATM    8  C   UNL     1      39.352 -11.093   3.272  1.00  0.00     0.210 C 
HETATM    9  N   UNL     1      40.758 -10.924   2.986  1.00  0.00    -0.332 N 
HETATM   10  C   UNL     1      41.656 -11.948   2.802  1.00  0.00     0.256 C 
HETATM   11  O   UNL     1      42.868 -11.751   2.833  1.00  0.00    -0.267 OA
HETATM   12  C   UNL     1      38.875  -9.682   3.681  1.00  0.00     0.217 C 
HETATM   13  C   UNL     1      40.152  -8.974   4.124  1.00  0.00     0.055 C 
HETATM   14  C   UNL     1      41.193  -9.551   3.178  1.00  0.00     0.129 C 
HETATM   15  C   UNL     1      39.768 -14.952   1.447  1.00  0.00     0.031 A 
HETATM   16  C   UNL     1      40.602 -15.978   1.898  1.00  0.00     0.014 A 
HETATM   17  H   UNL     1      38.316 -13.042   0.734  1.00  0.00     0.169 HD
ENDROOT
BRANCH   1  18
HETATM   18  C   UNL     1      42.531 -16.803   3.270  1.00  0.00     0.008 A 
HETATM   19  C   UNL     1      42.607 -17.075   4.657  1.00  0.00     0.082 A 
HETATM   20  C   UNL     1      43.415 -18.120   5.121  1.00  0.00     0.074 A 
HETATM   21  C   UNL     1      44.139 -18.921   4.234  1.00  0.00     0.070 A 
HETATM   22  C   UNL     1      44.076 -18.659   2.870  1.00  0.00     0.038 A 
HETATM   23  C   UNL     1      43.281 -17.612   2.395  1.00  0.00     0.018 A 
BRANCH  19  24
HETATM   24  O   UNL     1      41.893 -16.244   5.488  1.00  0.00    -0.355 OA
HETATM   25  C   UNL     1      42.189 -16.314   6.879  1.00  0.00     0.210 C 
ENDBRANCH  19  24
BRANCH  21  26
HETATM   26  O   UNL     1      44.874 -19.908   4.831  1.00  0.00    -0.356 OA
HETATM   27  C   UNL     1      44.151 -20.906   5.541  1.00  0.00     0.210 C 
ENDBRANCH  21  26
ENDBRANCH   1  18
BRANCH  12  28
HETATM   28  N   UNL     1      37.894  -9.708   4.804  1.00  0.00    -0.072 N 
HETATM   29  H   UNL     1      37.963 -10.598   5.321  1.00  0.00     0.274 HD
HETATM   30  H   UNL     1      38.025  -8.939   5.475  1.00  0.00     0.274 HD
HETATM   31  H   UNL     1      36.927  -9.648   4.455  1.00  0.00     0.274 HD
ENDBRANCH  12  28
TORSDOF 4
ENDMDL
MODEL 5
REMARK VINA RESULT:      -7.6      4.297      9.534
REMARK  4 active torsions:
REMARK  status: ('A' for Active; 'I' for Inactive)
REMARK    1  A    between atoms: O_2  and  C_3 
REMARK    2  A    between atoms: C_5  and  O_6 
REMARK    3  A    between atoms: C_8  and  C_9 
REMARK    4  A    between atoms: C_20  and  N_21 
ROOT
HETATM    1  C   UNL     1      43.351  -8.951  11.392  1.00  0.00    -0.022 A 
HETATM    2  C   UNL     1      42.601  -8.716  10.231  1.00  0.00     0.031 A 
HETATM    3  C   UNL     1      43.033  -9.162   8.965  1.00  0.00     0.059 A 
HETATM    4  C   UNL     1      44.236  -9.874   8.852  1.00  0.00     0.050 A 
HETATM    5  N   UNL     1      44.736 -10.505   7.693  1.00  0.00    -0.324 N 
HETATM    6  C   UNL     1      44.027 -11.049   6.662  1.00  0.00     0.247 C 
HETATM    7  O   UNL     1      44.579 -11.836   5.888  1.00  0.00    -0.271 OA
HETATM    8  C   UNL     1      42.521 -10.880   6.626  1.00  0.00     0.210 C 
HETATM    9  N   UNL     1      42.141  -9.487   6.690  1.00  0.00    -0.332 N 
HETATM   10  C   UNL     1      42.224  -8.696   7.811  1.00  0.00     0.256 C 
HETATM   11  O   UNL     1      41.642  -7.616   7.878  1.00  0.00    -0.267 OA
HETATM   12  C   UNL     1      41.958 -11.365   5.273  1.00  0.00     0.217 C 
HETATM   13  C   UNL     1      40.846 -10.370   4.956  1.00  0.00     0.055 C 
HETATM   14  C   UNL     1      41.402  -9.069   5.512  1.00  0.00     0.129 C 
HETATM   15  C   UNL     1      45.035 -10.022   9.993  1.00  0.00     0.031 A 
HETATM   16  C   UNL     1      44.596  -9.573  11.242  1.00  0.00     0.014 A 
HETATM   17  H   UNL     1      45.701 -10.823   7.719  1.00  0.00     0.169 HD
ENDROOT
BRANCH   1  18
HETATM   18  C   UNL     1      42.852  -8.551  12.724  1.00  0.00     0.008 A 
HETATM   19  C   UNL     1      41.794  -9.235  13.369  1.00  0.00     0.082 A 
HETATM   20  C   UNL     1      41.355  -8.813  14.630  1.00  0.00     0.074 A 
HETATM   21  C   UNL     1      41.958  -7.733  15.280  1.00  0.00     0.070 A 
HETATM   22  C   UNL     1      42.995  -7.051  14.654  1.00  0.00     0.038 A 
HETATM   23  C   UNL     1      43.435  -7.457  13.390  1.00  0.00     0.018 A 
BRANCH  19  24
HETATM   24  O   UNL     1      41.219 -10.275  12.677  1.00  0.00    -0.355 OA
HETATM   25  C   UNL     1      39.810 -10.432  12.802  1.00  0.00     0.210 C 
ENDBRANCH  19  24
BRANCH  21  26
HETATM   26  O   UNL     1      41.431  -7.444  16.509  1.00  0.00    -0.356 OA
HETATM   27  C   UNL     1      41.753  -6.174  17.062  1.00  0.00     0.210 C 
ENDBRANCH  21  26
ENDBRANCH   1  18
BRANCH  12  28
HETATM   28  N   UNL     1      41.398 -12.746   5.343  1.00  0.00    -0.072 N 
HETATM   29  H   UNL     1      41.579 -13.253   4.462  1.00  0.00     0.274 HD
HETATM   30  H   UNL     1      41.786 -13.303   6.116  1.00  0.00     0.274 HD
HETATM   31  H   UNL     1      40.375 -12.727   5.462  1.00  0.00     0.274 HD
ENDBRANCH  12  28
TORSDOF 4
ENDMDL
MODEL 6
REMARK VINA RESULT:      -7.4      3.122      3.827
REMARK  4 active torsions:
REMARK  status: ('A' for Active; 'I' for Inactive)
REMARK    1  A    between atoms: O_2  and  C_3 
REMARK    2  A    between atoms: C_5  and  O_6 
REMARK    3  A    between atoms: C_8  and  C_9 
REMARK    4  A    between atoms: C_20  and  N_21 
ROOT
HETATM    1  C   UNL     1      41.462 -15.098   4.717  1.00  0.00    -0.022 A 
HETATM    2  C   UNL     1      41.478 -13.825   4.128  1.00  0.00     0.031 A 
HETATM    3  C   UNL     1      40.816 -12.727   4.714  1.00  0.00     0.059 A 
HETATM    4  C   UNL     1      40.130 -12.895   5.927  1.00  0.00     0.050 A 
HETATM    5  N   UNL     1      39.540 -11.879   6.708  1.00  0.00    -0.324 N 
HETATM    6  C   UNL     1      39.925 -10.575   6.817  1.00  0.00     0.247 C 
HETATM    7  O   UNL     1      39.521  -9.895   7.765  1.00  0.00    -0.271 OA
HETATM    8  C   UNL     1      41.033 -10.050   5.925  1.00  0.00     0.210 C 
HETATM    9  N   UNL     1      40.739 -10.271   4.527  1.00  0.00    -0.332 N 
HETATM   10  C   UNL     1      40.778 -11.490   3.894  1.00  0.00     0.256 C 
HETATM   11  O   UNL     1      40.786 -11.576   2.670  1.00  0.00    -0.267 OA
HETATM   12  C   UNL     1      41.143  -8.515   6.053  1.00  0.00     0.217 C 
HETATM   13  C   UNL     1      41.453  -8.047   4.634  1.00  0.00     0.055 C 
HETATM   14  C   UNL     1      40.657  -9.025   3.784  1.00  0.00     0.129 C 
HETATM   15  C   UNL     1      40.028 -14.185   6.463  1.00  0.00     0.031 A 
HETATM   16  C   UNL     1      40.689 -15.265   5.871  1.00  0.00     0.014 A 
HETATM   17  H   UNL     1      38.925 -12.173   7.462  1.00  0.00     0.169 HD
ENDROOT
BRANCH   1  18
HETATM   18  C   UNL     1      42.226 -16.223   4.139  1.00  0.00     0.008 A 
HETATM   19  C   UNL     1      43.358 -16.775   4.783  1.00  0.00     0.082 A 
HETATM   20  C   UNL     1      44.051 -17.838   4.190  1.00  0.00     0.074 A 
HETATM   21  C   UNL     1      43.631 -18.384   2.974  1.00  0.00     0.070 A 
HETATM   22  C   UNL     1      42.523 -17.846   2.330  1.00  0.00     0.038 A 
HETATM   23  C   UNL     1      41.830 -16.777   2.907  1.00  0.00     0.018 A 
BRANCH  19  24
HETATM   24  O   UNL     1      43.743 -16.187   5.965  1.00  0.00    -0.355 OA
HETATM   25  C   UNL     1      43.750 -17.014   7.124  1.00  0.00     0.210 C 
ENDBRANCH  19  24
BRANCH  21  26
HETATM   26  O   UNL     1      44.398 -19.424   2.524  1.00  0.00    -0.356 OA
HETATM   27  C   UNL     1      43.711 -20.510   1.914  1.00  0.00     0.210 C 
ENDBRANCH  21  26
ENDBRANCH   1  18
BRANCH  12  28
HETATM   28  N   UNL     1      42.234  -8.090   6.976  1.00  0.00    -0.072 N 
HETATM   29  H   UNL     1      42.170  -8.603   7.869  1.00  0.00     0.274 HD
HETATM   30  H   UNL     1      43.175  -8.241   6.589  1.00  0.00     0.274 HD
HETATM   31  H   UNL     1      42.155  -7.090   7.210  1.00  0.00     0.274 HD
ENDBRANCH  12  28
TORSDOF 4
ENDMDL
MODEL 7
REMARK VINA RESULT:      -7.3     17.366     21.411
REMARK  4 active torsions:
REMARK  status: ('A' for Active; 'I' for Inactive)
REMARK    1  A    between atoms: O_2  and  C_3 
REMARK    2  A    between atoms: C_5  and  O_6 
REMARK    3  A    between atoms: C_8  and  C_9 
REMARK    4  A    between atoms: C_20  and  N_21 
ROOT
HETATM    1  C   UNL     1      45.454 -29.608  -2.659  1.00  0.00    -0.022 A 
HETATM    2  C   UNL     1      45.797 -30.870  -3.165  1.00  0.00     0.031 A 
HETATM    3  C   UNL     1      45.315 -31.328  -4.408  1.00  0.00     0.059 A 
HETATM    4  C   UNL     1      44.481 -30.503  -5.177  1.00  0.00     0.050 A 
HETATM    5  N   UNL     1      44.031 -30.751  -6.491  1.00  0.00    -0.324 N 
HETATM    6  C   UNL     1      44.662 -31.454  -7.475  1.00  0.00     0.247 C 
HETATM    7  O   UNL     1      44.305 -31.318  -8.649  1.00  0.00    -0.271 OA
HETATM    8  C   UNL     1      45.945 -32.194  -7.153  1.00  0.00     0.210 C 
HETATM    9  N   UNL     1      45.767 -33.110  -6.049  1.00  0.00    -0.332 N 
HETATM   10  C   UNL     1      45.623 -32.744  -4.733  1.00  0.00     0.256 C 
HETATM   11  O   UNL     1      45.747 -33.559  -3.823  1.00  0.00    -0.267 OA
HETATM   12  C   UNL     1      46.355 -33.099  -8.335  1.00  0.00     0.217 C 
HETATM   13  C   UNL     1      46.908 -34.354  -7.667  1.00  0.00     0.055 C 
HETATM   14  C   UNL     1      46.026 -34.486  -6.436  1.00  0.00     0.129 C 
HETATM   15  C   UNL     1      44.057 -29.285  -4.629  1.00  0.00     0.031 A 
HETATM   16  C   UNL     1      44.541 -28.844  -3.395  1.00  0.00     0.014 A 
HETATM   17  H   UNL     1      43.290 -30.153  -6.847  1.00  0.00     0.169 HD
ENDROOT
BRANCH   1  18
HETATM   18  C   UNL     1      46.028 -29.104  -1.394  1.00  0.00     0.008 A 
HETATM   19  C   UNL     1      45.399 -29.314  -0.144  1.00  0.00     0.082 A 
HETATM   20  C   UNL     1      45.982 -28.812   1.026  1.00  0.00     0.074 A 
HETATM   21  C   UNL     1      47.195 -28.119   0.987  1.00  0.00     0.070 A 
HETATM   22  C   UNL     1      47.820 -27.902  -0.237  1.00  0.00     0.038 A 
HETATM   23  C   UNL     1      47.241 -28.390  -1.412  1.00  0.00     0.018 A 
BRANCH  19  24
HETATM   24  O   UNL     1      44.197 -29.982  -0.163  1.00  0.00    -0.355 OA
HETATM   25  C   UNL     1      43.114 -29.379   0.537  1.00  0.00     0.210 C 
ENDBRANCH  19  24
BRANCH  21  26
HETATM   26  O   UNL     1      47.648 -27.698   2.207  1.00  0.00    -0.356 OA
HETATM   27  C   UNL     1      48.263 -28.678   3.036  1.00  0.00     0.210 C 
ENDBRANCH  21  26
ENDBRANCH   1  18
BRANCH  12  28
HETATM   28  N   UNL     1      47.402 -32.480  -9.199  1.00  0.00    -0.072 N 
HETATM   29  H   UNL     1      47.209 -31.475  -9.335  1.00  0.00     0.274 HD
HETATM   30  H   UNL     1      48.352 -32.572  -8.813  1.00  0.00     0.274 HD
HETATM   31  H   UNL     1      47.409 -32.904 -10.137  1.00  0.00     0.274 HD
ENDBRANCH  12  28
TORSDOF 4
ENDMDL
MODEL 8
REMARK VINA RESULT:      -7.2     17.310     21.156
REMARK  4 active torsions:
REMARK  status: ('A' for Active; 'I' for Inactive)
REMARK    1  A    between atoms: O_2  and  C_3 
REMARK    2  A    between atoms: C_5  and  O_6 
REMARK    3  A    between atoms: C_8  and  C_9 
REMARK    4  A    between atoms: C_20  and  N_21 
ROOT
HETATM    1  C   UNL     1      45.554 -29.332  -2.264  1.00  0.00    -0.022 A 
HETATM    2  C   UNL     1      45.205 -30.649  -2.596  1.00  0.00     0.031 A 
HETATM    3  C   UNL     1      44.688 -30.984  -3.863  1.00  0.00     0.059 A 
HETATM    4  C   UNL     1      44.527 -29.984  -4.835  1.00  0.00     0.050 A 
HETATM    5  N   UNL     1      44.160 -30.172  -6.184  1.00  0.00    -0.324 N 
HETATM    6  C   UNL     1      44.406 -31.254  -6.978  1.00  0.00     0.247 C 
HETATM    7  O   UNL     1      44.310 -31.148  -8.204  1.00  0.00    -0.271 OA
HETATM    8  C   UNL     1      45.035 -32.493  -6.370  1.00  0.00     0.210 C 
HETATM    9  N   UNL     1      44.269 -32.980  -5.246  1.00  0.00    -0.332 N 
HETATM   10  C   UNL     1      44.207 -32.381  -4.011  1.00  0.00     0.256 C 
HETATM   11  O   UNL     1      43.768 -32.975  -3.031  1.00  0.00    -0.267 OA
HETATM   12  C   UNL     1      45.009 -33.659  -7.382  1.00  0.00     0.217 C 
HETATM   13  C   UNL     1      44.713 -34.886  -6.525  1.00  0.00     0.055 C 
HETATM   14  C   UNL     1      43.775 -34.329  -5.467  1.00  0.00     0.129 C 
HETATM   15  C   UNL     1      44.780 -28.655  -4.473  1.00  0.00     0.031 A 
HETATM   16  C   UNL     1      45.290 -28.336  -3.212  1.00  0.00     0.014 A 
HETATM   17  H   UNL     1      43.907 -29.343  -6.715  1.00  0.00     0.169 HD
ENDROOT
BRANCH   1  18
HETATM   18  C   UNL     1      46.170 -29.004  -0.961  1.00  0.00     0.008 A 
HETATM   19  C   UNL     1      47.561 -28.786  -0.819  1.00  0.00     0.082 A 
HETATM   20  C   UNL     1      48.096 -28.482   0.439  1.00  0.00     0.074 A 
HETATM   21  C   UNL     1      47.275 -28.368   1.564  1.00  0.00     0.070 A 
HETATM   22  C   UNL     1      45.907 -28.586   1.437  1.00  0.00     0.038 A 
HETATM   23  C   UNL     1      45.363 -28.900   0.187  1.00  0.00     0.018 A 
BRANCH  19  24
HETATM   24  O   UNL     1      48.327 -28.932  -1.952  1.00  0.00    -0.355 OA
HETATM   25  C   UNL     1      49.347 -29.924  -1.917  1.00  0.00     0.210 C 
ENDBRANCH  19  24
BRANCH  21  26
HETATM   26  O   UNL     1      47.936 -28.056   2.720  1.00  0.00    -0.356 OA
HETATM   27  C   UNL     1      48.436 -29.144   3.487  1.00  0.00     0.210 C 
ENDBRANCH  21  26
ENDBRANCH   1  18
BRANCH  12  28
HETATM   28  N   UNL     1      46.310 -33.837  -8.090  1.00  0.00    -0.072 N 
HETATM   29  H   UNL     1      46.486 -34.837  -8.275  1.00  0.00     0.274 HD
HETATM   30  H   UNL     1      46.356 -33.335  -8.987  1.00  0.00     0.274 HD
HETATM   31  H   UNL     1      47.096 -33.506  -7.513  1.00  0.00     0.274 HD
ENDBRANCH  12  28
TORSDOF 4
ENDMDL
MODEL 9
REMARK VINA RESULT:      -7.1      4.922      7.455
REMARK  4 active torsions:
REMARK  status: ('A' for Active; 'I' for Inactive)
REMARK    1  A    between atoms: O_2  and  C_3 
REMARK    2  A    between atoms: C_5  and  O_6 
REMARK    3  A    between atoms: C_8  and  C_9 
REMARK    4  A    between atoms: C_20  and  N_21 
ROOT
HETATM    1  C   UNL     1      40.997 -14.950   2.411  1.00  0.00    -0.022 A 
HETATM    2  C   UNL     1      40.949 -14.590   1.057  1.00  0.00     0.031 A 
HETATM    3  C   UNL     1      40.133 -13.538   0.596  1.00  0.00     0.059 A 
HETATM    4  C   UNL     1      39.354 -12.811   1.510  1.00  0.00     0.050 A 
HETATM    5  N   UNL     1      38.599 -11.651   1.237  1.00  0.00    -0.324 N 
HETATM    6  C   UNL     1      38.845 -10.690   0.301  1.00  0.00     0.247 C 
HETATM    7  O   UNL     1      38.290  -9.591   0.391  1.00  0.00    -0.271 OA
HETATM    8  C   UNL     1      39.979 -10.889  -0.687  1.00  0.00     0.210 C 
HETATM    9  N   UNL     1      39.842 -12.134  -1.409  1.00  0.00    -0.332 N 
HETATM   10  C   UNL     1      40.056 -13.383  -0.879  1.00  0.00     0.256 C 
HETATM   11  O   UNL     1      40.189 -14.370  -1.597  1.00  0.00    -0.267 OA
HETATM   12  C   UNL     1      39.930  -9.805  -1.785  1.00  0.00     0.217 C 
HETATM   13  C   UNL     1      40.328 -10.549  -3.057  1.00  0.00     0.055 C 
HETATM   14  C   UNL     1      39.714 -11.922  -2.840  1.00  0.00     0.129 C 
HETATM   15  C   UNL     1      39.324 -13.233   2.845  1.00  0.00     0.031 A 
HETATM   16  C   UNL     1      40.137 -14.280   3.288  1.00  0.00     0.014 A 
HETATM   17  H   UNL     1      37.945 -11.345   1.953  1.00  0.00     0.169 HD
ENDROOT
BRANCH   1  18
HETATM   18  C   UNL     1      41.916 -16.001   2.895  1.00  0.00     0.008 A 
HETATM   19  C   UNL     1      42.475 -15.973   4.195  1.00  0.00     0.082 A 
HETATM   20  C   UNL     1      43.344 -16.992   4.604  1.00  0.00     0.074 A 
HETATM   21  C   UNL     1      43.659 -18.056   3.756  1.00  0.00     0.070 A 
HETATM   22  C   UNL     1      43.120 -18.091   2.474  1.00  0.00     0.038 A 
HETATM   23  C   UNL     1      42.259 -17.074   2.051  1.00  0.00     0.018 A 
BRANCH  19  24
HETATM   24  O   UNL     1      42.152 -14.893   4.982  1.00  0.00    -0.355 OA
HETATM   25  C   UNL     1      43.233 -14.160   5.546  1.00  0.00     0.210 C 
ENDBRANCH  19  24
BRANCH  21  26
HETATM   26  O   UNL     1      44.511 -18.981   4.296  1.00  0.00    -0.356 OA
HETATM   27  C   UNL     1      43.994 -19.796   5.340  1.00  0.00     0.210 C 
ENDBRANCH  21  26
ENDBRANCH   1  18
BRANCH  12  28
HETATM   28  N   UNL     1      40.883  -8.686  -1.533  1.00  0.00    -0.072 N 
HETATM   29  H   UNL     1      40.838  -8.390  -0.545  1.00  0.00     0.274 HD
HETATM   30  H   UNL     1      41.860  -8.928  -1.747  1.00  0.00     0.274 HD
HETATM   31  H   UNL     1      40.642  -7.858  -2.096  1.00  0.00     0.274 HD
ENDBRANCH  12  28
TORSDOF 4
ENDMDL
MODEL 10
REMARK VINA RESULT:      -7.0      3.906      8.370
REMARK  4 active torsions:
REMARK  status: ('A' for Active; 'I' for Inactive)
REMARK    1  A    between atoms: O_2  and  C_3 
REMARK    2  A    between atoms: C_5  and  O_6 
REMARK    3  A    between atoms: C_8  and  C_9 
REMARK    4  A    between atoms: C_20  and  N_21 
ROOT
HETATM    1  C   UNL     1      43.616 -10.276   7.689  1.00  0.00    -0.022 A 
HETATM    2  C   UNL     1      42.456 -10.303   6.902  1.00  0.00     0.031 A 
HETATM    3  C   UNL     1      42.438 -10.897   5.625  1.00  0.00     0.059 A 
HETATM    4  C   UNL     1      43.603 -11.496   5.121  1.00  0.00     0.050 A 
HETATM    5  N   UNL     1      43.716 -12.250   3.933  1.00  0.00    -0.324 N 
HETATM    6  C   UNL     1      42.761 -13.016   3.331  1.00  0.00     0.247 C 
HETATM    7  O   UNL     1      43.091 -13.857   2.490  1.00  0.00    -0.271 OA
HETATM    8  C   UNL     1      41.346 -13.004   3.877  1.00  0.00     0.210 C 
HETATM    9  N   UNL     1      40.812 -11.662   3.938  1.00  0.00    -0.332 N 
HETATM   10  C   UNL     1      41.192 -10.700   4.842  1.00  0.00     0.256 C 
HETATM   11  O   UNL     1      40.522  -9.686   5.019  1.00  0.00    -0.267 OA
HETATM   12  C   UNL     1      40.394 -13.749   2.917  1.00  0.00     0.217 C 
HETATM   13  C   UNL     1      39.107 -12.930   2.962  1.00  0.00     0.055 C 
HETATM   14  C   UNL     1      39.628 -11.510   3.111  1.00  0.00     0.129 C 
HETATM   15  C   UNL     1      44.786 -11.383   5.861  1.00  0.00     0.031 A 
HETATM   16  C   UNL     1      44.790 -10.789   7.126  1.00  0.00     0.014 A 
HETATM   17  H   UNL     1      44.655 -12.463   3.608  1.00  0.00     0.169 HD
ENDROOT
BRANCH   1  18
HETATM   18  C   UNL     1      43.603  -9.723   9.060  1.00  0.00     0.008 A 
HETATM   19  C   UNL     1      43.517  -8.333   9.310  1.00  0.00     0.082 A 
HETATM   20  C   UNL     1      43.514  -7.859  10.628  1.00  0.00     0.074 A 
HETATM   21  C   UNL     1      43.574  -8.739  11.712  1.00  0.00     0.070 A 
HETATM   22  C   UNL     1      43.664 -10.107  11.477  1.00  0.00     0.038 A 
HETATM   23  C   UNL     1      43.679 -10.591  10.165  1.00  0.00     0.018 A 
BRANCH  19  24
HETATM   24  O   UNL     1      43.484  -7.509   8.210  1.00  0.00    -0.355 OA
HETATM   25  C   UNL     1      42.287  -6.769   7.995  1.00  0.00     0.210 C 
ENDBRANCH  19  24
BRANCH  21  26
HETATM   26  O   UNL     1      43.551  -8.133  12.938  1.00  0.00    -0.356 OA
HETATM   27  C   UNL     1      42.345  -8.243  13.685  1.00  0.00     0.210 C 
ENDBRANCH  21  26
ENDBRANCH   1  18
BRANCH  12  28
HETATM   28  N   UNL     1      40.119 -15.150   3.350  1.00  0.00    -0.072 N 
HETATM   29  H   UNL     1      40.122 -15.215   4.380  1.00  0.00     0.274 HD
HETATM   30  H   UNL     1      39.217 -15.510   3.011  1.00  0.00     0.274 HD
HETATM   31  H   UNL     1      40.851 -15.793   3.016  1.00  0.00     0.274 HD
ENDBRANCH  12  28
TORSDOF 4
ENDMDL
