MODEL 1
REMARK VINA RESULT:      -8.2      0.000      0.000
REMARK  5 active torsions:
REMARK  status: ('A' for Active; 'I' for Inactive)
REMARK    1  A    between atoms: C_5  and  S_6 
REMARK    2  A    between atoms: S_6  and  C_7 
REMARK    3  A    between atoms: C_7  and  C_8 
REMARK       I    between atoms: C_8  and  N_9 
REMARK    4  A    between atoms: N_9  and  C_10 
REMARK    5  A    between atoms: C_12  and  C_13 
ROOT
HETATM    1  C   UNL     1      41.267 -14.297   4.578  1.00  0.00     0.231 C 
HETATM    2  N   UNL     1      40.448 -14.616   3.510  1.00  0.00    -0.327 N 
HETATM    3  O   UNL     1      41.699 -13.175   4.840  1.00  0.00    -0.272 OA
HETATM    4  H   UNL     1      40.240 -15.606   3.407  1.00  0.00     0.169 HD
ENDROOT
BRANCH   2   5
HETATM    5  C   UNL     1      39.961 -13.759   2.502  1.00  0.00     0.035 A 
HETATM    6  C   UNL     1      40.407 -13.781   1.177  1.00  0.00     0.042 A 
HETATM    7  C   UNL     1      39.877 -12.908   0.212  1.00  0.00    -0.021 A 
HETATM    8  C   UNL     1      38.886 -11.999   0.603  1.00  0.00     0.012 A 
HETATM    9  C   UNL     1      38.439 -11.961   1.925  1.00  0.00     0.003 A 
HETATM   10  C   UNL     1      38.975 -12.838   2.869  1.00  0.00     0.029 A 
BRANCH   7  11
HETATM   11  C   UNL     1      40.352 -12.970  -1.164  1.00  0.00     0.010 A 
HETATM   12  C   UNL     1      40.116 -13.929  -2.182  1.00  0.00     0.152 A 
HETATM   13  N   UNL     1      40.742 -13.638  -3.326  1.00  0.00    -0.187 NA
HETATM   14  N   UNL     1      41.389 -12.498  -3.047  1.00  0.00    -0.289 N 
HETATM   15  H   UNL     1      41.952 -12.076  -3.778  1.00  0.00     0.188 HD
HETATM   16  C   UNL     1      41.190 -12.056  -1.770  1.00  0.00     0.123 A 
ENDBRANCH   7  11
ENDBRANCH   2   5
BRANCH   1  17
HETATM   17  C   UNL     1      41.561 -15.449   5.529  1.00  0.00     0.182 C 
BRANCH  17  18
HETATM   18  S   UNL     1      43.341 -15.827   5.679  1.00  0.00    -0.121 SA
BRANCH  18  19
HETATM   19  C   UNL     1      43.429 -17.186   4.528  1.00  0.00     0.001 A 
HETATM   20  C   UNL     1      43.955 -18.412   4.937  1.00  0.00     0.019 A 
HETATM   21  C   UNL     1      44.044 -19.477   4.036  1.00  0.00     0.008 A 
HETATM   22  C   UNL     1      43.594 -19.333   2.719  1.00  0.00    -0.062 A 
HETATM   23  C   UNL     1      43.712 -20.459   1.734  1.00  0.00     0.048 C 
HETATM   24  C   UNL     1      43.057 -18.105   2.316  1.00  0.00     0.008 A 
HETATM   25  C   UNL     1      42.968 -17.041   3.216  1.00  0.00     0.019 A 
ENDBRANCH  18  19
ENDBRANCH  17  18
ENDBRANCH   1  17
TORSDOF 5
ENDMDL
MODEL 2
REMARK VINA RESULT:      -8.1      5.792      8.638
REMARK  5 active torsions:
REMARK  status: ('A' for Active; 'I' for Inactive)
REMARK    1  A    between atoms: C_5  and  S_6 
REMARK    2  A    between atoms: S_6  and  C_7 
REMARK    3  A    between atoms: C_7  and  C_8 
REMARK       I    between atoms: C_8  and  N_9 
REMARK    4  A    between atoms: N_9  and  C_10 
REMARK    5  A    between atoms: C_12  and  C_13 
ROOT
HETATM    1  C   UNL     1      43.253 -12.739   5.867  1.00  0.00     0.231 C 
HETATM    2  N   UNL     1      44.296 -12.668   6.772  1.00  0.00    -0.327 N 
HETATM    3  O   UNL     1      42.502 -11.813   5.564  1.00  0.00    -0.272 OA
HETATM    4  H   UNL     1      44.773 -13.547   6.952  1.00  0.00     0.169 HD
ENDROOT
BRANCH   2   5
HETATM    5  C   UNL     1      44.703 -11.560   7.543  1.00  0.00     0.035 A 
HETATM    6  C   UNL     1      44.072 -11.156   8.724  1.00  0.00     0.042 A 
HETATM    7  C   UNL     1      44.529 -10.047   9.456  1.00  0.00    -0.021 A 
HETATM    8  C   UNL     1      45.639  -9.339   8.978  1.00  0.00     0.012 A 
HETATM    9  C   UNL     1      46.272  -9.727   7.796  1.00  0.00     0.003 A 
HETATM   10  C   UNL     1      45.806 -10.832   7.083  1.00  0.00     0.029 A 
BRANCH   7  11
HETATM   11  C   UNL     1      43.858  -9.665  10.691  1.00  0.00     0.010 A 
HETATM   12  C   UNL     1      43.574  -8.385  11.232  1.00  0.00     0.152 A 
HETATM   13  N   UNL     1      42.941  -8.444  12.407  1.00  0.00    -0.187 NA
HETATM   14  N   UNL     1      42.823  -9.760  12.631  1.00  0.00    -0.289 N 
HETATM   15  H   UNL     1      42.369 -10.061  13.487  1.00  0.00     0.188 HD
HETATM   16  C   UNL     1      43.354 -10.533  11.638  1.00  0.00     0.123 A 
ENDBRANCH   7  11
ENDBRANCH   2   5
BRANCH   1  17
HETATM   17  C   UNL     1      43.117 -14.075   5.148  1.00  0.00     0.182 C 
BRANCH  17  18
HETATM   18  S   UNL     1      43.575 -15.505   6.187  1.00  0.00    -0.121 SA
BRANCH  18  19
HETATM   19  C   UNL     1      43.585 -16.765   4.925  1.00  0.00     0.001 A 
HETATM   20  C   UNL     1      42.872 -16.571   3.741  1.00  0.00     0.019 A 
HETATM   21  C   UNL     1      42.860 -17.562   2.755  1.00  0.00     0.008 A 
HETATM   22  C   UNL     1      43.574 -18.752   2.934  1.00  0.00    -0.062 A 
HETATM   23  C   UNL     1      43.545 -19.835   1.896  1.00  0.00     0.048 C 
HETATM   24  C   UNL     1      44.296 -18.938   4.118  1.00  0.00     0.008 A 
HETATM   25  C   UNL     1      44.309 -17.948   5.104  1.00  0.00     0.019 A 
ENDBRANCH  18  19
ENDBRANCH  17  18
ENDBRANCH   1  17
TORSDOF 5
ENDMDL
MODEL 3
REMARK VINA RESULT:      -8.0      2.754      7.339
REMARK  5 active torsions:
REMARK  status: ('A' for Active; 'I' for Inactive)
REMARK    1  A    between atoms: C_5  and  S_6 
REMARK    2  A    between atoms: S_6  and  C_7 
REMARK    3  A    between atoms: C_7  and  C_8 
REMARK       I    between atoms: C_8  and  N_9 
REMARK    4  A    between atoms: N_9  and  C_10 
REMARK    5  A    between atoms: C_12  and  C_13 
ROOT
HETATM    1  C   UNL     1      40.978 -13.888   4.067  1.00  0.00     0.231 C 
HETATM    2  N   UNL     1      42.181 -14.459   3.692  1.00  0.00    -0.327 N 
HETATM    3  O   UNL     1      40.330 -14.176   5.072  1.00  0.00    -0.272 OA
HETATM    4  H   UNL     1      42.545 -14.148   2.795  1.00  0.00     0.169 HD
ENDROOT
BRANCH   2   5
HETATM    5  C   UNL     1      42.897 -15.483   4.345  1.00  0.00     0.035 A 
HETATM    6  C   UNL     1      43.009 -16.790   3.859  1.00  0.00     0.042 A 
HETATM    7  C   UNL     1      43.746 -17.766   4.550  1.00  0.00    -0.021 A 
HETATM    8  C   UNL     1      44.371 -17.410   5.751  1.00  0.00     0.012 A 
HETATM    9  C   UNL     1      44.261 -16.111   6.250  1.00  0.00     0.003 A 
HETATM   10  C   UNL     1      43.526 -15.153   5.550  1.00  0.00     0.029 A 
BRANCH   7  11
HETATM   11  C   UNL     1      43.855 -19.114   4.006  1.00  0.00     0.010 A 
HETATM   12  C   UNL     1      43.672 -19.596   2.685  1.00  0.00     0.152 A 
HETATM   13  N   UNL     1      43.855 -20.915   2.582  1.00  0.00    -0.187 NA
HETATM   14  N   UNL     1      44.148 -21.288   3.836  1.00  0.00    -0.289 N 
HETATM   15  H   UNL     1      44.327 -22.271   4.014  1.00  0.00     0.188 HD
HETATM   16  C   UNL     1      44.161 -20.252   4.725  1.00  0.00     0.123 A 
ENDBRANCH   7  11
ENDBRANCH   2   5
BRANCH   1  17
HETATM   17  C   UNL     1      40.500 -12.753   3.172  1.00  0.00     0.182 C 
BRANCH  17  18
HETATM   18  S   UNL     1      41.705 -12.294   1.879  1.00  0.00    -0.121 SA
BRANCH  18  19
HETATM   19  C   UNL     1      40.872 -12.997   0.468  1.00  0.00     0.001 A 
HETATM   20  C   UNL     1      40.680 -12.229  -0.682  1.00  0.00     0.019 A 
HETATM   21  C   UNL     1      40.012 -12.767  -1.785  1.00  0.00     0.008 A 
HETATM   22  C   UNL     1      39.541 -14.085  -1.758  1.00  0.00    -0.062 A 
HETATM   23  C   UNL     1      38.796 -14.664  -2.925  1.00  0.00     0.048 C 
HETATM   24  C   UNL     1      39.745 -14.855  -0.608  1.00  0.00     0.008 A 
HETATM   25  C   UNL     1      40.413 -14.318   0.495  1.00  0.00     0.019 A 
ENDBRANCH  18  19
ENDBRANCH  17  18
ENDBRANCH   1  17
TORSDOF 5
ENDMDL
MODEL 4
REMARK VINA RESULT:      -7.9      1.694      2.217
REMARK  5 active torsions:
REMARK  status: ('A' for Active; 'I' for Inactive)
REMARK    1  A    between atoms: C_5  and  S_6 
REMARK    2  A    between atoms: S_6  and  C_7 
REMARK    3  A    between atoms: C_7  and  C_8 
REMARK       I    between atoms: C_8  and  N_9 
REMARK    4  A    between atoms: N_9  and  C_10 
REMARK    5  A    between atoms: C_12  and  C_13 
ROOT
HETATM    1  C   UNL     1      41.347 -15.709   6.399  1.00  0.00     0.231 C 
HETATM    2  N   UNL     1      41.746 -14.679   5.567  1.00  0.00    -0.327 N 
HETATM    3  O   UNL     1      40.187 -16.077   6.580  1.00  0.00    -0.272 OA
HETATM    4  H   UNL     1      42.739 -14.466   5.588  1.00  0.00     0.169 HD
ENDROOT
BRANCH   2   5
HETATM    5  C   UNL     1      40.935 -13.831   4.784  1.00  0.00     0.035 A 
HETATM    6  C   UNL     1      40.756 -13.977   3.405  1.00  0.00     0.042 A 
HETATM    7  C   UNL     1      39.926 -13.107   2.678  1.00  0.00    -0.021 A 
HETATM    8  C   UNL     1      39.276 -12.072   3.363  1.00  0.00     0.012 A 
HETATM    9  C   UNL     1      39.453 -11.911   4.738  1.00  0.00     0.003 A 
HETATM   10  C   UNL     1      40.279 -12.786   5.444  1.00  0.00     0.029 A 
BRANCH   7  11
HETATM   11  C   UNL     1      39.749 -13.299   1.245  1.00  0.00     0.010 A 
HETATM   12  C   UNL     1      40.101 -14.387   0.407  1.00  0.00     0.152 A 
HETATM   13  N   UNL     1      39.778 -14.185  -0.874  1.00  0.00    -0.187 NA
HETATM   14  N   UNL     1      39.225 -12.964  -0.867  1.00  0.00    -0.289 N 
HETATM   15  H   UNL     1      38.898 -12.581  -1.747  1.00  0.00     0.188 HD
HETATM   16  C   UNL     1      39.183 -12.391   0.373  1.00  0.00     0.123 A 
ENDBRANCH   7  11
ENDBRANCH   2   5
BRANCH   1  17
HETATM   17  C   UNL     1      42.484 -16.477   7.059  1.00  0.00     0.182 C 
BRANCH  17  18
HETATM   18  S   UNL     1      44.092 -16.246   6.225  1.00  0.00    -0.121 SA
BRANCH  18  19
HETATM   19  C   UNL     1      43.901 -17.454   4.927  1.00  0.00     0.001 A 
HETATM   20  C   UNL     1      44.145 -18.803   5.189  1.00  0.00     0.019 A 
HETATM   21  C   UNL     1      44.015 -19.753   4.172  1.00  0.00     0.008 A 
HETATM   22  C   UNL     1      43.625 -19.368   2.884  1.00  0.00    -0.062 A 
HETATM   23  C   UNL     1      43.511 -20.374   1.778  1.00  0.00     0.048 C 
HETATM   24  C   UNL     1      43.371 -18.016   2.629  1.00  0.00     0.008 A 
HETATM   25  C   UNL     1      43.501 -17.066   3.644  1.00  0.00     0.019 A 
ENDBRANCH  18  19
ENDBRANCH  17  18
ENDBRANCH   1  17
TORSDOF 5
ENDMDL
MODEL 5
REMARK VINA RESULT:      -7.9      1.576      2.131
REMARK  5 active torsions:
REMARK  status: ('A' for Active; 'I' for Inactive)
REMARK    1  A    between atoms: C_5  and  S_6 
REMARK    2  A    between atoms: S_6  and  C_7 
REMARK    3  A    between atoms: C_7  and  C_8 
REMARK       I    between atoms: C_8  and  N_9 
REMARK    4  A    between atoms: N_9  and  C_10 
REMARK    5  A    between atoms: C_12  and  C_13 
ROOT
HETATM    1  C   UNL     1      40.600 -13.969   3.715  1.00  0.00     0.231 C 
HETATM    2  N   UNL     1      41.195 -14.007   2.467  1.00  0.00    -0.327 N 
HETATM    3  O   UNL     1      39.659 -13.247   4.039  1.00  0.00    -0.272 OA
HETATM    4  H   UNL     1      42.005 -14.616   2.392  1.00  0.00     0.169 HD
ENDROOT
BRANCH   2   5
HETATM    5  C   UNL     1      40.880 -13.232   1.331  1.00  0.00     0.035 A 
HETATM    6  C   UNL     1      40.130 -13.703   0.248  1.00  0.00     0.042 A 
HETATM    7  C   UNL     1      39.839 -12.879  -0.853  1.00  0.00    -0.021 A 
HETATM    8  C   UNL     1      40.322 -11.565  -0.854  1.00  0.00     0.012 A 
HETATM    9  C   UNL     1      41.078 -11.086   0.217  1.00  0.00     0.003 A 
HETATM   10  C   UNL     1      41.356 -11.917   1.304  1.00  0.00     0.029 A 
BRANCH   7  11
HETATM   11  C   UNL     1      39.041 -13.397  -1.957  1.00  0.00     0.010 A 
HETATM   12  C   UNL     1      39.296 -14.455  -2.866  1.00  0.00     0.152 A 
HETATM   13  N   UNL     1      38.314 -14.625  -3.756  1.00  0.00    -0.187 NA
HETATM   14  N   UNL     1      37.428 -13.674  -3.428  1.00  0.00    -0.289 N 
HETATM   15  H   UNL     1      36.579 -13.600  -3.978  1.00  0.00     0.188 HD
HETATM   16  C   UNL     1      37.813 -12.913  -2.361  1.00  0.00     0.123 A 
ENDBRANCH   7  11
ENDBRANCH   2   5
BRANCH   1  17
HETATM   17  C   UNL     1      41.136 -14.988   4.712  1.00  0.00     0.182 C 
BRANCH  17  18
HETATM   18  S   UNL     1      42.960 -15.024   4.799  1.00  0.00    -0.121 SA
BRANCH  18  19
HETATM   19  C   UNL     1      43.237 -16.611   4.035  1.00  0.00     0.001 A 
HETATM   20  C   UNL     1      42.660 -16.899   2.797  1.00  0.00     0.019 A 
HETATM   21  C   UNL     1      42.858 -18.148   2.200  1.00  0.00     0.008 A 
HETATM   22  C   UNL     1      43.648 -19.118   2.827  1.00  0.00    -0.062 A 
HETATM   23  C   UNL     1      43.844 -20.472   2.211  1.00  0.00     0.048 C 
HETATM   24  C   UNL     1      44.234 -18.821   4.063  1.00  0.00     0.008 A 
HETATM   25  C   UNL     1      44.036 -17.574   4.660  1.00  0.00     0.019 A 
ENDBRANCH  18  19
ENDBRANCH  17  18
ENDBRANCH   1  17
TORSDOF 5
ENDMDL
MODEL 6
REMARK VINA RESULT:      -7.7      6.282      9.167
REMARK  5 active torsions:
REMARK  status: ('A' for Active; 'I' for Inactive)
REMARK    1  A    between atoms: C_5  and  S_6 
REMARK    2  A    between atoms: S_6  and  C_7 
REMARK    3  A    between atoms: C_7  and  C_8 
REMARK       I    between atoms: C_8  and  N_9 
REMARK    4  A    between atoms: N_9  and  C_10 
REMARK    5  A    between atoms: C_12  and  C_13 
ROOT
HETATM    1  C   UNL     1      43.198 -12.531   6.397  1.00  0.00     0.231 C 
HETATM    2  N   UNL     1      43.071 -11.264   6.938  1.00  0.00    -0.327 N 
HETATM    3  O   UNL     1      43.989 -13.395   6.773  1.00  0.00    -0.272 OA
HETATM    4  H   UNL     1      42.411 -10.655   6.461  1.00  0.00     0.169 HD
ENDROOT
BRANCH   2   5
HETATM    5  C   UNL     1      43.813 -10.691   7.990  1.00  0.00     0.035 A 
HETATM    6  C   UNL     1      43.270 -10.345   9.232  1.00  0.00     0.042 A 
HETATM    7  C   UNL     1      44.063  -9.785  10.247  1.00  0.00    -0.021 A 
HETATM    8  C   UNL     1      45.423  -9.569   9.994  1.00  0.00     0.012 A 
HETATM    9  C   UNL     1      45.976  -9.902   8.756  1.00  0.00     0.003 A 
HETATM   10  C   UNL     1      45.174 -10.459   7.760  1.00  0.00     0.029 A 
BRANCH   7  11
HETATM   11  C   UNL     1      43.467  -9.453  11.535  1.00  0.00     0.010 A 
HETATM   12  C   UNL     1      43.374  -8.215  12.219  1.00  0.00     0.152 A 
HETATM   13  N   UNL     1      42.753  -8.316  13.398  1.00  0.00    -0.187 NA
HETATM   14  N   UNL     1      42.452  -9.620  13.481  1.00  0.00    -0.289 N 
HETATM   15  H   UNL     1      41.969  -9.948  14.311  1.00  0.00     0.188 HD
HETATM   16  C   UNL     1      42.856 -10.343  12.395  1.00  0.00     0.123 A 
ENDBRANCH   7  11
ENDBRANCH   2   5
BRANCH   1  17
HETATM   17  C   UNL     1      42.192 -12.865   5.303  1.00  0.00     0.182 C 
BRANCH  17  18
HETATM   18  S   UNL     1      42.886 -12.735   3.619  1.00  0.00    -0.121 SA
BRANCH  18  19
HETATM   19  C   UNL     1      42.953 -14.471   3.217  1.00  0.00     0.001 A 
HETATM   20  C   UNL     1      42.761 -15.425   4.218  1.00  0.00     0.019 A 
HETATM   21  C   UNL     1      42.829 -16.788   3.914  1.00  0.00     0.008 A 
HETATM   22  C   UNL     1      43.075 -17.213   2.604  1.00  0.00    -0.062 A 
HETATM   23  C   UNL     1      43.181 -18.672   2.271  1.00  0.00     0.048 C 
HETATM   24  C   UNL     1      43.256 -16.253   1.602  1.00  0.00     0.008 A 
HETATM   25  C   UNL     1      43.188 -14.891   1.904  1.00  0.00     0.019 A 
ENDBRANCH  18  19
ENDBRANCH  17  18
ENDBRANCH   1  17
TORSDOF 5
ENDMDL
MODEL 7
REMARK VINA RESULT:      -7.7      4.876      8.411
REMARK  5 active torsions:
REMARK  status: ('A' for Active; 'I' for Inactive)
REMARK    1  A    between atoms: C_5  and  S_6 
REMARK    2  A    between atoms: S_6  and  C_7 
REMARK    3  A    between atoms: C_7  and  C_8 
REMARK       I    between atoms: C_8  and  N_9 
REMARK    4  A    between atoms: N_9  and  C_10 
REMARK    5  A    between atoms: C_12  and  C_13 
ROOT
HETATM    1  C   UNL     1      43.421 -14.426   6.338  1.00  0.00     0.231 C 
HETATM    2  N   UNL     1      43.352 -14.290   4.964  1.00  0.00    -0.327 N 
HETATM    3  O   UNL     1      43.440 -15.492   6.953  1.00  0.00    -0.272 OA
HETATM    4  H   UNL     1      43.279 -13.334   4.627  1.00  0.00     0.169 HD
ENDROOT
BRANCH   2   5
HETATM    5  C   UNL     1      43.266 -15.310   3.993  1.00  0.00     0.035 A 
HETATM    6  C   UNL     1      43.553 -16.655   4.247  1.00  0.00     0.042 A 
HETATM    7  C   UNL     1      43.439 -17.629   3.240  1.00  0.00    -0.021 A 
HETATM    8  C   UNL     1      43.036 -17.228   1.961  1.00  0.00     0.012 A 
HETATM    9  C   UNL     1      42.755 -15.887   1.693  1.00  0.00     0.003 A 
HETATM   10  C   UNL     1      42.871 -14.934   2.705  1.00  0.00     0.029 A 
BRANCH   7  11
HETATM   11  C   UNL     1      43.729 -19.025   3.544  1.00  0.00     0.010 A 
HETATM   12  C   UNL     1      43.625 -20.188   2.739  1.00  0.00     0.152 A 
HETATM   13  N   UNL     1      43.979 -21.302   3.385  1.00  0.00    -0.187 NA
HETATM   14  N   UNL     1      44.304 -20.863   4.609  1.00  0.00    -0.289 N 
HETATM   15  H   UNL     1      44.606 -21.544   5.298  1.00  0.00     0.188 HD
HETATM   16  C   UNL     1      44.172 -19.512   4.757  1.00  0.00     0.123 A 
ENDBRANCH   7  11
ENDBRANCH   2   5
BRANCH   1  17
HETATM   17  C   UNL     1      43.570 -13.120   7.106  1.00  0.00     0.182 C 
BRANCH  17  18
HETATM   18  S   UNL     1      44.945 -12.080   6.502  1.00  0.00    -0.121 SA
BRANCH  18  19
HETATM   19  C   UNL     1      44.522 -10.561   7.335  1.00  0.00     0.001 A 
HETATM   20  C   UNL     1      43.206 -10.094   7.308  1.00  0.00     0.019 A 
HETATM   21  C   UNL     1      42.870  -8.895   7.943  1.00  0.00     0.008 A 
HETATM   22  C   UNL     1      43.842  -8.155   8.625  1.00  0.00    -0.062 A 
HETATM   23  C   UNL     1      43.501  -6.852   9.285  1.00  0.00     0.048 C 
HETATM   24  C   UNL     1      45.158  -8.632   8.659  1.00  0.00     0.008 A 
HETATM   25  C   UNL     1      45.494  -9.830   8.025  1.00  0.00     0.019 A 
ENDBRANCH  18  19
ENDBRANCH  17  18
ENDBRANCH   1  17
TORSDOF 5
ENDMDL
MODEL 8
REMARK VINA RESULT:      -7.6      2.320      3.303
REMARK  5 active torsions:
REMARK  status: ('A' for Active; 'I' for Inactive)
REMARK    1  A    between atoms: C_5  and  S_6 
REMARK    2  A    between atoms: S_6  and  C_7 
REMARK    3  A    between atoms: C_7  and  C_8 
REMARK       I    between atoms: C_8  and  N_9 
REMARK    4  A    between atoms: N_9  and  C_10 
REMARK    5  A    between atoms: C_12  and  C_13 
ROOT
HETATM    1  C   UNL     1      40.537 -14.703   1.485  1.00  0.00     0.231 C 
HETATM    2  N   UNL     1      40.800 -14.740   0.128  1.00  0.00    -0.327 N 
HETATM    3  O   UNL     1      39.731 -13.956   2.040  1.00  0.00    -0.272 OA
HETATM    4  H   UNL     1      41.544 -15.373  -0.151  1.00  0.00     0.169 HD
ENDROOT
BRANCH   2   5
HETATM    5  C   UNL     1      40.238 -13.939  -0.888  1.00  0.00     0.035 A 
HETATM    6  C   UNL     1      40.677 -12.647  -1.195  1.00  0.00     0.042 A 
HETATM    7  C   UNL     1      40.085 -11.899  -2.226  1.00  0.00    -0.021 A 
HETATM    8  C   UNL     1      39.030 -12.471  -2.949  1.00  0.00     0.012 A 
HETATM    9  C   UNL     1      38.578 -13.756  -2.646  1.00  0.00     0.003 A 
HETATM   10  C   UNL     1      39.180 -14.485  -1.620  1.00  0.00     0.029 A 
BRANCH   7  11
HETATM   11  C   UNL     1      40.578 -10.562  -2.531  1.00  0.00     0.010 A 
HETATM   12  C   UNL     1      40.298  -9.698  -3.620  1.00  0.00     0.152 A 
HETATM   13  N   UNL     1      40.961  -8.540  -3.550  1.00  0.00    -0.187 NA
HETATM   14  N   UNL     1      41.676  -8.657  -2.423  1.00  0.00    -0.289 N 
HETATM   15  H   UNL     1      42.278  -7.886  -2.155  1.00  0.00     0.188 HD
HETATM   16  C   UNL     1      41.485  -9.845  -1.776  1.00  0.00     0.123 A 
ENDBRANCH   7  11
ENDBRANCH   2   5
BRANCH   1  17
HETATM   17  C   UNL     1      41.269 -15.752   2.310  1.00  0.00     0.182 C 
BRANCH  17  18
HETATM   18  S   UNL     1      42.988 -16.033   1.760  1.00  0.00    -0.121 SA
BRANCH  18  19
HETATM   19  C   UNL     1      43.375 -17.440   2.786  1.00  0.00     0.001 A 
HETATM   20  C   UNL     1      43.691 -17.253   4.133  1.00  0.00     0.019 A 
HETATM   21  C   UNL     1      44.013 -18.349   4.940  1.00  0.00     0.008 A 
HETATM   22  C   UNL     1      44.008 -19.645   4.413  1.00  0.00    -0.062 A 
HETATM   23  C   UNL     1      44.381 -20.826   5.260  1.00  0.00     0.048 C 
HETATM   24  C   UNL     1      43.680 -19.828   3.065  1.00  0.00     0.008 A 
HETATM   25  C   UNL     1      43.358 -18.734   2.258  1.00  0.00     0.019 A 
ENDBRANCH  18  19
ENDBRANCH  17  18
ENDBRANCH   1  17
TORSDOF 5
ENDMDL
MODEL 9
REMARK VINA RESULT:      -7.5      4.982      7.892
REMARK  5 active torsions:
REMARK  status: ('A' for Active; 'I' for Inactive)
REMARK    1  A    between atoms: C_5  and  S_6 
REMARK    2  A    between atoms: S_6  and  C_7 
REMARK    3  A    between atoms: C_7  and  C_8 
REMARK       I    between atoms: C_8  and  N_9 
REMARK    4  A    between atoms: N_9  and  C_10 
REMARK    5  A    between atoms: C_12  and  C_13 
ROOT
HETATM    1  C   UNL     1      43.304 -12.020   4.569  1.00  0.00     0.231 C 
HETATM    2  N   UNL     1      42.584 -13.136   4.954  1.00  0.00    -0.327 N 
HETATM    3  O   UNL     1      43.678 -11.768   3.424  1.00  0.00    -0.272 OA
HETATM    4  H   UNL     1      42.417 -13.218   5.953  1.00  0.00     0.169 HD
ENDROOT
BRANCH   2   5
HETATM    5  C   UNL     1      42.152 -14.211   4.151  1.00  0.00     0.035 A 
HETATM    6  C   UNL     1      42.816 -15.439   4.066  1.00  0.00     0.042 A 
HETATM    7  C   UNL     1      42.331 -16.478   3.255  1.00  0.00    -0.021 A 
HETATM    8  C   UNL     1      41.161 -16.263   2.517  1.00  0.00     0.012 A 
HETATM    9  C   UNL     1      40.493 -15.039   2.586  1.00  0.00     0.003 A 
HETATM   10  C   UNL     1      40.988 -14.019   3.399  1.00  0.00     0.029 A 
BRANCH   7  11
HETATM   11  C   UNL     1      43.040 -17.751   3.204  1.00  0.00     0.010 A 
HETATM   12  C   UNL     1      43.031 -18.775   2.223  1.00  0.00     0.152 A 
HETATM   13  N   UNL     1      43.817 -19.808   2.543  1.00  0.00    -0.187 NA
HETATM   14  N   UNL     1      44.326 -19.457   3.732  1.00  0.00    -0.289 N 
HETATM   15  H   UNL     1      44.963 -20.101   4.189  1.00  0.00     0.188 HD
HETATM   16  C   UNL     1      43.894 -18.239   4.172  1.00  0.00     0.123 A 
ENDBRANCH   7  11
ENDBRANCH   2   5
BRANCH   1  17
HETATM   17  C   UNL     1      43.558 -11.006   5.676  1.00  0.00     0.182 C 
BRANCH  17  18
HETATM   18  S   UNL     1      45.075 -11.347   6.634  1.00  0.00    -0.121 SA
BRANCH  18  19
HETATM   19  C   UNL     1      44.633 -10.516   8.148  1.00  0.00     0.001 A 
HETATM   20  C   UNL     1      45.603 -10.282   9.124  1.00  0.00     0.019 A 
HETATM   21  C   UNL     1      45.260  -9.647  10.322  1.00  0.00     0.008 A 
HETATM   22  C   UNL     1      43.946  -9.225  10.552  1.00  0.00    -0.062 A 
HETATM   23  C   UNL     1      43.560  -8.570  11.845  1.00  0.00     0.048 C 
HETATM   24  C   UNL     1      42.979  -9.451   9.566  1.00  0.00     0.008 A 
HETATM   25  C   UNL     1      43.320 -10.085   8.369  1.00  0.00     0.019 A 
ENDBRANCH  18  19
ENDBRANCH  17  18
ENDBRANCH   1  17
TORSDOF 5
ENDMDL
MODEL 10
REMARK VINA RESULT:      -7.5      6.130      9.522
REMARK  5 active torsions:
REMARK  status: ('A' for Active; 'I' for Inactive)
REMARK    1  A    between atoms: C_5  and  S_6 
REMARK    2  A    between atoms: S_6  and  C_7 
REMARK    3  A    between atoms: C_7  and  C_8 
REMARK       I    between atoms: C_8  and  N_9 
REMARK    4  A    between atoms: N_9  and  C_10 
REMARK    5  A    between atoms: C_12  and  C_13 
ROOT
HETATM    1  C   UNL     1      44.444 -11.936   7.115  1.00  0.00     0.231 C 
HETATM    2  N   UNL     1      43.485 -12.926   6.994  1.00  0.00    -0.327 N 
HETATM    3  O   UNL     1      45.329 -11.692   6.296  1.00  0.00    -0.272 OA
HETATM    4  H   UNL     1      42.871 -13.032   7.796  1.00  0.00     0.169 HD
ENDROOT
BRANCH   2   5
HETATM    5  C   UNL     1      43.329 -13.860   5.949  1.00  0.00     0.035 A 
HETATM    6  C   UNL     1      43.587 -15.229   6.081  1.00  0.00     0.042 A 
HETATM    7  C   UNL     1      43.403 -16.114   5.006  1.00  0.00    -0.021 A 
HETATM    8  C   UNL     1      42.957 -15.601   3.782  1.00  0.00     0.012 A 
HETATM    9  C   UNL     1      42.703 -14.236   3.636  1.00  0.00     0.003 A 
HETATM   10  C   UNL     1      42.889 -13.371   4.715  1.00  0.00     0.029 A 
BRANCH   7  11
HETATM   11  C   UNL     1      43.666 -17.537   5.183  1.00  0.00     0.010 A 
HETATM   12  C   UNL     1      44.280 -18.479   4.319  1.00  0.00     0.152 A 
HETATM   13  N   UNL     1      44.332 -19.708   4.841  1.00  0.00    -0.187 NA
HETATM   14  N   UNL     1      43.745 -19.564   6.037  1.00  0.00    -0.289 N 
HETATM   15  H   UNL     1      43.659 -20.382   6.631  1.00  0.00     0.188 HD
HETATM   16  C   UNL     1      43.328 -18.288   6.291  1.00  0.00     0.123 A 
ENDBRANCH   7  11
ENDBRANCH   2   5
BRANCH   1  17
HETATM   17  C   UNL     1      44.297 -11.047   8.342  1.00  0.00     0.182 C 
BRANCH  17  18
HETATM   18  S   UNL     1      43.049  -9.730   8.136  1.00  0.00    -0.121 SA
BRANCH  18  19
HETATM   19  C   UNL     1      43.068  -9.075   9.794  1.00  0.00     0.001 A 
HETATM   20  C   UNL     1      43.294  -9.926  10.877  1.00  0.00     0.019 A 
HETATM   21  C   UNL     1      43.293  -9.423  12.181  1.00  0.00     0.008 A 
HETATM   22  C   UNL     1      43.081  -8.060  12.417  1.00  0.00    -0.062 A 
HETATM   23  C   UNL     1      43.048  -7.514  13.814  1.00  0.00     0.048 C 
HETATM   24  C   UNL     1      42.866  -7.209  11.328  1.00  0.00     0.008 A 
HETATM   25  C   UNL     1      42.867  -7.710  10.025  1.00  0.00     0.019 A 
ENDBRANCH  18  19
ENDBRANCH  17  18
ENDBRANCH   1  17
TORSDOF 5
ENDMDL
