MODEL 1
REMARK VINA RESULT:      -8.0      0.000      0.000
REMARK  9 active torsions:
REMARK  status: ('A' for Active; 'I' for Inactive)
REMARK    1  A    between atoms: C_2  and  N_3 
REMARK    2  A    between atoms: N_3  and  C_5 
REMARK    3  A    between atoms: N_3  and  C_30 
REMARK    4  A    between atoms: C_5  and  C_6 
REMARK    5  A    between atoms: C_5  and  C_14 
REMARK    6  A    between atoms: C_8  and  O_9 
REMARK    7  A    between atoms: C_14  and  N_15 
REMARK       I    between atoms: N_15  and  C_16 
REMARK    8  A    between atoms: C_16  and  C_17 
REMARK    9  A    between atoms: C_18  and  N_19 
ROOT
HETATM    1  C   UNL     1      43.263 -14.138   7.033  1.00  0.00     0.161 C 
ENDROOT
BRANCH   1   2
HETATM    2  C   UNL     1      43.767 -12.952   6.137  1.00  0.00     0.238 C 
BRANCH   2   3
HETATM    3  N   UNL     1      42.662 -12.422   5.203  1.00  0.00    -0.062 N 
HETATM    4  H   UNL     1      42.644 -13.172   4.483  1.00  0.00     0.280 HD
BRANCH   3   5
HETATM    5  C   UNL     1      43.041 -11.149   4.469  1.00  0.00     0.231 C 
HETATM    6  C   UNL     1      42.107 -10.002   4.803  1.00  0.00     0.034 C 
ENDBRANCH   3   5
BRANCH   3   7
HETATM    7  C   UNL     1      41.291 -12.328   5.821  1.00  0.00     0.231 C 
HETATM    8  C   UNL     1      40.286 -13.155   5.039  1.00  0.00     0.034 C 
ENDBRANCH   3   7
ENDBRANCH   2   3
BRANCH   2   9
HETATM    9  C   UNL     1      44.494 -11.885   6.942  1.00  0.00    -0.023 A 
HETATM   10  C   UNL     1      43.872 -11.347   8.089  1.00  0.00     0.046 A 
HETATM   11  C   UNL     1      44.506 -10.372   8.861  1.00  0.00     0.068 A 
HETATM   12  C   UNL     1      45.784  -9.944   8.506  1.00  0.00     0.037 A 
HETATM   13  C   UNL     1      46.410 -10.452   7.372  1.00  0.00     0.003 A 
HETATM   14  C   UNL     1      45.769 -11.412   6.590  1.00  0.00     0.009 A 
BRANCH  11  15
HETATM   15  O   UNL     1      43.996  -9.791   9.987  1.00  0.00    -0.356 OA
HETATM   16  C   UNL     1      43.642 -10.659  11.056  1.00  0.00     0.210 C 
ENDBRANCH  11  15
ENDBRANCH   2   9
ENDBRANCH   1   2
BRANCH   1  17
HETATM   17  N   UNL     1      43.518 -15.513   6.586  1.00  0.00    -0.354 N 
HETATM   18  C   UNL     1      42.513 -16.305   6.050  1.00  0.00     0.253 C 
HETATM   19  O   UNL     1      41.358 -16.180   6.440  1.00  0.00    -0.268 OA
HETATM   20  H   UNL     1      44.451 -15.685   6.223  1.00  0.00     0.162 HD
BRANCH  18  21
HETATM   21  C   UNL     1      42.929 -17.262   4.983  1.00  0.00     0.059 A 
HETATM   22  C   UNL     1      42.918 -16.958   3.600  1.00  0.00     0.046 A 
HETATM   23  C   UNL     1      43.508 -17.932   2.763  1.00  0.00     0.031 A 
HETATM   24  C   UNL     1      44.030 -19.142   3.240  1.00  0.00     0.009 A 
HETATM   25  C   UNL     1      44.005 -19.434   4.596  1.00  0.00    -0.061 A 
HETATM   26  C   UNL     1      44.611 -20.702   5.119  1.00  0.00     0.048 C 
HETATM   27  C   UNL     1      43.480 -18.476   5.464  1.00  0.00     0.026 A 
BRANCH  22  28
HETATM   28  N   UNL     1      42.395 -15.802   3.039  1.00  0.00    -0.380 N 
HETATM   29  C   UNL     1      41.046 -15.736   2.480  1.00  0.00     0.123 C 
HETATM   30  C   UNL     1      41.120 -14.662   1.397  1.00  0.00     0.021 C 
HETATM   31  C   UNL     1      42.231 -13.754   1.893  1.00  0.00     0.021 C 
HETATM   32  C   UNL     1      43.238 -14.758   2.438  1.00  0.00     0.123 C 
ENDBRANCH  22  28
ENDBRANCH  18  21
ENDBRANCH   1  17
TORSDOF 9
ENDMDL
MODEL 2
REMARK VINA RESULT:      -7.8      2.920      5.560
REMARK  9 active torsions:
REMARK  status: ('A' for Active; 'I' for Inactive)
REMARK    1  A    between atoms: C_2  and  N_3 
REMARK    2  A    between atoms: N_3  and  C_5 
REMARK    3  A    between atoms: N_3  and  C_30 
REMARK    4  A    between atoms: C_5  and  C_6 
REMARK    5  A    between atoms: C_5  and  C_14 
REMARK    6  A    between atoms: C_8  and  O_9 
REMARK    7  A    between atoms: C_14  and  N_15 
REMARK       I    between atoms: N_15  and  C_16 
REMARK    8  A    between atoms: C_16  and  C_17 
REMARK    9  A    between atoms: C_18  and  N_19 
ROOT
HETATM    1  C   UNL     1      40.821 -14.851   0.473  1.00  0.00     0.161 C 
ENDROOT
BRANCH   1   2
HETATM    2  C   UNL     1      40.338 -13.359   0.412  1.00  0.00     0.238 C 
BRANCH   2   3
HETATM    3  N   UNL     1      39.062 -13.197  -0.436  1.00  0.00    -0.062 N 
HETATM    4  H   UNL     1      38.340 -13.513   0.242  1.00  0.00     0.280 HD
BRANCH   3   5
HETATM    5  C   UNL     1      38.980 -14.158  -1.608  1.00  0.00     0.231 C 
HETATM    6  C   UNL     1      39.170 -13.450  -2.937  1.00  0.00     0.034 C 
ENDBRANCH   3   5
BRANCH   3   7
HETATM    7  C   UNL     1      38.738 -11.783  -0.844  1.00  0.00     0.231 C 
HETATM    8  C   UNL     1      37.460 -11.306  -0.180  1.00  0.00     0.034 C 
ENDBRANCH   3   7
ENDBRANCH   2   3
BRANCH   2   9
HETATM    9  C   UNL     1      40.281 -12.711   1.787  1.00  0.00    -0.023 A 
HETATM   10  C   UNL     1      41.296 -11.803   2.161  1.00  0.00     0.046 A 
HETATM   11  C   UNL     1      41.279 -11.180   3.410  1.00  0.00     0.068 A 
HETATM   12  C   UNL     1      40.229 -11.439   4.289  1.00  0.00     0.037 A 
HETATM   13  C   UNL     1      39.225 -12.339   3.945  1.00  0.00     0.003 A 
HETATM   14  C   UNL     1      39.252 -12.977   2.705  1.00  0.00     0.009 A 
BRANCH  11  15
HETATM   15  O   UNL     1      42.206 -10.287   3.867  1.00  0.00    -0.356 OA
HETATM   16  C   UNL     1      41.722  -9.186   4.626  1.00  0.00     0.210 C 
ENDBRANCH  11  15
ENDBRANCH   2   9
ENDBRANCH   1   2
BRANCH   1  17
HETATM   17  N   UNL     1      41.717 -15.253   1.564  1.00  0.00    -0.354 N 
HETATM   18  C   UNL     1      41.316 -16.147   2.547  1.00  0.00     0.253 C 
HETATM   19  O   UNL     1      40.147 -16.176   2.911  1.00  0.00    -0.268 OA
HETATM   20  H   UNL     1      42.705 -15.278   1.327  1.00  0.00     0.162 HD
BRANCH  18  21
HETATM   21  C   UNL     1      42.376 -17.051   3.084  1.00  0.00     0.059 A 
HETATM   22  C   UNL     1      42.953 -16.916   4.370  1.00  0.00     0.046 A 
HETATM   23  C   UNL     1      43.812 -17.967   4.760  1.00  0.00     0.031 A 
HETATM   24  C   UNL     1      44.124 -19.053   3.931  1.00  0.00     0.009 A 
HETATM   25  C   UNL     1      43.570 -19.153   2.663  1.00  0.00    -0.061 A 
HETATM   26  C   UNL     1      43.857 -20.340   1.792  1.00  0.00     0.048 C 
HETATM   27  C   UNL     1      42.674 -18.164   2.259  1.00  0.00     0.026 A 
BRANCH  22  28
HETATM   28  N   UNL     1      42.725 -15.860   5.242  1.00  0.00    -0.380 N 
HETATM   29  C   UNL     1      41.658 -15.878   6.241  1.00  0.00     0.123 C 
HETATM   30  C   UNL     1      41.286 -14.410   6.445  1.00  0.00     0.021 C 
HETATM   31  C   UNL     1      42.577 -13.682   6.119  1.00  0.00     0.021 C 
HETATM   32  C   UNL     1      43.090 -14.473   4.922  1.00  0.00     0.123 C 
ENDBRANCH  22  28
ENDBRANCH  18  21
ENDBRANCH   1  17
TORSDOF 9
ENDMDL
MODEL 3
REMARK VINA RESULT:      -7.8      3.255      6.878
REMARK  9 active torsions:
REMARK  status: ('A' for Active; 'I' for Inactive)
REMARK    1  A    between atoms: C_2  and  N_3 
REMARK    2  A    between atoms: N_3  and  C_5 
REMARK    3  A    between atoms: N_3  and  C_30 
REMARK    4  A    between atoms: C_5  and  C_6 
REMARK    5  A    between atoms: C_5  and  C_14 
REMARK    6  A    between atoms: C_8  and  O_9 
REMARK    7  A    between atoms: C_14  and  N_15 
REMARK       I    between atoms: N_15  and  C_16 
REMARK    8  A    between atoms: C_16  and  C_17 
REMARK    9  A    between atoms: C_18  and  N_19 
ROOT
HETATM    1  C   UNL     1      42.142 -14.012   1.729  1.00  0.00     0.161 C 
ENDROOT
BRANCH   1   2
HETATM    2  C   UNL     1      40.839 -13.183   2.007  1.00  0.00     0.238 C 
BRANCH   2   3
HETATM    3  N   UNL     1      41.137 -11.874   2.764  1.00  0.00    -0.062 N 
HETATM    4  H   UNL     1      40.536 -11.209   2.239  1.00  0.00     0.280 HD
BRANCH   3   5
HETATM    5  C   UNL     1      42.560 -11.376   2.590  1.00  0.00     0.231 C 
HETATM    6  C   UNL     1      43.291 -11.270   3.915  1.00  0.00     0.034 C 
ENDBRANCH   3   5
BRANCH   3   7
HETATM    7  C   UNL     1      40.708 -11.858   4.209  1.00  0.00     0.231 C 
HETATM    8  C   UNL     1      39.975 -13.137   4.571  1.00  0.00     0.034 C 
ENDBRANCH   3   7
ENDBRANCH   2   3
BRANCH   2   9
HETATM    9  C   UNL     1      39.976 -13.024   0.764  1.00  0.00    -0.023 A 
HETATM   10  C   UNL     1      40.162 -13.910  -0.319  1.00  0.00     0.046 A 
HETATM   11  C   UNL     1      39.387 -13.806  -1.475  1.00  0.00     0.068 A 
HETATM   12  C   UNL     1      38.396 -12.827  -1.548  1.00  0.00     0.037 A 
HETATM   13  C   UNL     1      38.204 -11.936  -0.496  1.00  0.00     0.003 A 
HETATM   14  C   UNL     1      38.992 -12.028   0.651  1.00  0.00     0.009 A 
BRANCH  11  15
HETATM   15  O   UNL     1      39.483 -14.610  -2.574  1.00  0.00    -0.356 OA
HETATM   16  C   UNL     1      38.285 -14.855  -3.301  1.00  0.00     0.210 C 
ENDBRANCH  11  15
ENDBRANCH   2   9
ENDBRANCH   1   2
BRANCH   1  17
HETATM   17  N   UNL     1      42.584 -14.983   2.737  1.00  0.00    -0.354 N 
HETATM   18  C   UNL     1      41.929 -16.191   2.926  1.00  0.00     0.253 C 
HETATM   19  O   UNL     1      40.719 -16.268   2.749  1.00  0.00    -0.268 OA
HETATM   20  H   UNL     1      43.584 -14.995   2.918  1.00  0.00     0.162 HD
BRANCH  18  21
HETATM   21  C   UNL     1      42.785 -17.349   3.319  1.00  0.00     0.059 A 
HETATM   22  C   UNL     1      43.289 -17.551   4.627  1.00  0.00     0.046 A 
HETATM   23  C   UNL     1      43.935 -18.790   4.841  1.00  0.00     0.031 A 
HETATM   24  C   UNL     1      44.117 -19.746   3.833  1.00  0.00     0.009 A 
HETATM   25  C   UNL     1      43.640 -19.517   2.550  1.00  0.00    -0.061 A 
HETATM   26  C   UNL     1      43.784 -20.559   1.481  1.00  0.00     0.048 C 
HETATM   27  C   UNL     1      42.950 -18.330   2.309  1.00  0.00     0.026 A 
BRANCH  22  28
HETATM   28  N   UNL     1      43.182 -16.647   5.674  1.00  0.00    -0.380 N 
HETATM   29  C   UNL     1      44.281 -16.377   6.599  1.00  0.00     0.123 C 
HETATM   30  C   UNL     1      43.604 -15.967   7.906  1.00  0.00     0.021 C 
HETATM   31  C   UNL     1      42.291 -15.367   7.436  1.00  0.00     0.021 C 
HETATM   32  C   UNL     1      41.899 -16.314   6.308  1.00  0.00     0.123 C 
ENDBRANCH  22  28
ENDBRANCH  18  21
ENDBRANCH   1  17
TORSDOF 9
ENDMDL
MODEL 4
REMARK VINA RESULT:      -7.7      2.039      4.233
REMARK  9 active torsions:
REMARK  status: ('A' for Active; 'I' for Inactive)
REMARK    1  A    between atoms: C_2  and  N_3 
REMARK    2  A    between atoms: N_3  and  C_5 
REMARK    3  A    between atoms: N_3  and  C_30 
REMARK    4  A    between atoms: C_5  and  C_6 
REMARK    5  A    between atoms: C_5  and  C_14 
REMARK    6  A    between atoms: C_8  and  O_9 
REMARK    7  A    between atoms: C_14  and  N_15 
REMARK       I    between atoms: N_15  and  C_16 
REMARK    8  A    between atoms: C_16  and  C_17 
REMARK    9  A    between atoms: C_18  and  N_19 
ROOT
HETATM    1  C   UNL     1      42.506 -13.970   1.783  1.00  0.00     0.161 C 
ENDROOT
BRANCH   1   2
HETATM    2  C   UNL     1      42.388 -12.469   2.224  1.00  0.00     0.238 C 
BRANCH   2   3
HETATM    3  N   UNL     1      41.047 -11.843   1.797  1.00  0.00    -0.062 N 
HETATM    4  H   UNL     1      40.770 -11.366   2.677  1.00  0.00     0.280 HD
BRANCH   3   5
HETATM    5  C   UNL     1      39.958 -12.863   1.516  1.00  0.00     0.231 C 
HETATM    6  C   UNL     1      38.920 -12.905   2.621  1.00  0.00     0.034 C 
ENDBRANCH   3   5
BRANCH   3   7
HETATM    7  C   UNL     1      41.141 -10.807   0.707  1.00  0.00     0.231 C 
HETATM    8  C   UNL     1      40.873 -11.424  -0.654  1.00  0.00     0.034 C 
ENDBRANCH   3   7
ENDBRANCH   2   3
BRANCH   2   9
HETATM    9  C   UNL     1      42.756 -12.263   3.686  1.00  0.00    -0.023 A 
HETATM   10  C   UNL     1      44.030 -11.745   4.008  1.00  0.00     0.046 A 
HETATM   11  C   UNL     1      44.406 -11.533   5.335  1.00  0.00     0.068 A 
HETATM   12  C   UNL     1      43.499 -11.814   6.356  1.00  0.00     0.037 A 
HETATM   13  C   UNL     1      42.243 -12.336   6.061  1.00  0.00     0.003 A 
HETATM   14  C   UNL     1      41.874 -12.566   4.736  1.00  0.00     0.009 A 
BRANCH  11  15
HETATM   15  O   UNL     1      45.607 -11.036   5.753  1.00  0.00    -0.356 OA
HETATM   16  C   UNL     1      45.804 -10.920   7.156  1.00  0.00     0.210 C 
ENDBRANCH  11  15
ENDBRANCH   2   9
ENDBRANCH   1   2
BRANCH   1  17
HETATM   17  N   UNL     1      42.933 -14.962   2.777  1.00  0.00    -0.354 N 
HETATM   18  C   UNL     1      42.167 -16.080   3.071  1.00  0.00     0.253 C 
HETATM   19  O   UNL     1      40.945 -16.020   3.013  1.00  0.00    -0.268 OA
HETATM   20  H   UNL     1      43.939 -15.086   2.863  1.00  0.00     0.162 HD
BRANCH  18  21
HETATM   21  C   UNL     1      42.921 -17.321   3.421  1.00  0.00     0.059 A 
HETATM   22  C   UNL     1      43.390 -17.620   4.723  1.00  0.00     0.046 A 
HETATM   23  C   UNL     1      43.929 -18.915   4.887  1.00  0.00     0.031 A 
HETATM   24  C   UNL     1      44.045 -19.839   3.840  1.00  0.00     0.009 A 
HETATM   25  C   UNL     1      43.605 -19.516   2.564  1.00  0.00    -0.061 A 
HETATM   26  C   UNL     1      43.677 -20.519   1.452  1.00  0.00     0.048 C 
HETATM   27  C   UNL     1      43.017 -18.267   2.369  1.00  0.00     0.026 A 
BRANCH  22  28
HETATM   28  N   UNL     1      43.344 -16.756   5.807  1.00  0.00    -0.380 N 
HETATM   29  C   UNL     1      44.488 -16.535   6.690  1.00  0.00     0.123 C 
HETATM   30  C   UNL     1      43.878 -16.168   8.042  1.00  0.00     0.021 C 
HETATM   31  C   UNL     1      42.552 -15.536   7.658  1.00  0.00     0.021 C 
HETATM   32  C   UNL     1      42.096 -16.433   6.514  1.00  0.00     0.123 C 
ENDBRANCH  22  28
ENDBRANCH  18  21
ENDBRANCH   1  17
TORSDOF 9
ENDMDL
MODEL 5
REMARK VINA RESULT:      -7.5      3.337      7.461
REMARK  9 active torsions:
REMARK  status: ('A' for Active; 'I' for Inactive)
REMARK    1  A    between atoms: C_2  and  N_3 
REMARK    2  A    between atoms: N_3  and  C_5 
REMARK    3  A    between atoms: N_3  and  C_30 
REMARK    4  A    between atoms: C_5  and  C_6 
REMARK    5  A    between atoms: C_5  and  C_14 
REMARK    6  A    between atoms: C_8  and  O_9 
REMARK    7  A    between atoms: C_14  and  N_15 
REMARK       I    between atoms: N_15  and  C_16 
REMARK    8  A    between atoms: C_16  and  C_17 
REMARK    9  A    between atoms: C_18  and  N_19 
ROOT
HETATM    1  C   UNL     1      43.032 -14.466   1.902  1.00  0.00     0.161 C 
ENDROOT
BRANCH   1   2
HETATM    2  C   UNL     1      42.998 -15.164   3.306  1.00  0.00     0.238 C 
BRANCH   2   3
HETATM    3  N   UNL     1      41.758 -14.760   4.126  1.00  0.00    -0.062 N 
HETATM    4  H   UNL     1      41.391 -13.981   3.545  1.00  0.00     0.280 HD
BRANCH   3   5
HETATM    5  C   UNL     1      42.088 -14.154   5.477  1.00  0.00     0.231 C 
HETATM    6  C   UNL     1      43.183 -13.109   5.378  1.00  0.00     0.034 C 
ENDBRANCH   3   5
BRANCH   3   7
HETATM    7  C   UNL     1      40.687 -15.816   4.229  1.00  0.00     0.231 C 
HETATM    8  C   UNL     1      40.427 -16.184   5.679  1.00  0.00     0.034 C 
ENDBRANCH   3   7
ENDBRANCH   2   3
BRANCH   2   9
HETATM    9  C   UNL     1      43.247 -16.663   3.215  1.00  0.00    -0.023 A 
HETATM   10  C   UNL     1      43.755 -17.345   4.342  1.00  0.00     0.046 A 
HETATM   11  C   UNL     1      43.991 -18.720   4.306  1.00  0.00     0.068 A 
HETATM   12  C   UNL     1      43.696 -19.433   3.145  1.00  0.00     0.037 A 
HETATM   13  C   UNL     1      43.205 -18.779   2.018  1.00  0.00     0.003 A 
HETATM   14  C   UNL     1      42.988 -17.401   2.049  1.00  0.00     0.009 A 
BRANCH  11  15
HETATM   15  O   UNL     1      44.476 -19.473   5.336  1.00  0.00    -0.356 OA
HETATM   16  C   UNL     1      44.068 -20.835   5.387  1.00  0.00     0.210 C 
ENDBRANCH  11  15
ENDBRANCH   2   9
ENDBRANCH   1   2
BRANCH   1  17
HETATM   17  N   UNL     1      41.834 -14.534   1.056  1.00  0.00    -0.354 N 
HETATM   18  C   UNL     1      40.911 -13.499   1.010  1.00  0.00     0.253 C 
HETATM   19  O   UNL     1      40.702 -12.818   2.007  1.00  0.00    -0.268 OA
HETATM   20  H   UNL     1      41.940 -15.063   0.195  1.00  0.00     0.162 HD
BRANCH  18  21
HETATM   21  C   UNL     1      40.241 -13.273  -0.304  1.00  0.00     0.059 A 
HETATM   22  C   UNL     1      40.275 -12.045  -1.008  1.00  0.00     0.046 A 
HETATM   23  C   UNL     1      39.727 -12.080  -2.310  1.00  0.00     0.031 A 
HETATM   24  C   UNL     1      39.142 -13.225  -2.868  1.00  0.00     0.009 A 
HETATM   25  C   UNL     1      39.094 -14.411  -2.151  1.00  0.00    -0.061 A 
HETATM   26  C   UNL     1      38.519 -15.654  -2.763  1.00  0.00     0.048 C 
HETATM   27  C   UNL     1      39.671 -14.436  -0.882  1.00  0.00     0.026 A 
BRANCH  22  28
HETATM   28  N   UNL     1      40.803 -10.858  -0.521  1.00  0.00    -0.380 N 
HETATM   29  C   UNL     1      40.093 -10.012   0.436  1.00  0.00     0.123 C 
HETATM   30  C   UNL     1      40.596  -8.596   0.159  1.00  0.00     0.021 C 
HETATM   31  C   UNL     1      41.992  -8.832  -0.389  1.00  0.00     0.021 C 
HETATM   32  C   UNL     1      41.780 -10.056  -1.271  1.00  0.00     0.123 C 
ENDBRANCH  22  28
ENDBRANCH  18  21
ENDBRANCH   1  17
TORSDOF 9
ENDMDL
MODEL 6
REMARK VINA RESULT:      -7.2      2.915      6.000
REMARK  9 active torsions:
REMARK  status: ('A' for Active; 'I' for Inactive)
REMARK    1  A    between atoms: C_2  and  N_3 
REMARK    2  A    between atoms: N_3  and  C_5 
REMARK    3  A    between atoms: N_3  and  C_30 
REMARK    4  A    between atoms: C_5  and  C_6 
REMARK    5  A    between atoms: C_5  and  C_14 
REMARK    6  A    between atoms: C_8  and  O_9 
REMARK    7  A    between atoms: C_14  and  N_15 
REMARK       I    between atoms: N_15  and  C_16 
REMARK    8  A    between atoms: C_16  and  C_17 
REMARK    9  A    between atoms: C_18  and  N_19 
ROOT
HETATM    1  C   UNL     1      42.760 -14.287   2.420  1.00  0.00     0.161 C 
ENDROOT
BRANCH   1   2
HETATM    2  C   UNL     1      41.919 -14.301   3.745  1.00  0.00     0.238 C 
BRANCH   2   3
HETATM    3  N   UNL     1      41.974 -15.669   4.451  1.00  0.00    -0.062 N 
HETATM    4  H   UNL     1      42.495 -15.418   5.314  1.00  0.00     0.280 HD
BRANCH   3   5
HETATM    5  C   UNL     1      42.829 -16.696   3.732  1.00  0.00     0.231 C 
HETATM    6  C   UNL     1      43.873 -17.308   4.646  1.00  0.00     0.034 C 
ENDBRANCH   3   5
BRANCH   3   7
HETATM    7  C   UNL     1      40.636 -16.235   4.856  1.00  0.00     0.231 C 
HETATM    8  C   UNL     1      40.369 -15.993   6.330  1.00  0.00     0.034 C 
ENDBRANCH   3   7
ENDBRANCH   2   3
BRANCH   2   9
HETATM    9  C   UNL     1      42.222 -13.106   4.637  1.00  0.00    -0.023 A 
HETATM   10  C   UNL     1      43.537 -12.592   4.675  1.00  0.00     0.046 A 
HETATM   11  C   UNL     1      43.857 -11.493   5.473  1.00  0.00     0.068 A 
HETATM   12  C   UNL     1      42.856 -10.878   6.223  1.00  0.00     0.037 A 
HETATM   13  C   UNL     1      41.556 -11.375   6.209  1.00  0.00     0.003 A 
HETATM   14  C   UNL     1      41.240 -12.486   5.427  1.00  0.00     0.009 A 
BRANCH  11  15
HETATM   15  O   UNL     1      45.091 -10.918   5.578  1.00  0.00    -0.356 OA
HETATM   16  C   UNL     1      45.833 -11.197   6.759  1.00  0.00     0.210 C 
ENDBRANCH  11  15
ENDBRANCH   2   9
ENDBRANCH   1   2
BRANCH   1  17
HETATM   17  N   UNL     1      42.052 -14.148   1.142  1.00  0.00    -0.354 N 
HETATM   18  C   UNL     1      40.833 -14.768   0.910  1.00  0.00     0.253 C 
HETATM   19  O   UNL     1      40.585 -15.849   1.430  1.00  0.00    -0.268 OA
HETATM   20  H   UNL     1      42.190 -13.262   0.664  1.00  0.00     0.162 HD
BRANCH  18  21
HETATM   21  C   UNL     1      39.875 -14.029   0.035  1.00  0.00     0.059 A 
HETATM   22  C   UNL     1      39.468 -12.692   0.261  1.00  0.00     0.046 A 
HETATM   23  C   UNL     1      38.693 -12.115  -0.770  1.00  0.00     0.031 A 
HETATM   24  C   UNL     1      38.302 -12.812  -1.921  1.00  0.00     0.009 A 
HETATM   25  C   UNL     1      38.688 -14.131  -2.110  1.00  0.00    -0.061 A 
HETATM   26  C   UNL     1      38.319 -14.866  -3.365  1.00  0.00     0.048 C 
HETATM   27  C   UNL     1      39.499 -14.723  -1.142  1.00  0.00     0.026 A 
BRANCH  22  28
HETATM   28  N   UNL     1      39.781 -11.939   1.383  1.00  0.00    -0.380 N 
HETATM   29  C   UNL     1      38.908 -11.865   2.553  1.00  0.00     0.123 C 
HETATM   30  C   UNL     1      39.191 -10.495   3.169  1.00  0.00     0.021 C 
HETATM   31  C   UNL     1      40.627 -10.227   2.758  1.00  0.00     0.021 C 
HETATM   32  C   UNL     1      40.648 -10.753   1.328  1.00  0.00     0.123 C 
ENDBRANCH  22  28
ENDBRANCH  18  21
ENDBRANCH   1  17
TORSDOF 9
ENDMDL
MODEL 7
REMARK VINA RESULT:      -7.2      3.225      7.458
REMARK  9 active torsions:
REMARK  status: ('A' for Active; 'I' for Inactive)
REMARK    1  A    between atoms: C_2  and  N_3 
REMARK    2  A    between atoms: N_3  and  C_5 
REMARK    3  A    between atoms: N_3  and  C_30 
REMARK    4  A    between atoms: C_5  and  C_6 
REMARK    5  A    between atoms: C_5  and  C_14 
REMARK    6  A    between atoms: C_8  and  O_9 
REMARK    7  A    between atoms: C_14  and  N_15 
REMARK       I    between atoms: N_15  and  C_16 
REMARK    8  A    between atoms: C_16  and  C_17 
REMARK    9  A    between atoms: C_18  and  N_19 
ROOT
HETATM    1  C   UNL     1      40.578 -15.109   3.358  1.00  0.00     0.161 C 
ENDROOT
BRANCH   1   2
HETATM    2  C   UNL     1      41.968 -14.995   4.076  1.00  0.00     0.238 C 
BRANCH   2   3
HETATM    3  N   UNL     1      41.850 -14.355   5.472  1.00  0.00    -0.062 N 
HETATM    4  H   UNL     1      42.284 -15.094   6.059  1.00  0.00     0.280 HD
BRANCH   3   5
HETATM    5  C   UNL     1      40.421 -14.218   5.963  1.00  0.00     0.231 C 
HETATM    6  C   UNL     1      39.983 -12.768   6.041  1.00  0.00     0.034 C 
ENDBRANCH   3   5
BRANCH   3   7
HETATM    7  C   UNL     1      42.634 -13.081   5.661  1.00  0.00     0.231 C 
HETATM    8  C   UNL     1      43.711 -13.260   6.716  1.00  0.00     0.034 C 
ENDBRANCH   3   7
ENDBRANCH   2   3
BRANCH   2   9
HETATM    9  C   UNL     1      42.752 -16.299   4.032  1.00  0.00    -0.023 A 
HETATM   10  C   UNL     1      42.509 -17.211   2.982  1.00  0.00     0.046 A 
HETATM   11  C   UNL     1      43.210 -18.416   2.898  1.00  0.00     0.068 A 
HETATM   12  C   UNL     1      44.183 -18.708   3.853  1.00  0.00     0.037 A 
HETATM   13  C   UNL     1      44.430 -17.828   4.904  1.00  0.00     0.003 A 
HETATM   14  C   UNL     1      43.715 -16.634   4.998  1.00  0.00     0.009 A 
BRANCH  11  15
HETATM   15  O   UNL     1      43.055 -19.362   1.927  1.00  0.00    -0.356 OA
HETATM   16  C   UNL     1      43.917 -20.492   1.983  1.00  0.00     0.210 C 
ENDBRANCH  11  15
ENDBRANCH   2   9
ENDBRANCH   1   2
BRANCH   1  17
HETATM   17  N   UNL     1      40.205 -14.077   2.383  1.00  0.00    -0.354 N 
HETATM   18  C   UNL     1      40.587 -14.157   1.052  1.00  0.00     0.253 C 
HETATM   19  O   UNL     1      41.654 -14.677   0.749  1.00  0.00    -0.268 OA
HETATM   20  H   UNL     1      39.315 -13.618   2.556  1.00  0.00     0.162 HD
BRANCH  18  21
HETATM   21  C   UNL     1      39.620 -13.605   0.057  1.00  0.00     0.059 A 
HETATM   22  C   UNL     1      39.047 -12.313   0.143  1.00  0.00     0.046 A 
HETATM   23  C   UNL     1      38.291 -11.912  -0.981  1.00  0.00     0.031 A 
HETATM   24  C   UNL     1      38.071 -12.735  -2.093  1.00  0.00     0.009 A 
HETATM   25  C   UNL     1      38.618 -14.009  -2.146  1.00  0.00    -0.061 A 
HETATM   26  C   UNL     1      38.431 -14.874  -3.357  1.00  0.00     0.048 C 
HETATM   27  C   UNL     1      39.415 -14.425  -1.081  1.00  0.00     0.026 A 
BRANCH  22  28
HETATM   28  N   UNL     1      39.187 -11.447   1.218  1.00  0.00    -0.380 N 
HETATM   29  C   UNL     1      38.057 -11.026   2.045  1.00  0.00     0.123 C 
HETATM   30  C   UNL     1      38.444  -9.642   2.564  1.00  0.00     0.021 C 
HETATM   31  C   UNL     1      39.960  -9.698   2.589  1.00  0.00     0.021 C 
HETATM   32  C   UNL     1      40.268 -10.455   1.303  1.00  0.00     0.123 C 
ENDBRANCH  22  28
ENDBRANCH  18  21
ENDBRANCH   1  17
TORSDOF 9
ENDMDL
MODEL 8
REMARK VINA RESULT:      -7.0      3.026      7.446
REMARK  9 active torsions:
REMARK  status: ('A' for Active; 'I' for Inactive)
REMARK    1  A    between atoms: C_2  and  N_3 
REMARK    2  A    between atoms: N_3  and  C_5 
REMARK    3  A    between atoms: N_3  and  C_30 
REMARK    4  A    between atoms: C_5  and  C_6 
REMARK    5  A    between atoms: C_5  and  C_14 
REMARK    6  A    between atoms: C_8  and  O_9 
REMARK    7  A    between atoms: C_14  and  N_15 
REMARK       I    between atoms: N_15  and  C_16 
REMARK    8  A    between atoms: C_16  and  C_17 
REMARK    9  A    between atoms: C_18  and  N_19 
ROOT
HETATM    1  C   UNL     1      40.547 -15.298   2.970  1.00  0.00     0.161 C 
ENDROOT
BRANCH   1   2
HETATM    2  C   UNL     1      41.965 -15.364   3.638  1.00  0.00     0.238 C 
BRANCH   2   3
HETATM    3  N   UNL     1      41.949 -14.843   5.087  1.00  0.00    -0.062 N 
HETATM    4  H   UNL     1      42.292 -15.681   5.596  1.00  0.00     0.280 HD
BRANCH   3   5
HETATM    5  C   UNL     1      40.556 -14.571   5.624  1.00  0.00     0.231 C 
HETATM    6  C   UNL     1      40.321 -13.093   5.872  1.00  0.00     0.034 C 
ENDBRANCH   3   5
BRANCH   3   7
HETATM    7  C   UNL     1      42.892 -13.701   5.368  1.00  0.00     0.231 C 
HETATM    8  C   UNL     1      43.785 -14.016   6.555  1.00  0.00     0.034 C 
ENDBRANCH   3   7
ENDBRANCH   2   3
BRANCH   2   9
HETATM    9  C   UNL     1      42.631 -16.720   3.450  1.00  0.00    -0.023 A 
HETATM   10  C   UNL     1      43.123 -17.406   4.582  1.00  0.00     0.046 A 
HETATM   11  C   UNL     1      43.734 -18.655   4.458  1.00  0.00     0.068 A 
HETATM   12  C   UNL     1      43.836 -19.243   3.198  1.00  0.00     0.037 A 
HETATM   13  C   UNL     1      43.368 -18.579   2.067  1.00  0.00     0.003 A 
HETATM   14  C   UNL     1      42.775 -17.322   2.190  1.00  0.00     0.009 A 
BRANCH  11  15
HETATM   15  O   UNL     1      44.239 -19.401   5.484  1.00  0.00    -0.356 OA
HETATM   16  C   UNL     1      44.200 -20.814   5.332  1.00  0.00     0.210 C 
ENDBRANCH  11  15
ENDBRANCH   2   9
ENDBRANCH   1   2
BRANCH   1  17
HETATM   17  N   UNL     1      40.379 -14.485   1.760  1.00  0.00    -0.354 N 
HETATM   18  C   UNL     1      39.772 -13.238   1.795  1.00  0.00     0.253 C 
HETATM   19  O   UNL     1      38.875 -13.013   2.598  1.00  0.00    -0.268 OA
HETATM   20  H   UNL     1      41.103 -14.599   1.056  1.00  0.00     0.162 HD
BRANCH  18  21
HETATM   21  C   UNL     1      40.298 -12.223   0.834  1.00  0.00     0.059 A 
HETATM   22  C   UNL     1      40.961 -11.035   1.224  1.00  0.00     0.046 A 
HETATM   23  C   UNL     1      41.534 -10.289   0.168  1.00  0.00     0.031 A 
HETATM   24  C   UNL     1      41.425 -10.655  -1.180  1.00  0.00     0.009 A 
HETATM   25  C   UNL     1      40.746 -11.810  -1.543  1.00  0.00    -0.061 A 
HETATM   26  C   UNL     1      40.673 -12.236  -2.979  1.00  0.00     0.048 C 
HETATM   27  C   UNL     1      40.212 -12.604  -0.529  1.00  0.00     0.026 A 
BRANCH  22  28
HETATM   28  N   UNL     1      41.088 -10.581   2.528  1.00  0.00    -0.380 N 
HETATM   29  C   UNL     1      40.290  -9.478   3.062  1.00  0.00     0.123 C 
HETATM   30  C   UNL     1      41.164  -8.848   4.146  1.00  0.00     0.021 C 
HETATM   31  C   UNL     1      42.019 -10.011   4.613  1.00  0.00     0.021 C 
HETATM   32  C   UNL     1      42.331 -10.719   3.301  1.00  0.00     0.123 C 
ENDBRANCH  22  28
ENDBRANCH  18  21
ENDBRANCH   1  17
TORSDOF 9
ENDMDL
MODEL 9
REMARK VINA RESULT:      -7.0      1.952      7.386
REMARK  9 active torsions:
REMARK  status: ('A' for Active; 'I' for Inactive)
REMARK    1  A    between atoms: C_2  and  N_3 
REMARK    2  A    between atoms: N_3  and  C_5 
REMARK    3  A    between atoms: N_3  and  C_30 
REMARK    4  A    between atoms: C_5  and  C_6 
REMARK    5  A    between atoms: C_5  and  C_14 
REMARK    6  A    between atoms: C_8  and  O_9 
REMARK    7  A    between atoms: C_14  and  N_15 
REMARK       I    between atoms: N_15  and  C_16 
REMARK    8  A    between atoms: C_16  and  C_17 
REMARK    9  A    between atoms: C_18  and  N_19 
ROOT
HETATM    1  C   UNL     1      43.553 -15.656   4.749  1.00  0.00     0.161 C 
ENDROOT
BRANCH   1   2
HETATM    2  C   UNL     1      43.280 -16.357   3.373  1.00  0.00     0.238 C 
BRANCH   2   3
HETATM    3  N   UNL     1      43.271 -17.892   3.496  1.00  0.00    -0.062 N 
HETATM    4  H   UNL     1      42.369 -18.039   3.990  1.00  0.00     0.280 HD
BRANCH   3   5
HETATM    5  C   UNL     1      44.345 -18.438   4.418  1.00  0.00     0.231 C 
HETATM    6  C   UNL     1      43.759 -19.022   5.690  1.00  0.00     0.034 C 
ENDBRANCH   3   5
BRANCH   3   7
HETATM    7  C   UNL     1      43.219 -18.640   2.188  1.00  0.00     0.231 C 
HETATM    8  C   UNL     1      43.467 -20.122   2.401  1.00  0.00     0.034 C 
ENDBRANCH   3   7
ENDBRANCH   2   3
BRANCH   2   9
HETATM    9  C   UNL     1      42.080 -15.764   2.647  1.00  0.00    -0.023 A 
HETATM   10  C   UNL     1      42.291 -14.758   1.680  1.00  0.00     0.046 A 
HETATM   11  C   UNL     1      41.221 -14.192   0.985  1.00  0.00     0.068 A 
HETATM   12  C   UNL     1      39.927 -14.647   1.234  1.00  0.00     0.037 A 
HETATM   13  C   UNL     1      39.696 -15.629   2.193  1.00  0.00     0.003 A 
HETATM   14  C   UNL     1      40.763 -16.181   2.901  1.00  0.00     0.009 A 
BRANCH  11  15
HETATM   15  O   UNL     1      41.316 -13.219   0.031  1.00  0.00    -0.356 OA
HETATM   16  C   UNL     1      40.114 -12.547  -0.325  1.00  0.00     0.210 C 
ENDBRANCH  11  15
ENDBRANCH   2   9
ENDBRANCH   1   2
BRANCH   1  17
HETATM   17  N   UNL     1      43.093 -14.274   4.937  1.00  0.00    -0.354 N 
HETATM   18  C   UNL     1      42.680 -13.803   6.174  1.00  0.00     0.253 C 
HETATM   19  O   UNL     1      42.127 -14.557   6.966  1.00  0.00    -0.268 OA
HETATM   20  H   UNL     1      43.528 -13.586   4.329  1.00  0.00     0.162 HD
BRANCH  18  21
HETATM   21  C   UNL     1      42.975 -12.368   6.463  1.00  0.00     0.059 A 
HETATM   22  C   UNL     1      42.156 -11.292   6.043  1.00  0.00     0.046 A 
HETATM   23  C   UNL     1      42.511 -10.026   6.559  1.00  0.00     0.031 A 
HETATM   24  C   UNL     1      43.620  -9.817   7.390  1.00  0.00     0.009 A 
HETATM   25  C   UNL     1      44.427 -10.881   7.767  1.00  0.00    -0.061 A 
HETATM   26  C   UNL     1      45.583 -10.673   8.700  1.00  0.00     0.048 C 
HETATM   27  C   UNL     1      44.081 -12.157   7.324  1.00  0.00     0.026 A 
BRANCH  22  28
HETATM   28  N   UNL     1      41.061 -11.403   5.198  1.00  0.00    -0.380 N 
HETATM   29  C   UNL     1      39.813 -12.047   5.604  1.00  0.00     0.123 C 
HETATM   30  C   UNL     1      39.212 -12.594   4.310  1.00  0.00     0.021 C 
HETATM   31  C   UNL     1      39.756 -11.647   3.255  1.00  0.00     0.021 C 
HETATM   32  C   UNL     1      41.186 -11.431   3.734  1.00  0.00     0.123 C 
ENDBRANCH  22  28
ENDBRANCH  18  21
ENDBRANCH   1  17
TORSDOF 9
ENDMDL
MODEL 10
REMARK VINA RESULT:      -6.8      2.038      7.344
REMARK  9 active torsions:
REMARK  status: ('A' for Active; 'I' for Inactive)
REMARK    1  A    between atoms: C_2  and  N_3 
REMARK    2  A    between atoms: N_3  and  C_5 
REMARK    3  A    between atoms: N_3  and  C_30 
REMARK    4  A    between atoms: C_5  and  C_6 
REMARK    5  A    between atoms: C_5  and  C_14 
REMARK    6  A    between atoms: C_8  and  O_9 
REMARK    7  A    between atoms: C_14  and  N_15 
REMARK       I    between atoms: N_15  and  C_16 
REMARK    8  A    between atoms: C_16  and  C_17 
REMARK    9  A    between atoms: C_18  and  N_19 
ROOT
HETATM    1  C   UNL     1      43.321 -13.239   4.188  1.00  0.00     0.161 C 
ENDROOT
BRANCH   1   2
HETATM    2  C   UNL     1      42.257 -14.377   3.999  1.00  0.00     0.238 C 
BRANCH   2   3
HETATM    3  N   UNL     1      41.594 -14.326   2.610  1.00  0.00    -0.062 N 
HETATM    4  H   UNL     1      42.049 -15.140   2.151  1.00  0.00     0.280 HD
BRANCH   3   5
HETATM    5  C   UNL     1      41.988 -13.112   1.788  1.00  0.00     0.231 C 
HETATM    6  C   UNL     1      40.827 -12.579   0.971  1.00  0.00     0.034 C 
ENDBRANCH   3   5
BRANCH   3   7
HETATM    7  C   UNL     1      40.104 -14.552   2.602  1.00  0.00     0.231 C 
HETATM    8  C   UNL     1      39.765 -15.918   2.032  1.00  0.00     0.034 C 
ENDBRANCH   3   7
ENDBRANCH   2   3
BRANCH   2   9
HETATM    9  C   UNL     1      42.790 -15.743   4.407  1.00  0.00    -0.023 A 
HETATM   10  C   UNL     1      43.252 -16.627   3.407  1.00  0.00     0.046 A 
HETATM   11  C   UNL     1      43.756 -17.886   3.737  1.00  0.00     0.068 A 
HETATM   12  C   UNL     1      43.827 -18.264   5.077  1.00  0.00     0.037 A 
HETATM   13  C   UNL     1      43.366 -17.413   6.077  1.00  0.00     0.003 A 
HETATM   14  C   UNL     1      42.845 -16.163   5.746  1.00  0.00     0.009 A 
BRANCH  11  15
HETATM   15  O   UNL     1      44.229 -18.811   2.852  1.00  0.00    -0.356 OA
HETATM   16  C   UNL     1      43.264 -19.588   2.153  1.00  0.00     0.210 C 
ENDBRANCH  11  15
ENDBRANCH   2   9
ENDBRANCH   1   2
BRANCH   1  17
HETATM   17  N   UNL     1      43.537 -12.698   5.536  1.00  0.00    -0.354 N 
HETATM   18  C   UNL     1      44.219 -11.509   5.745  1.00  0.00     0.253 C 
HETATM   19  O   UNL     1      45.130 -11.182   4.993  1.00  0.00    -0.268 OA
HETATM   20  H   UNL     1      42.806 -12.908   6.210  1.00  0.00     0.162 HD
BRANCH  18  21
HETATM   21  C   UNL     1      43.756 -10.678   6.896  1.00  0.00     0.059 A 
HETATM   22  C   UNL     1      42.466 -10.102   6.986  1.00  0.00     0.046 A 
HETATM   23  C   UNL     1      42.161  -9.497   8.226  1.00  0.00     0.031 A 
HETATM   24  C   UNL     1      43.071  -9.418   9.288  1.00  0.00     0.009 A 
HETATM   25  C   UNL     1      44.341  -9.964   9.169  1.00  0.00    -0.061 A 
HETATM   26  C   UNL     1      45.300  -9.931  10.322  1.00  0.00     0.048 C 
HETATM   27  C   UNL     1      44.665 -10.619   7.982  1.00  0.00     0.026 A 
BRANCH  22  28
HETATM   28  N   UNL     1      41.516 -10.106   5.975  1.00  0.00    -0.380 N 
HETATM   29  C   UNL     1      40.450 -11.104   5.897  1.00  0.00     0.123 C 
HETATM   30  C   UNL     1      40.129 -11.221   4.407  1.00  0.00     0.021 C 
HETATM   31  C   UNL     1      40.494  -9.849   3.871  1.00  0.00     0.021 C 
HETATM   32  C   UNL     1      41.770  -9.539   4.643  1.00  0.00     0.123 C 
ENDBRANCH  22  28
ENDBRANCH  18  21
ENDBRANCH   1  17
TORSDOF 9
ENDMDL
