MODEL 1
REMARK VINA RESULT:      -8.1      0.000      0.000
REMARK  6 active torsions:
REMARK  status: ('A' for Active; 'I' for Inactive)
REMARK    1  A    between atoms: C_2  and  C_3 
REMARK    2  A    between atoms: C_3  and  N_4 
REMARK    3  A    between atoms: C_3  and  C_11 
REMARK    4  A    between atoms: N_4  and  C_5 
REMARK       I    between atoms: C_11  and  N_12 
REMARK    5  A    between atoms: N_12  and  N_13 
REMARK    6  A    between atoms: C_14  and  C_15 
ROOT
HETATM    1  C   UNL     1      41.763 -15.409   4.607  1.00  0.00     0.255 C 
HETATM    2  N   UNL     1      42.862 -14.601   4.881  1.00  0.00    -0.246 N 
HETATM    3  O   UNL     1      40.635 -15.292   5.080  1.00  0.00    -0.270 OA
HETATM    4  H   UNL     1      43.707 -14.783   4.340  1.00  0.00     0.192 HD
ENDROOT
BRANCH   2   5
HETATM    5  N   UNL     1      42.956 -13.554   5.757  1.00  0.00    -0.184 NA
HETATM    6  C   UNL     1      42.858 -12.338   5.327  1.00  0.00     0.152 C 
BRANCH   6   7
HETATM    7  C   UNL     1      42.955 -11.243   6.276  1.00  0.00     0.011 A 
HETATM    8  C   UNL     1      44.141 -10.766   6.921  1.00  0.00     0.004 A 
HETATM    9  C   UNL     1      43.774  -9.691   7.732  1.00  0.00     0.043 A 
HETATM   10  C   UNL     1      45.501 -11.146   6.887  1.00  0.00     0.014 A 
HETATM   11  C   UNL     1      44.695  -8.975   8.507  1.00  0.00     0.030 A 
HETATM   12  N   UNL     1      42.416  -9.525   7.592  1.00  0.00    -0.364 N 
HETATM   13  C   UNL     1      46.034  -9.372   8.454  1.00  0.00     0.002 A 
HETATM   14  C   UNL     1      46.434 -10.441   7.658  1.00  0.00     0.001 A 
HETATM   15  H   UNL     1      41.873  -8.816   8.067  1.00  0.00     0.165 HD
HETATM   16  C   UNL     1      41.913 -10.450   6.720  1.00  0.00     0.102 A 
ENDBRANCH   6   7
ENDBRANCH   2   5
BRANCH   1  17
HETATM   17  C   UNL     1      42.094 -16.512   3.573  1.00  0.00     0.154 C 
BRANCH  17  18
HETATM   18  C   UNL     1      41.923 -15.967   2.146  1.00  0.00     0.025 C 
HETATM   19  C   UNL     1      43.251 -15.611   1.490  1.00  0.00     0.007 C 
ENDBRANCH  17  18
BRANCH  17  20
HETATM   20  N   UNL     1      43.508 -16.948   3.780  1.00  0.00    -0.280 NA
HETATM   21  H   UNL     1      43.829 -16.610   4.693  1.00  0.00     0.128 HD
BRANCH  20  22
HETATM   22  C   UNL     1      43.717 -18.343   3.796  1.00  0.00     0.009 A 
HETATM   23  C   UNL     1      43.975 -18.962   5.023  1.00  0.00     0.023 A 
HETATM   24  C   UNL     1      44.116 -20.348   5.111  1.00  0.00     0.002 A 
HETATM   25  C   UNL     1      43.973 -21.135   3.971  1.00  0.00     0.000 A 
HETATM   26  C   UNL     1      43.684 -20.535   2.747  1.00  0.00     0.002 A 
HETATM   27  C   UNL     1      43.547 -19.147   2.662  1.00  0.00     0.023 A 
ENDBRANCH  20  22
ENDBRANCH  17  20
ENDBRANCH   1  17
TORSDOF 6
ENDMDL
MODEL 2
REMARK VINA RESULT:      -8.1      1.740      2.427
REMARK  6 active torsions:
REMARK  status: ('A' for Active; 'I' for Inactive)
REMARK    1  A    between atoms: C_2  and  C_3 
REMARK    2  A    between atoms: C_3  and  N_4 
REMARK    3  A    between atoms: C_3  and  C_11 
REMARK    4  A    between atoms: N_4  and  C_5 
REMARK       I    between atoms: C_11  and  N_12 
REMARK    5  A    between atoms: N_12  and  N_13 
REMARK    6  A    between atoms: C_14  and  C_15 
ROOT
HETATM    1  C   UNL     1      43.675 -15.766   6.264  1.00  0.00     0.255 C 
HETATM    2  N   UNL     1      43.235 -14.447   6.316  1.00  0.00    -0.246 N 
HETATM    3  O   UNL     1      44.677 -16.223   6.809  1.00  0.00    -0.270 OA
HETATM    4  H   UNL     1      42.337 -14.250   5.876  1.00  0.00     0.192 HD
ENDROOT
BRANCH   2   5
HETATM    5  N   UNL     1      43.827 -13.371   6.920  1.00  0.00    -0.184 NA
HETATM    6  C   UNL     1      44.313 -12.410   6.204  1.00  0.00     0.152 C 
BRANCH   6   7
HETATM    7  C   UNL     1      44.930 -11.276   6.867  1.00  0.00     0.011 A 
HETATM    8  C   UNL     1      44.264 -10.235   7.590  1.00  0.00     0.004 A 
HETATM    9  C   UNL     1      45.244  -9.367   8.074  1.00  0.00     0.043 A 
HETATM   10  C   UNL     1      42.912  -9.949   7.884  1.00  0.00     0.014 A 
HETATM   11  C   UNL     1      44.944  -8.233   8.839  1.00  0.00     0.030 A 
HETATM   12  N   UNL     1      46.460  -9.857   7.656  1.00  0.00    -0.364 N 
HETATM   13  C   UNL     1      43.598  -7.976   9.115  1.00  0.00     0.002 A 
HETATM   14  C   UNL     1      42.595  -8.819   8.645  1.00  0.00     0.001 A 
HETATM   15  H   UNL     1      47.352  -9.428   7.862  1.00  0.00     0.165 HD
HETATM   16  C   UNL     1      46.284 -11.003   6.931  1.00  0.00     0.102 A 
ENDBRANCH   6   7
ENDBRANCH   2   5
BRANCH   1  17
HETATM   17  C   UNL     1      42.723 -16.666   5.440  1.00  0.00     0.154 C 
BRANCH  17  18
HETATM   18  C   UNL     1      41.363 -15.972   5.262  1.00  0.00     0.025 C 
HETATM   19  C   UNL     1      40.780 -16.171   3.869  1.00  0.00     0.007 C 
ENDBRANCH  17  18
BRANCH  17  20
HETATM   20  N   UNL     1      43.342 -16.913   4.102  1.00  0.00    -0.280 NA
HETATM   21  H   UNL     1      44.258 -16.453   4.071  1.00  0.00     0.128 HD
BRANCH  20  22
HETATM   22  C   UNL     1      43.584 -18.266   3.786  1.00  0.00     0.009 A 
HETATM   23  C   UNL     1      43.949 -19.134   4.820  1.00  0.00     0.023 A 
HETATM   24  C   UNL     1      44.128 -20.498   4.580  1.00  0.00     0.002 A 
HETATM   25  C   UNL     1      43.918 -21.013   3.304  1.00  0.00     0.000 A 
HETATM   26  C   UNL     1      43.522 -20.165   2.271  1.00  0.00     0.002 A 
HETATM   27  C   UNL     1      43.347 -18.800   2.514  1.00  0.00     0.023 A 
ENDBRANCH  20  22
ENDBRANCH  17  20
ENDBRANCH   1  17
TORSDOF 6
ENDMDL
MODEL 3
REMARK VINA RESULT:      -8.0      4.402      8.247
REMARK  6 active torsions:
REMARK  status: ('A' for Active; 'I' for Inactive)
REMARK    1  A    between atoms: C_2  and  C_3 
REMARK    2  A    between atoms: C_3  and  N_4 
REMARK    3  A    between atoms: C_3  and  C_11 
REMARK    4  A    between atoms: N_4  and  C_5 
REMARK       I    between atoms: C_11  and  N_12 
REMARK    5  A    between atoms: N_12  and  N_13 
REMARK    6  A    between atoms: C_14  and  C_15 
ROOT
HETATM    1  C   UNL     1      40.088 -13.301   2.603  1.00  0.00     0.255 C 
HETATM    2  N   UNL     1      40.979 -14.301   2.223  1.00  0.00    -0.246 N 
HETATM    3  O   UNL     1      39.633 -13.119   3.730  1.00  0.00    -0.270 OA
HETATM    4  H   UNL     1      41.324 -14.262   1.265  1.00  0.00     0.192 HD
ENDROOT
BRANCH   2   5
HETATM    5  N   UNL     1      41.497 -15.317   2.980  1.00  0.00    -0.184 NA
HETATM    6  C   UNL     1      42.753 -15.610   2.899  1.00  0.00     0.152 C 
BRANCH   6   7
HETATM    7  C   UNL     1      43.281 -16.689   3.715  1.00  0.00     0.011 A 
HETATM    8  C   UNL     1      43.387 -18.070   3.352  1.00  0.00     0.004 A 
HETATM    9  C   UNL     1      43.968 -18.744   4.428  1.00  0.00     0.043 A 
HETATM   10  C   UNL     1      43.046 -18.815   2.201  1.00  0.00     0.014 A 
HETATM   11  C   UNL     1      44.228 -20.119   4.411  1.00  0.00     0.030 A 
HETATM   12  N   UNL     1      44.200 -17.810   5.411  1.00  0.00    -0.364 N 
HETATM   13  C   UNL     1      43.882 -20.831   3.259  1.00  0.00     0.002 A 
HETATM   14  C   UNL     1      43.298 -20.191   2.170  1.00  0.00     0.001 A 
HETATM   15  H   UNL     1      44.616 -18.015   6.309  1.00  0.00     0.165 HD
HETATM   16  C   UNL     1      43.793 -16.572   4.994  1.00  0.00     0.102 A 
ENDBRANCH   6   7
ENDBRANCH   2   5
BRANCH   1  17
HETATM   17  C   UNL     1      39.724 -12.366   1.424  1.00  0.00     0.154 C 
BRANCH  17  18
HETATM   18  C   UNL     1      40.173 -10.929   1.731  1.00  0.00     0.025 C 
HETATM   19  C   UNL     1      41.652 -10.702   1.444  1.00  0.00     0.007 C 
ENDBRANCH  17  18
BRANCH  17  20
HETATM   20  N   UNL     1      40.416 -12.860   0.195  1.00  0.00    -0.280 NA
HETATM   21  H   UNL     1      40.917 -13.725   0.422  1.00  0.00     0.128 HD
BRANCH  20  22
HETATM   22  C   UNL     1      39.572 -13.181  -0.889  1.00  0.00     0.009 A 
HETATM   23  C   UNL     1      39.857 -14.331  -1.633  1.00  0.00     0.023 A 
HETATM   24  C   UNL     1      39.015 -14.739  -2.669  1.00  0.00     0.002 A 
HETATM   25  C   UNL     1      37.862 -14.013  -2.956  1.00  0.00     0.000 A 
HETATM   26  C   UNL     1      37.550 -12.883  -2.201  1.00  0.00     0.002 A 
HETATM   27  C   UNL     1      38.396 -12.476  -1.167  1.00  0.00     0.023 A 
ENDBRANCH  20  22
ENDBRANCH  17  20
ENDBRANCH   1  17
TORSDOF 6
ENDMDL
MODEL 4
REMARK VINA RESULT:      -7.9      3.079      9.310
REMARK  6 active torsions:
REMARK  status: ('A' for Active; 'I' for Inactive)
REMARK    1  A    between atoms: C_2  and  C_3 
REMARK    2  A    between atoms: C_3  and  N_4 
REMARK    3  A    between atoms: C_3  and  C_11 
REMARK    4  A    between atoms: N_4  and  C_5 
REMARK       I    between atoms: C_11  and  N_12 
REMARK    5  A    between atoms: N_12  and  N_13 
REMARK    6  A    between atoms: C_14  and  C_15 
ROOT
HETATM    1  C   UNL     1      44.527 -11.332   7.931  1.00  0.00     0.255 C 
HETATM    2  N   UNL     1      43.619 -12.334   7.601  1.00  0.00    -0.246 N 
HETATM    3  O   UNL     1      45.684 -11.235   7.528  1.00  0.00    -0.270 OA
HETATM    4  H   UNL     1      42.670 -12.222   7.957  1.00  0.00     0.192 HD
ENDROOT
BRANCH   2   5
HETATM    5  N   UNL     1      43.813 -13.440   6.819  1.00  0.00    -0.184 NA
HETATM    6  C   UNL     1      43.192 -14.542   7.088  1.00  0.00     0.152 C 
BRANCH   6   7
HETATM    7  C   UNL     1      43.408 -15.701   6.241  1.00  0.00     0.011 A 
HETATM    8  C   UNL     1      43.248 -15.769   4.819  1.00  0.00     0.004 A 
HETATM    9  C   UNL     1      43.580 -17.065   4.422  1.00  0.00     0.043 A 
HETATM   10  C   UNL     1      42.855 -14.843   3.827  1.00  0.00     0.014 A 
HETATM   11  C   UNL     1      43.543 -17.482   3.086  1.00  0.00     0.030 A 
HETATM   12  N   UNL     1      43.921 -17.761   5.558  1.00  0.00    -0.364 N 
HETATM   13  C   UNL     1      43.152 -16.545   2.125  1.00  0.00     0.002 A 
HETATM   14  C   UNL     1      42.811 -15.246   2.487  1.00  0.00     0.001 A 
HETATM   15  H   UNL     1      44.207 -18.731   5.571  1.00  0.00     0.165 HD
HETATM   16  C   UNL     1      43.823 -16.952   6.656  1.00  0.00     0.102 A 
ENDBRANCH   6   7
ENDBRANCH   2   5
BRANCH   1  17
HETATM   17  C   UNL     1      43.911 -10.276   8.879  1.00  0.00     0.154 C 
BRANCH  17  18
HETATM   18  C   UNL     1      42.608  -9.723   8.278  1.00  0.00     0.025 C 
HETATM   19  C   UNL     1      42.746  -8.282   7.805  1.00  0.00     0.007 C 
ENDBRANCH  17  18
BRANCH  17  20
HETATM   20  N   UNL     1      43.622 -10.927  10.193  1.00  0.00    -0.280 NA
HETATM   21  H   UNL     1      44.468 -11.407  10.517  1.00  0.00     0.128 HD
BRANCH  20  22
HETATM   22  C   UNL     1      43.258 -10.051  11.237  1.00  0.00     0.009 A 
HETATM   23  C   UNL     1      42.318 -10.492  12.174  1.00  0.00     0.023 A 
HETATM   24  C   UNL     1      41.974  -9.698  13.271  1.00  0.00     0.002 A 
HETATM   25  C   UNL     1      42.588  -8.462  13.454  1.00  0.00     0.000 A 
HETATM   26  C   UNL     1      43.549  -8.025  12.545  1.00  0.00     0.002 A 
HETATM   27  C   UNL     1      43.889  -8.820  11.447  1.00  0.00     0.023 A 
ENDBRANCH  20  22
ENDBRANCH  17  20
ENDBRANCH   1  17
TORSDOF 6
ENDMDL
MODEL 5
REMARK VINA RESULT:      -7.8      1.629      2.293
REMARK  6 active torsions:
REMARK  status: ('A' for Active; 'I' for Inactive)
REMARK    1  A    between atoms: C_2  and  C_3 
REMARK    2  A    between atoms: C_3  and  N_4 
REMARK    3  A    between atoms: C_3  and  C_11 
REMARK    4  A    between atoms: N_4  and  C_5 
REMARK       I    between atoms: C_11  and  N_12 
REMARK    5  A    between atoms: N_12  and  N_13 
REMARK    6  A    between atoms: C_14  and  C_15 
ROOT
HETATM    1  C   UNL     1      42.817 -14.255   3.725  1.00  0.00     0.255 C 
HETATM    2  N   UNL     1      42.909 -13.804   5.038  1.00  0.00    -0.246 N 
HETATM    3  O   UNL     1      43.307 -13.719   2.734  1.00  0.00    -0.270 OA
HETATM    4  H   UNL     1      42.515 -14.412   5.756  1.00  0.00     0.192 HD
ENDROOT
BRANCH   2   5
HETATM    5  N   UNL     1      43.500 -12.664   5.512  1.00  0.00    -0.184 NA
HETATM    6  C   UNL     1      44.299 -12.722   6.527  1.00  0.00     0.152 C 
BRANCH   6   7
HETATM    7  C   UNL     1      44.921 -11.501   7.007  1.00  0.00     0.011 A 
HETATM    8  C   UNL     1      44.276 -10.419   7.690  1.00  0.00     0.004 A 
HETATM    9  C   UNL     1      45.253  -9.466   7.982  1.00  0.00     0.043 A 
HETATM   10  C   UNL     1      42.947 -10.162   8.094  1.00  0.00     0.014 A 
HETATM   11  C   UNL     1      44.972  -8.273   8.659  1.00  0.00     0.030 A 
HETATM   12  N   UNL     1      46.445  -9.945   7.490  1.00  0.00    -0.364 N 
HETATM   13  C   UNL     1      43.649  -8.045   9.048  1.00  0.00     0.002 A 
HETATM   14  C   UNL     1      42.650  -8.973   8.770  1.00  0.00     0.001 A 
HETATM   15  H   UNL     1      47.329  -9.460   7.558  1.00  0.00     0.165 HD
HETATM   16  C   UNL     1      46.258 -11.166   6.903  1.00  0.00     0.102 A 
ENDBRANCH   6   7
ENDBRANCH   2   5
BRANCH   1  17
HETATM   17  C   UNL     1      42.025 -15.581   3.618  1.00  0.00     0.154 C 
BRANCH  17  18
HETATM   18  C   UNL     1      40.558 -15.292   3.264  1.00  0.00     0.025 C 
HETATM   19  C   UNL     1      40.187 -15.768   1.866  1.00  0.00     0.007 C 
ENDBRANCH  17  18
BRANCH  17  20
HETATM   20  N   UNL     1      42.646 -16.420   2.549  1.00  0.00    -0.280 NA
HETATM   21  H   UNL     1      43.437 -15.909   2.143  1.00  0.00     0.128 HD
BRANCH  20  22
HETATM   22  C   UNL     1      43.172 -17.657   2.978  1.00  0.00     0.009 A 
HETATM   23  C   UNL     1      43.670 -17.750   4.282  1.00  0.00     0.023 A 
HETATM   24  C   UNL     1      44.134 -18.966   4.786  1.00  0.00     0.002 A 
HETATM   25  C   UNL     1      44.081 -20.112   3.997  1.00  0.00     0.000 A 
HETATM   26  C   UNL     1      43.558 -20.041   2.707  1.00  0.00     0.002 A 
HETATM   27  C   UNL     1      43.097 -18.821   2.205  1.00  0.00     0.023 A 
ENDBRANCH  20  22
ENDBRANCH  17  20
ENDBRANCH   1  17
TORSDOF 6
ENDMDL
MODEL 6
REMARK VINA RESULT:      -7.5      4.733      9.096
REMARK  6 active torsions:
REMARK  status: ('A' for Active; 'I' for Inactive)
REMARK    1  A    between atoms: C_2  and  C_3 
REMARK    2  A    between atoms: C_3  and  N_4 
REMARK    3  A    between atoms: C_3  and  C_11 
REMARK    4  A    between atoms: N_4  and  C_5 
REMARK       I    between atoms: C_11  and  N_12 
REMARK    5  A    between atoms: N_12  and  N_13 
REMARK    6  A    between atoms: C_14  and  C_15 
ROOT
HETATM    1  C   UNL     1      40.595 -14.029   0.895  1.00  0.00     0.255 C 
HETATM    2  N   UNL     1      41.482 -15.098   0.811  1.00  0.00    -0.246 N 
HETATM    3  O   UNL     1      40.027 -13.631   1.909  1.00  0.00    -0.270 OA
HETATM    4  H   UNL     1      41.931 -15.246  -0.092  1.00  0.00     0.192 HD
ENDROOT
BRANCH   2   5
HETATM    5  N   UNL     1      41.873 -15.964   1.796  1.00  0.00    -0.184 NA
HETATM    6  C   UNL     1      43.032 -15.831   2.354  1.00  0.00     0.152 C 
BRANCH   6   7
HETATM    7  C   UNL     1      43.423 -16.757   3.401  1.00  0.00     0.011 A 
HETATM    8  C   UNL     1      43.530 -18.181   3.294  1.00  0.00     0.004 A 
HETATM    9  C   UNL     1      43.954 -18.664   4.533  1.00  0.00     0.043 A 
HETATM   10  C   UNL     1      43.310 -19.110   2.253  1.00  0.00     0.014 A 
HETATM   11  C   UNL     1      44.173 -20.025   4.783  1.00  0.00     0.030 A 
HETATM   12  N   UNL     1      44.093 -17.578   5.364  1.00  0.00    -0.364 N 
HETATM   13  C   UNL     1      43.948 -20.921   3.735  1.00  0.00     0.002 A 
HETATM   14  C   UNL     1      43.522 -20.473   2.488  1.00  0.00     0.001 A 
HETATM   15  H   UNL     1      44.390 -17.628   6.330  1.00  0.00     0.165 HD
HETATM   16  C   UNL     1      43.778 -16.427   4.696  1.00  0.00     0.102 A 
ENDBRANCH   6   7
ENDBRANCH   2   5
BRANCH   1  17
HETATM   17  C   UNL     1      40.399 -13.326  -0.470  1.00  0.00     0.154 C 
BRANCH  17  18
HETATM   18  C   UNL     1      39.289 -14.027  -1.270  1.00  0.00     0.025 C 
HETATM   19  C   UNL     1      39.676 -14.270  -2.722  1.00  0.00     0.007 C 
ENDBRANCH  17  18
BRANCH  17  20
HETATM   20  N   UNL     1      40.019 -11.902  -0.222  1.00  0.00    -0.280 NA
HETATM   21  H   UNL     1      40.759 -11.452   0.327  1.00  0.00     0.128 HD
BRANCH  20  22
HETATM   22  C   UNL     1      39.862 -11.106  -1.376  1.00  0.00     0.009 A 
HETATM   23  C   UNL     1      38.619 -10.507  -1.604  1.00  0.00     0.023 A 
HETATM   24  C   UNL     1      38.427  -9.648  -2.688  1.00  0.00     0.002 A 
HETATM   25  C   UNL     1      39.487  -9.361  -3.544  1.00  0.00     0.000 A 
HETATM   26  C   UNL     1      40.739  -9.926  -3.310  1.00  0.00     0.002 A 
HETATM   27  C   UNL     1      40.927 -10.787  -2.225  1.00  0.00     0.023 A 
ENDBRANCH  20  22
ENDBRANCH  17  20
ENDBRANCH   1  17
TORSDOF 6
ENDMDL
MODEL 7
REMARK VINA RESULT:      -7.5      1.471      8.532
REMARK  6 active torsions:
REMARK  status: ('A' for Active; 'I' for Inactive)
REMARK    1  A    between atoms: C_2  and  C_3 
REMARK    2  A    between atoms: C_3  and  N_4 
REMARK    3  A    between atoms: C_3  and  C_11 
REMARK    4  A    between atoms: N_4  and  C_5 
REMARK       I    between atoms: C_11  and  N_12 
REMARK    5  A    between atoms: N_12  and  N_13 
REMARK    6  A    between atoms: C_14  and  C_15 
ROOT
HETATM    1  C   UNL     1      41.651 -13.174   5.571  1.00  0.00     0.255 C 
HETATM    2  N   UNL     1      42.719 -14.068   5.553  1.00  0.00    -0.246 N 
HETATM    3  O   UNL     1      40.458 -13.465   5.583  1.00  0.00    -0.270 OA
HETATM    4  H   UNL     1      43.651 -13.663   5.629  1.00  0.00     0.192 HD
ENDROOT
BRANCH   2   5
HETATM    5  N   UNL     1      42.689 -15.434   5.491  1.00  0.00    -0.184 NA
HETATM    6  C   UNL     1      43.793 -16.107   5.470  1.00  0.00     0.152 C 
BRANCH   6   7
HETATM    7  C   UNL     1      43.737 -17.556   5.410  1.00  0.00     0.011 A 
HETATM    8  C   UNL     1      43.734 -18.369   4.230  1.00  0.00     0.004 A 
HETATM    9  C   UNL     1      43.691 -19.703   4.640  1.00  0.00     0.043 A 
HETATM   10  C   UNL     1      43.770 -18.094   2.845  1.00  0.00     0.014 A 
HETATM   11  C   UNL     1      43.685 -20.774   3.738  1.00  0.00     0.030 A 
HETATM   12  N   UNL     1      43.660 -19.702   6.015  1.00  0.00    -0.364 N 
HETATM   13  C   UNL     1      43.722 -20.473   2.374  1.00  0.00     0.002 A 
HETATM   14  C   UNL     1      43.763 -19.154   1.931  1.00  0.00     0.001 A 
HETATM   15  H   UNL     1      43.626 -20.534   6.588  1.00  0.00     0.165 HD
HETATM   16  C   UNL     1      43.689 -18.419   6.488  1.00  0.00     0.102 A 
ENDBRANCH   6   7
ENDBRANCH   2   5
BRANCH   1  17
HETATM   17  C   UNL     1      42.125 -11.701   5.606  1.00  0.00     0.154 C 
BRANCH  17  18
HETATM   18  C   UNL     1      41.035 -10.783   5.030  1.00  0.00     0.025 C 
HETATM   19  C   UNL     1      41.565  -9.404   4.661  1.00  0.00     0.007 C 
ENDBRANCH  17  18
BRANCH  17  20
HETATM   20  N   UNL     1      42.402 -11.325   7.026  1.00  0.00    -0.280 NA
HETATM   21  H   UNL     1      42.352 -12.168   7.608  1.00  0.00     0.128 HD
BRANCH  20  22
HETATM   22  C   UNL     1      43.676 -10.770   7.269  1.00  0.00     0.009 A 
HETATM   23  C   UNL     1      43.752  -9.573   7.987  1.00  0.00     0.023 A 
HETATM   24  C   UNL     1      44.988  -9.015   8.322  1.00  0.00     0.002 A 
HETATM   25  C   UNL     1      46.165  -9.667   7.961  1.00  0.00     0.000 A 
HETATM   26  C   UNL     1      46.103 -10.877   7.273  1.00  0.00     0.002 A 
HETATM   27  C   UNL     1      44.865 -11.430   6.938  1.00  0.00     0.023 A 
ENDBRANCH  20  22
ENDBRANCH  17  20
ENDBRANCH   1  17
TORSDOF 6
ENDMDL
MODEL 8
REMARK VINA RESULT:      -7.3      4.256      7.392
REMARK  6 active torsions:
REMARK  status: ('A' for Active; 'I' for Inactive)
REMARK    1  A    between atoms: C_2  and  C_3 
REMARK    2  A    between atoms: C_3  and  N_4 
REMARK    3  A    between atoms: C_3  and  C_11 
REMARK    4  A    between atoms: N_4  and  C_5 
REMARK       I    between atoms: C_11  and  N_12 
REMARK    5  A    between atoms: N_12  and  N_13 
REMARK    6  A    between atoms: C_14  and  C_15 
ROOT
HETATM    1  C   UNL     1      42.288 -14.062   2.937  1.00  0.00     0.255 C 
HETATM    2  N   UNL     1      40.897 -14.042   2.990  1.00  0.00    -0.246 N 
HETATM    3  O   UNL     1      42.985 -13.791   1.962  1.00  0.00    -0.270 OA
HETATM    4  H   UNL     1      40.474 -14.213   3.901  1.00  0.00     0.192 HD
ENDROOT
BRANCH   2   5
HETATM    5  N   UNL     1      40.007 -13.779   1.984  1.00  0.00    -0.184 NA
HETATM    6  C   UNL     1      40.046 -12.645   1.364  1.00  0.00     0.152 C 
BRANCH   6   7
HETATM    7  C   UNL     1      39.096 -12.390   0.296  1.00  0.00     0.011 A 
HETATM    8  C   UNL     1      38.873 -13.196  -0.867  1.00  0.00     0.004 A 
HETATM    9  C   UNL     1      37.860 -12.587  -1.611  1.00  0.00     0.043 A 
HETATM   10  C   UNL     1      39.437 -14.394  -1.358  1.00  0.00     0.014 A 
HETATM   11  C   UNL     1      37.381 -13.116  -2.815  1.00  0.00     0.030 A 
HETATM   12  N   UNL     1      37.486 -11.452  -0.931  1.00  0.00    -0.364 N 
HETATM   13  C   UNL     1      37.956 -14.304  -3.276  1.00  0.00     0.002 A 
HETATM   14  C   UNL     1      38.970 -14.935  -2.561  1.00  0.00     0.001 A 
HETATM   15  H   UNL     1      36.768 -10.810  -1.239  1.00  0.00     0.165 HD
HETATM   16  C   UNL     1      38.221 -11.323   0.216  1.00  0.00     0.102 A 
ENDBRANCH   6   7
ENDBRANCH   2   5
BRANCH   1  17
HETATM   17  C   UNL     1      42.917 -14.446   4.298  1.00  0.00     0.154 C 
BRANCH  17  18
HETATM   18  C   UNL     1      42.562 -13.393   5.360  1.00  0.00     0.025 C 
HETATM   19  C   UNL     1      43.431 -13.500   6.606  1.00  0.00     0.007 C 
ENDBRANCH  17  18
BRANCH  17  20
HETATM   20  N   UNL     1      42.380 -15.779   4.710  1.00  0.00    -0.280 NA
HETATM   21  H   UNL     1      41.382 -15.820   4.479  1.00  0.00     0.128 HD
BRANCH  20  22
HETATM   22  C   UNL     1      42.964 -16.892   4.071  1.00  0.00     0.009 A 
HETATM   23  C   UNL     1      43.949 -17.609   4.757  1.00  0.00     0.023 A 
HETATM   24  C   UNL     1      44.510 -18.763   4.206  1.00  0.00     0.002 A 
HETATM   25  C   UNL     1      44.071 -19.227   2.969  1.00  0.00     0.000 A 
HETATM   26  C   UNL     1      43.067 -18.540   2.289  1.00  0.00     0.002 A 
HETATM   27  C   UNL     1      42.510 -17.384   2.842  1.00  0.00     0.023 A 
ENDBRANCH  20  22
ENDBRANCH  17  20
ENDBRANCH   1  17
TORSDOF 6
ENDMDL
MODEL 9
REMARK VINA RESULT:      -7.2      2.530      9.341
REMARK  6 active torsions:
REMARK  status: ('A' for Active; 'I' for Inactive)
REMARK    1  A    between atoms: C_2  and  C_3 
REMARK    2  A    between atoms: C_3  and  N_4 
REMARK    3  A    between atoms: C_3  and  C_11 
REMARK    4  A    between atoms: N_4  and  C_5 
REMARK       I    between atoms: C_11  and  N_12 
REMARK    5  A    between atoms: N_12  and  N_13 
REMARK    6  A    between atoms: C_14  and  C_15 
ROOT
HETATM    1  C   UNL     1      42.910 -10.736   6.918  1.00  0.00     0.255 C 
HETATM    2  N   UNL     1      43.007 -12.119   6.797  1.00  0.00    -0.246 N 
HETATM    3  O   UNL     1      42.448  -9.962   6.083  1.00  0.00    -0.270 OA
HETATM    4  H   UNL     1      43.340 -12.624   7.618  1.00  0.00     0.192 HD
ENDROOT
BRANCH   2   5
HETATM    5  N   UNL     1      42.673 -12.910   5.732  1.00  0.00    -0.184 NA
HETATM    6  C   UNL     1      43.120 -14.121   5.657  1.00  0.00     0.152 C 
BRANCH   6   7
HETATM    7  C   UNL     1      42.748 -14.944   4.521  1.00  0.00     0.011 A 
HETATM    8  C   UNL     1      43.212 -16.267   4.228  1.00  0.00     0.004 A 
HETATM    9  C   UNL     1      42.581 -16.681   3.053  1.00  0.00     0.043 A 
HETATM   10  C   UNL     1      44.110 -17.157   4.857  1.00  0.00     0.014 A 
HETATM   11  C   UNL     1      42.799 -17.939   2.478  1.00  0.00     0.030 A 
HETATM   12  N   UNL     1      41.771 -15.649   2.643  1.00  0.00    -0.364 N 
HETATM   13  C   UNL     1      43.692 -18.801   3.123  1.00  0.00     0.002 A 
HETATM   14  C   UNL     1      44.339 -18.418   4.293  1.00  0.00     0.001 A 
HETATM   15  H   UNL     1      41.191 -15.669   1.816  1.00  0.00     0.165 HD
HETATM   16  C   UNL     1      41.862 -14.600   3.517  1.00  0.00     0.102 A 
ENDBRANCH   6   7
ENDBRANCH   2   5
BRANCH   1  17
HETATM   17  C   UNL     1      43.436 -10.232   8.284  1.00  0.00     0.154 C 
BRANCH  17  18
HETATM   18  C   UNL     1      44.829  -9.604   8.114  1.00  0.00     0.025 C 
HETATM   19  C   UNL     1      45.802 -10.033   9.203  1.00  0.00     0.007 C 
ENDBRANCH  17  18
BRANCH  17  20
HETATM   20  N   UNL     1      42.482  -9.209   8.812  1.00  0.00    -0.280 NA
HETATM   21  H   UNL     1      41.524  -9.524   8.631  1.00  0.00     0.128 HD
BRANCH  20  22
HETATM   22  C   UNL     1      42.551  -8.976  10.201  1.00  0.00     0.009 A 
HETATM   23  C   UNL     1      42.635 -10.080  11.056  1.00  0.00     0.023 A 
HETATM   24  C   UNL     1      42.780  -9.910  12.434  1.00  0.00     0.002 A 
HETATM   25  C   UNL     1      42.869  -8.628  12.970  1.00  0.00     0.000 A 
HETATM   26  C   UNL     1      42.819  -7.519  12.127  1.00  0.00     0.002 A 
HETATM   27  C   UNL     1      42.670  -7.693  10.749  1.00  0.00     0.023 A 
ENDBRANCH  20  22
ENDBRANCH  17  20
ENDBRANCH   1  17
TORSDOF 6
ENDMDL
MODEL 10
REMARK VINA RESULT:      -7.2      5.007      7.406
REMARK  6 active torsions:
REMARK  status: ('A' for Active; 'I' for Inactive)
REMARK    1  A    between atoms: C_2  and  C_3 
REMARK    2  A    between atoms: C_3  and  N_4 
REMARK    3  A    between atoms: C_3  and  C_11 
REMARK    4  A    between atoms: N_4  and  C_5 
REMARK       I    between atoms: C_11  and  N_12 
REMARK    5  A    between atoms: N_12  and  N_13 
REMARK    6  A    between atoms: C_14  and  C_15 
ROOT
HETATM    1  C   UNL     1      42.135 -14.709   1.979  1.00  0.00     0.255 C 
HETATM    2  N   UNL     1      40.872 -14.726   1.395  1.00  0.00    -0.246 N 
HETATM    3  O   UNL     1      42.983 -13.827   1.859  1.00  0.00    -0.270 OA
HETATM    4  H   UNL     1      40.258 -15.494   1.663  1.00  0.00     0.192 HD
ENDROOT
BRANCH   2   5
HETATM    5  N   UNL     1      40.317 -13.820   0.532  1.00  0.00    -0.184 NA
HETATM    6  C   UNL     1      39.674 -14.229  -0.512  1.00  0.00     0.152 C 
BRANCH   6   7
HETATM    7  C   UNL     1      39.088 -13.250  -1.410  1.00  0.00     0.011 A 
HETATM    8  C   UNL     1      38.258 -12.139  -1.049  1.00  0.00     0.004 A 
HETATM    9  C   UNL     1      37.939 -11.455  -2.223  1.00  0.00     0.043 A 
HETATM   10  C   UNL     1      37.750 -11.647   0.173  1.00  0.00     0.014 A 
HETATM   11  C   UNL     1      37.142 -10.304  -2.238  1.00  0.00     0.030 A 
HETATM   12  N   UNL     1      38.544 -12.127  -3.259  1.00  0.00    -0.364 N 
HETATM   13  C   UNL     1      36.654  -9.838  -1.014  1.00  0.00     0.002 A 
HETATM   14  C   UNL     1      36.950 -10.497   0.175  1.00  0.00     0.001 A 
HETATM   15  H   UNL     1      38.484 -11.855  -4.231  1.00  0.00     0.165 HD
HETATM   16  C   UNL     1      39.238 -13.205  -2.784  1.00  0.00     0.102 A 
ENDBRANCH   6   7
ENDBRANCH   2   5
BRANCH   1  17
HETATM   17  C   UNL     1      42.383 -15.952   2.867  1.00  0.00     0.154 C 
BRANCH  17  18
HETATM   18  C   UNL     1      41.050 -16.478   3.422  1.00  0.00     0.025 C 
HETATM   19  C   UNL     1      40.832 -16.104   4.882  1.00  0.00     0.007 C 
ENDBRANCH  17  18
BRANCH  17  20
HETATM   20  N   UNL     1      43.036 -17.008   2.036  1.00  0.00    -0.280 NA
HETATM   21  H   UNL     1      43.895 -16.625   1.628  1.00  0.00     0.128 HD
BRANCH  20  22
HETATM   22  C   UNL     1      43.429 -18.171   2.731  1.00  0.00     0.009 A 
HETATM   23  C   UNL     1      43.862 -18.038   4.054  1.00  0.00     0.023 A 
HETATM   24  C   UNL     1      44.192 -19.161   4.816  1.00  0.00     0.002 A 
HETATM   25  C   UNL     1      44.068 -20.434   4.266  1.00  0.00     0.000 A 
HETATM   26  C   UNL     1      43.607 -20.583   2.959  1.00  0.00     0.002 A 
HETATM   27  C   UNL     1      43.281 -19.457   2.199  1.00  0.00     0.023 A 
ENDBRANCH  20  22
ENDBRANCH  17  20
ENDBRANCH   1  17
TORSDOF 6
ENDMDL
