MODEL 1
REMARK VINA RESULT:      -6.9      0.000      0.000
REMARK  3 active torsions:
REMARK  status: ('A' for Active; 'I' for Inactive)
REMARK    1  A    between atoms: C_2  and  N_3 
REMARK    2  A    between atoms: C_2  and  C_14 
REMARK       I    between atoms: N_3  and  C_4 
REMARK    3  A    between atoms: C_4  and  C_5 
ROOT
HETATM    1  N   UNL     1      42.543 -15.903   3.147  1.00  0.00    -0.347 N 
HETATM    2  C   UNL     1      42.800 -14.963   2.179  1.00  0.00     0.268 C 
HETATM    3  O   UNL     1      43.933 -14.635   1.844  1.00  0.00    -0.266 OA
HETATM    4  H   UNL     1      41.593 -16.200   3.306  1.00  0.00     0.163 HD
ENDROOT
BRANCH   1   5
HETATM    5  C   UNL     1      43.599 -16.644   3.818  1.00  0.00     0.114 C 
HETATM    6  C   UNL     1      43.464 -16.422   5.327  1.00  0.00     0.037 C 
BRANCH   5   7
HETATM    7  C   UNL     1      43.596 -18.127   3.477  1.00  0.00    -0.033 A 
HETATM    8  C   UNL     1      43.123 -18.636   2.260  1.00  0.00     0.028 A 
HETATM    9  C   UNL     1      43.160 -20.005   2.040  1.00  0.00     0.116 A 
HETATM   10  N   UNL     1      43.624 -20.901   2.935  1.00  0.00    -0.273 NA
HETATM   11  C   UNL     1      44.087 -20.402   4.098  1.00  0.00     0.116 A 
HETATM   12  C   UNL     1      44.098 -19.049   4.407  1.00  0.00     0.028 A 
ENDBRANCH   5   7
ENDBRANCH   1   5
BRANCH   2  13
HETATM   13  C   UNL     1      41.628 -14.380   1.563  1.00  0.00     0.103 A 
HETATM   14  N   UNL     1      41.119 -14.886   0.381  1.00  0.00    -0.341 N 
HETATM   15  H   UNL     1      41.513 -15.674  -0.120  1.00  0.00     0.167 HD
HETATM   16  C   UNL     1      40.026 -14.170   0.009  1.00  0.00     0.126 A 
HETATM   17 CL   UNL     1      39.233 -14.624  -1.423  1.00  0.00    -0.063 Cl
HETATM   18  C   UNL     1      39.801 -13.182   0.924  1.00  0.00     0.074 A 
HETATM   19 CL   UNL     1      38.579 -12.006   0.935  1.00  0.00    -0.081 Cl
HETATM   20  C   UNL     1      40.813 -13.309   1.912  1.00  0.00     0.062 A 
ENDBRANCH   2  13
TORSDOF 3
ENDMDL
MODEL 2
REMARK VINA RESULT:      -6.8      1.803      2.654
REMARK  3 active torsions:
REMARK  status: ('A' for Active; 'I' for Inactive)
REMARK    1  A    between atoms: C_2  and  N_3 
REMARK    2  A    between atoms: C_2  and  C_14 
REMARK       I    between atoms: N_3  and  C_4 
REMARK    3  A    between atoms: C_4  and  C_5 
ROOT
HETATM    1  N   UNL     1      41.290 -15.426   2.106  1.00  0.00    -0.347 N 
HETATM    2  C   UNL     1      41.199 -14.167   1.565  1.00  0.00     0.268 C 
HETATM    3  O   UNL     1      41.543 -13.153   2.161  1.00  0.00    -0.266 OA
HETATM    4  H   UNL     1      41.084 -16.227   1.530  1.00  0.00     0.163 HD
ENDROOT
BRANCH   1   5
HETATM    5  C   UNL     1      41.867 -15.675   3.418  1.00  0.00     0.114 C 
HETATM    6  C   UNL     1      40.733 -15.721   4.446  1.00  0.00     0.037 C 
BRANCH   5   7
HETATM    7  C   UNL     1      42.709 -16.941   3.469  1.00  0.00    -0.033 A 
HETATM    8  C   UNL     1      43.501 -17.295   4.569  1.00  0.00     0.028 A 
HETATM    9  C   UNL     1      44.235 -18.471   4.523  1.00  0.00     0.116 A 
HETATM   10  N   UNL     1      44.246 -19.313   3.469  1.00  0.00    -0.273 NA
HETATM   11  C   UNL     1      43.473 -18.970   2.420  1.00  0.00     0.116 A 
HETATM   12  C   UNL     1      42.698 -17.820   2.375  1.00  0.00     0.028 A 
ENDBRANCH   5   7
ENDBRANCH   1   5
BRANCH   2  13
HETATM   13  C   UNL     1      40.670 -14.115   0.219  1.00  0.00     0.103 A 
HETATM   14  N   UNL     1      41.104 -13.158  -0.680  1.00  0.00    -0.341 N 
HETATM   15  H   UNL     1      41.800 -12.453  -0.471  1.00  0.00     0.167 HD
HETATM   16  C   UNL     1      40.458 -13.317  -1.865  1.00  0.00     0.126 A 
HETATM   17 CL   UNL     1      40.842 -12.245  -3.124  1.00  0.00    -0.063 Cl
HETATM   18  C   UNL     1      39.587 -14.365  -1.768  1.00  0.00     0.074 A 
HETATM   19 CL   UNL     1      38.535 -14.981  -2.947  1.00  0.00    -0.081 Cl
HETATM   20  C   UNL     1      39.716 -14.875  -0.449  1.00  0.00     0.062 A 
ENDBRANCH   2  13
TORSDOF 3
ENDMDL
MODEL 3
REMARK VINA RESULT:      -6.7      4.209      6.612
REMARK  3 active torsions:
REMARK  status: ('A' for Active; 'I' for Inactive)
REMARK    1  A    between atoms: C_2  and  N_3 
REMARK    2  A    between atoms: C_2  and  C_14 
REMARK       I    between atoms: N_3  and  C_4 
REMARK    3  A    between atoms: C_4  and  C_5 
ROOT
HETATM    1  N   UNL     1      42.259 -15.361   4.347  1.00  0.00    -0.347 N 
HETATM    2  C   UNL     1      43.080 -15.855   3.363  1.00  0.00     0.268 C 
HETATM    3  O   UNL     1      43.507 -15.172   2.439  1.00  0.00    -0.266 OA
HETATM    4  H   UNL     1      42.023 -15.947   5.132  1.00  0.00     0.163 HD
ENDROOT
BRANCH   1   5
HETATM    5  C   UNL     1      41.875 -13.960   4.416  1.00  0.00     0.114 C 
HETATM    6  C   UNL     1      40.494 -13.868   5.071  1.00  0.00     0.037 C 
BRANCH   5   7
HETATM    7  C   UNL     1      42.892 -13.098   5.149  1.00  0.00    -0.033 A 
HETATM    8  C   UNL     1      43.612 -12.066   4.533  1.00  0.00     0.028 A 
HETATM    9  C   UNL     1      44.520 -11.334   5.285  1.00  0.00     0.116 A 
HETATM   10  N   UNL     1      44.767 -11.553   6.593  1.00  0.00    -0.273 NA
HETATM   11  C   UNL     1      44.061 -12.540   7.179  1.00  0.00     0.116 A 
HETATM   12  C   UNL     1      43.127 -13.321   6.514  1.00  0.00     0.028 A 
ENDBRANCH   5   7
ENDBRANCH   1   5
BRANCH   2  13
HETATM   13  C   UNL     1      43.421 -17.255   3.494  1.00  0.00     0.103 A 
HETATM   14  N   UNL     1      43.323 -18.116   2.416  1.00  0.00    -0.341 N 
HETATM   15  H   UNL     1      43.018 -17.839   1.490  1.00  0.00     0.167 HD
HETATM   16  C   UNL     1      43.694 -19.367   2.794  1.00  0.00     0.126 A 
HETATM   17 CL   UNL     1      43.652 -20.592   1.619  1.00  0.00    -0.063 Cl
HETATM   18  C   UNL     1      44.032 -19.358   4.117  1.00  0.00     0.074 A 
HETATM   19 CL   UNL     1      44.555 -20.647   5.086  1.00  0.00    -0.081 Cl
HETATM   20  C   UNL     1      43.861 -18.022   4.567  1.00  0.00     0.062 A 
ENDBRANCH   2  13
TORSDOF 3
ENDMDL
MODEL 4
REMARK VINA RESULT:      -6.6      3.465      6.564
REMARK  3 active torsions:
REMARK  status: ('A' for Active; 'I' for Inactive)
REMARK    1  A    between atoms: C_2  and  N_3 
REMARK    2  A    between atoms: C_2  and  C_14 
REMARK       I    between atoms: N_3  and  C_4 
REMARK    3  A    between atoms: C_4  and  C_5 
ROOT
HETATM    1  N   UNL     1      42.609 -15.385   2.810  1.00  0.00    -0.347 N 
HETATM    2  C   UNL     1      42.817 -15.970   4.035  1.00  0.00     0.268 C 
HETATM    3  O   UNL     1      42.628 -15.390   5.097  1.00  0.00    -0.266 OA
HETATM    4  H   UNL     1      42.687 -15.946   1.975  1.00  0.00     0.163 HD
ENDROOT
BRANCH   1   5
HETATM    5  C   UNL     1      42.081 -14.038   2.665  1.00  0.00     0.114 C 
HETATM    6  C   UNL     1      43.246 -13.047   2.759  1.00  0.00     0.037 C 
BRANCH   5   7
HETATM    7  C   UNL     1      41.293 -13.841   1.379  1.00  0.00    -0.033 A 
HETATM    8  C   UNL     1      41.222 -12.617   0.700  1.00  0.00     0.028 A 
HETATM    9  C   UNL     1      40.477 -12.535  -0.468  1.00  0.00     0.116 A 
HETATM   10  N   UNL     1      39.797 -13.569  -1.004  1.00  0.00    -0.273 NA
HETATM   11  C   UNL     1      39.880 -14.744  -0.350  1.00  0.00     0.116 A 
HETATM   12  C   UNL     1      40.605 -14.928   0.819  1.00  0.00     0.028 A 
ENDBRANCH   5   7
ENDBRANCH   1   5
BRANCH   2  13
HETATM   13  C   UNL     1      43.272 -17.343   3.989  1.00  0.00     0.103 A 
HETATM   14  N   UNL     1      43.226 -18.070   2.813  1.00  0.00    -0.341 N 
HETATM   15  H   UNL     1      42.885 -17.707   1.931  1.00  0.00     0.167 HD
HETATM   16  C   UNL     1      43.703 -19.323   3.031  1.00  0.00     0.126 A 
HETATM   17 CL   UNL     1      43.742 -20.394   1.714  1.00  0.00    -0.063 Cl
HETATM   18  C   UNL     1      44.060 -19.450   4.343  1.00  0.00     0.074 A 
HETATM   19 CL   UNL     1      44.701 -20.801   5.142  1.00  0.00    -0.081 Cl
HETATM   20  C   UNL     1      43.789 -18.198   4.957  1.00  0.00     0.062 A 
ENDBRANCH   2  13
TORSDOF 3
ENDMDL
MODEL 5
REMARK VINA RESULT:      -6.5      4.213      5.408
REMARK  3 active torsions:
REMARK  status: ('A' for Active; 'I' for Inactive)
REMARK    1  A    between atoms: C_2  and  N_3 
REMARK    2  A    between atoms: C_2  and  C_14 
REMARK       I    between atoms: N_3  and  C_4 
REMARK    3  A    between atoms: C_4  and  C_5 
ROOT
HETATM    1  N   UNL     1      43.072 -14.571   4.166  1.00  0.00    -0.347 N 
HETATM    2  C   UNL     1      42.217 -13.907   5.011  1.00  0.00     0.268 C 
HETATM    3  O   UNL     1      41.015 -14.136   5.066  1.00  0.00    -0.266 OA
HETATM    4  H   UNL     1      44.064 -14.407   4.239  1.00  0.00     0.163 HD
ENDROOT
BRANCH   1   5
HETATM    5  C   UNL     1      42.633 -15.656   3.302  1.00  0.00     0.114 C 
HETATM    6  C   UNL     1      43.041 -15.326   1.863  1.00  0.00     0.037 C 
BRANCH   5   7
HETATM    7  C   UNL     1      43.171 -17.013   3.730  1.00  0.00    -0.033 A 
HETATM    8  C   UNL     1      43.367 -17.376   5.069  1.00  0.00     0.028 A 
HETATM    9  C   UNL     1      43.864 -18.638   5.361  1.00  0.00     0.116 A 
HETATM   10  N   UNL     1      44.183 -19.559   4.427  1.00  0.00    -0.273 NA
HETATM   11  C   UNL     1      43.980 -19.205   3.143  1.00  0.00     0.116 A 
HETATM   12  C   UNL     1      43.481 -17.970   2.752  1.00  0.00     0.028 A 
ENDBRANCH   5   7
ENDBRANCH   1   5
BRANCH   2  13
HETATM   13  C   UNL     1      42.840 -12.910   5.854  1.00  0.00     0.103 A 
HETATM   14  N   UNL     1      42.130 -11.809   6.298  1.00  0.00    -0.341 N 
HETATM   15  H   UNL     1      41.158 -11.629   6.077  1.00  0.00     0.167 HD
HETATM   16  C   UNL     1      42.933 -11.025   7.065  1.00  0.00     0.126 A 
HETATM   17 CL   UNL     1      42.261  -9.612   7.723  1.00  0.00    -0.063 Cl
HETATM   18  C   UNL     1      44.178 -11.583   7.133  1.00  0.00     0.074 A 
HETATM   19 CL   UNL     1      45.551 -11.014   7.948  1.00  0.00    -0.081 Cl
HETATM   20  C   UNL     1      44.126 -12.778   6.367  1.00  0.00     0.062 A 
ENDBRANCH   2  13
TORSDOF 3
ENDMDL
MODEL 6
REMARK VINA RESULT:      -6.5      3.477      6.906
REMARK  3 active torsions:
REMARK  status: ('A' for Active; 'I' for Inactive)
REMARK    1  A    between atoms: C_2  and  N_3 
REMARK    2  A    between atoms: C_2  and  C_14 
REMARK       I    between atoms: N_3  and  C_4 
REMARK    3  A    between atoms: C_4  and  C_5 
ROOT
HETATM    1  N   UNL     1      41.397 -14.237   1.347  1.00  0.00    -0.347 N 
HETATM    2  C   UNL     1      41.091 -14.898   2.511  1.00  0.00     0.268 C 
HETATM    3  O   UNL     1      40.130 -14.610   3.215  1.00  0.00    -0.266 OA
HETATM    4  H   UNL     1      42.141 -14.585   0.763  1.00  0.00     0.163 HD
ENDROOT
BRANCH   1   5
HETATM    5  C   UNL     1      40.563 -13.174   0.808  1.00  0.00     0.114 C 
HETATM    6  C   UNL     1      41.264 -11.835   1.058  1.00  0.00     0.037 C 
BRANCH   5   7
HETATM    7  C   UNL     1      40.239 -13.359  -0.667  1.00  0.00    -0.033 A 
HETATM    8  C   UNL     1      40.646 -12.462  -1.663  1.00  0.00     0.028 A 
HETATM    9  C   UNL     1      40.302 -12.715  -2.983  1.00  0.00     0.116 A 
HETATM   10  N   UNL     1      39.583 -13.784  -3.383  1.00  0.00    -0.273 NA
HETATM   11  C   UNL     1      39.206 -14.648  -2.420  1.00  0.00     0.116 A 
HETATM   12  C   UNL     1      39.508 -14.484  -1.076  1.00  0.00     0.028 A 
ENDBRANCH   5   7
ENDBRANCH   1   5
BRANCH   2  13
HETATM   13  C   UNL     1      41.988 -15.980   2.856  1.00  0.00     0.103 A 
HETATM   14  N   UNL     1      42.792 -15.908   3.978  1.00  0.00    -0.341 N 
HETATM   15  H   UNL     1      42.810 -15.123   4.619  1.00  0.00     0.167 HD
HETATM   16  C   UNL     1      43.539 -17.038   4.080  1.00  0.00     0.126 A 
HETATM   17 CL   UNL     1      44.603 -17.167   5.397  1.00  0.00    -0.063 Cl
HETATM   18  C   UNL     1      43.251 -17.866   3.032  1.00  0.00     0.074 A 
HETATM   19 CL   UNL     1      43.902 -19.391   2.676  1.00  0.00    -0.081 Cl
HETATM   20  C   UNL     1      42.269 -17.201   2.252  1.00  0.00     0.062 A 
ENDBRANCH   2  13
TORSDOF 3
ENDMDL
MODEL 7
REMARK VINA RESULT:      -6.3      2.532      3.779
REMARK  3 active torsions:
REMARK  status: ('A' for Active; 'I' for Inactive)
REMARK    1  A    between atoms: C_2  and  N_3 
REMARK    2  A    between atoms: C_2  and  C_14 
REMARK       I    between atoms: N_3  and  C_4 
REMARK    3  A    between atoms: C_4  and  C_5 
ROOT
HETATM    1  N   UNL     1      41.657 -15.888   1.953  1.00  0.00    -0.347 N 
HETATM    2  C   UNL     1      40.396 -15.442   1.643  1.00  0.00     0.268 C 
HETATM    3  O   UNL     1      39.389 -15.805   2.239  1.00  0.00    -0.266 OA
HETATM    4  H   UNL     1      42.453 -15.476   1.491  1.00  0.00     0.163 HD
ENDROOT
BRANCH   1   5
HETATM    5  C   UNL     1      41.918 -16.786   3.067  1.00  0.00     0.114 C 
HETATM    6  C   UNL     1      43.161 -17.618   2.738  1.00  0.00     0.037 C 
BRANCH   5   7
HETATM    7  C   UNL     1      42.077 -16.059   4.394  1.00  0.00    -0.033 A 
HETATM    8  C   UNL     1      41.455 -16.476   5.578  1.00  0.00     0.028 A 
HETATM    9  C   UNL     1      41.659 -15.747   6.742  1.00  0.00     0.116 A 
HETATM   10  N   UNL     1      42.426 -14.639   6.813  1.00  0.00    -0.273 NA
HETATM   11  C   UNL     1      43.029 -14.253   5.672  1.00  0.00     0.116 A 
HETATM   12  C   UNL     1      42.892 -14.919   4.462  1.00  0.00     0.028 A 
ENDBRANCH   5   7
ENDBRANCH   1   5
BRANCH   2  13
HETATM   13  C   UNL     1      40.332 -14.493   0.552  1.00  0.00     0.103 A 
HETATM   14  N   UNL     1      39.573 -14.753  -0.575  1.00  0.00    -0.341 N 
HETATM   15  H   UNL     1      39.026 -15.594  -0.713  1.00  0.00     0.167 HD
HETATM   16  C   UNL     1      39.680 -13.717  -1.447  1.00  0.00     0.126 A 
HETATM   17 CL   UNL     1      38.821 -13.824  -2.908  1.00  0.00    -0.063 Cl
HETATM   18  C   UNL     1      40.509 -12.767  -0.922  1.00  0.00     0.074 A 
HETATM   19 CL   UNL     1      40.987 -11.287  -1.598  1.00  0.00    -0.081 Cl
HETATM   20  C   UNL     1      40.927 -13.253   0.345  1.00  0.00     0.062 A 
ENDBRANCH   2  13
TORSDOF 3
ENDMDL
MODEL 8
REMARK VINA RESULT:      -6.1      3.512      6.719
REMARK  3 active torsions:
REMARK  status: ('A' for Active; 'I' for Inactive)
REMARK    1  A    between atoms: C_2  and  N_3 
REMARK    2  A    between atoms: C_2  and  C_14 
REMARK       I    between atoms: N_3  and  C_4 
REMARK    3  A    between atoms: C_4  and  C_5 
ROOT
HETATM    1  N   UNL     1      42.897 -14.884   3.252  1.00  0.00    -0.347 N 
HETATM    2  C   UNL     1      42.245 -15.944   3.832  1.00  0.00     0.268 C 
HETATM    3  O   UNL     1      41.257 -15.817   4.546  1.00  0.00    -0.266 OA
HETATM    4  H   UNL     1      43.642 -15.062   2.597  1.00  0.00     0.163 HD
ENDROOT
BRANCH   1   5
HETATM    5  C   UNL     1      42.429 -13.513   3.380  1.00  0.00     0.114 C 
HETATM    6  C   UNL     1      43.627 -12.574   3.209  1.00  0.00     0.037 C 
BRANCH   5   7
HETATM    7  C   UNL     1      41.315 -13.168   2.403  1.00  0.00    -0.033 A 
HETATM    8  C   UNL     1      40.123 -12.539   2.786  1.00  0.00     0.028 A 
HETATM    9  C   UNL     1      39.164 -12.265   1.822  1.00  0.00     0.116 A 
HETATM   10  N   UNL     1      39.297 -12.574   0.515  1.00  0.00    -0.273 NA
HETATM   11  C   UNL     1      40.452 -13.168   0.155  1.00  0.00     0.116 A 
HETATM   12  C   UNL     1      41.472 -13.475   1.043  1.00  0.00     0.028 A 
ENDBRANCH   5   7
ENDBRANCH   1   5
BRANCH   2  13
HETATM   13  C   UNL     1      42.805 -17.245   3.535  1.00  0.00     0.103 A 
HETATM   14  N   UNL     1      43.433 -17.991   4.516  1.00  0.00    -0.341 N 
HETATM   15  H   UNL     1      43.540 -17.694   5.479  1.00  0.00     0.167 HD
HETATM   16  C   UNL     1      43.872 -19.164   3.989  1.00  0.00     0.126 A 
HETATM   17 CL   UNL     1      44.674 -20.244   5.024  1.00  0.00    -0.063 Cl
HETATM   18  C   UNL     1      43.554 -19.210   2.661  1.00  0.00     0.074 A 
HETATM   19 CL   UNL     1      43.876 -20.437   1.537  1.00  0.00    -0.081 Cl
HETATM   20  C   UNL     1      42.878 -17.996   2.367  1.00  0.00     0.062 A 
ENDBRANCH   2  13
TORSDOF 3
ENDMDL
MODEL 9
REMARK VINA RESULT:      -6.0      4.853      7.130
REMARK  3 active torsions:
REMARK  status: ('A' for Active; 'I' for Inactive)
REMARK    1  A    between atoms: C_2  and  N_3 
REMARK    2  A    between atoms: C_2  and  C_14 
REMARK       I    between atoms: N_3  and  C_4 
REMARK    3  A    between atoms: C_4  and  C_5 
ROOT
HETATM    1  N   UNL     1      42.682 -13.259   4.902  1.00  0.00    -0.347 N 
HETATM    2  C   UNL     1      42.917 -13.767   3.649  1.00  0.00     0.268 C 
HETATM    3  O   UNL     1      43.025 -13.067   2.649  1.00  0.00    -0.266 OA
HETATM    4  H   UNL     1      42.703 -13.878   5.698  1.00  0.00     0.163 HD
ENDROOT
BRANCH   1   5
HETATM    5  C   UNL     1      42.604 -11.831   5.166  1.00  0.00     0.114 C 
HETATM    6  C   UNL     1      41.175 -11.495   5.602  1.00  0.00     0.037 C 
BRANCH   5   7
HETATM    7  C   UNL     1      43.620 -11.358   6.195  1.00  0.00    -0.033 A 
HETATM    8  C   UNL     1      43.264 -10.715   7.388  1.00  0.00     0.028 A 
HETATM    9  C   UNL     1      44.263 -10.319   8.266  1.00  0.00     0.116 A 
HETATM   10  N   UNL     1      45.580 -10.509   8.046  1.00  0.00    -0.273 NA
HETATM   11  C   UNL     1      45.912 -11.139   6.902  1.00  0.00     0.116 A 
HETATM   12  C   UNL     1      44.986 -11.578   5.966  1.00  0.00     0.028 A 
ENDBRANCH   5   7
ENDBRANCH   1   5
BRANCH   2  13
HETATM   13  C   UNL     1      43.041 -15.208   3.584  1.00  0.00     0.103 A 
HETATM   14  N   UNL     1      43.399 -15.942   4.700  1.00  0.00    -0.341 N 
HETATM   15  H   UNL     1      43.590 -15.541   5.611  1.00  0.00     0.167 HD
HETATM   16  C   UNL     1      43.449 -17.262   4.383  1.00  0.00     0.126 A 
HETATM   17 CL   UNL     1      43.867 -18.355   5.613  1.00  0.00    -0.063 Cl
HETATM   18  C   UNL     1      43.139 -17.422   3.062  1.00  0.00     0.074 A 
HETATM   19 CL   UNL     1      43.064 -18.853   2.157  1.00  0.00    -0.081 Cl
HETATM   20  C   UNL     1      42.880 -16.123   2.550  1.00  0.00     0.062 A 
ENDBRANCH   2  13
TORSDOF 3
ENDMDL
MODEL 10
REMARK VINA RESULT:      -5.9      8.194      9.941
REMARK  3 active torsions:
REMARK  status: ('A' for Active; 'I' for Inactive)
REMARK    1  A    between atoms: C_2  and  N_3 
REMARK    2  A    between atoms: C_2  and  C_14 
REMARK       I    between atoms: N_3  and  C_4 
REMARK    3  A    between atoms: C_4  and  C_5 
ROOT
HETATM    1  N   UNL     1      43.427 -10.674   8.877  1.00  0.00    -0.347 N 
HETATM    2  C   UNL     1      43.292  -9.446   9.475  1.00  0.00     0.268 C 
HETATM    3  O   UNL     1      43.660  -8.400   8.953  1.00  0.00    -0.266 OA
HETATM    4  H   UNL     1      43.015 -11.484   9.315  1.00  0.00     0.163 HD
ENDROOT
BRANCH   1   5
HETATM    5  C   UNL     1      43.961 -10.837   7.534  1.00  0.00     0.114 C 
HETATM    6  C   UNL     1      45.480 -11.002   7.633  1.00  0.00     0.037 C 
BRANCH   5   7
HETATM    7  C   UNL     1      43.329 -11.996   6.778  1.00  0.00    -0.033 A 
HETATM    8  C   UNL     1      43.905 -13.271   6.702  1.00  0.00     0.028 A 
HETATM    9  C   UNL     1      43.254 -14.266   5.987  1.00  0.00     0.116 A 
HETATM   10  N   UNL     1      42.083 -14.088   5.342  1.00  0.00    -0.273 NA
HETATM   11  C   UNL     1      41.530 -12.862   5.429  1.00  0.00     0.116 A 
HETATM   12  C   UNL     1      42.101 -11.806   6.126  1.00  0.00     0.028 A 
ENDBRANCH   5   7
ENDBRANCH   1   5
BRANCH   2  13
HETATM   13  C   UNL     1      42.670  -9.464  10.782  1.00  0.00     0.103 A 
HETATM   14  N   UNL     1      41.436 -10.059  10.974  1.00  0.00    -0.341 N 
HETATM   15  H   UNL     1      40.900 -10.510  10.243  1.00  0.00     0.167 HD
HETATM   16  C   UNL     1      41.070  -9.942  12.277  1.00  0.00     0.126 A 
HETATM   17 CL   UNL     1      39.580 -10.609  12.743  1.00  0.00    -0.063 Cl
HETATM   18  C   UNL     1      42.041  -9.266  12.961  1.00  0.00     0.074 A 
HETATM   19 CL   UNL     1      42.082  -8.843  14.602  1.00  0.00    -0.081 Cl
HETATM   20  C   UNL     1      43.058  -8.960  12.018  1.00  0.00     0.062 A 
ENDBRANCH   2  13
TORSDOF 3
ENDMDL
