MODEL 1
REMARK VINA RESULT:      -9.8      0.000      0.000
REMARK  8 active torsions:
REMARK  status: ('A' for Active; 'I' for Inactive)
REMARK    1  A    between atoms: C_8  and  C_9 
REMARK    2  A    between atoms: C_9  and  C_10 
REMARK       I    between atoms: C_10  and  N_11 
REMARK    3  A    between atoms: N_11  and  C_27 
REMARK    4  A    between atoms: N_11  and  C_12 
REMARK    5  A    between atoms: C_12  and  C_13 
REMARK    6  A    between atoms: C_12  and  C_22 
REMARK       I    between atoms: C_13  and  N_14 
REMARK    7  A    between atoms: N_14  and  C_15 
REMARK    8  A    between atoms: C_27  and  C_28 
ROOT
HETATM    1  C   UNL     1      43.000 -14.397   2.331  1.00  0.00     0.225 C 
HETATM    2  N   UNL     1      42.154 -13.536   3.032  1.00  0.00    -0.330 N 
HETATM    3  O   UNL     1      44.092 -14.018   1.896  1.00  0.00    -0.273 OA
ENDROOT
BRANCH   2   4
HETATM    4  C   UNL     1      42.657 -12.178   3.310  1.00  0.00     0.165 C 
BRANCH   4   5
HETATM    5  C   UNL     1      43.090 -11.978   4.746  1.00  0.00    -0.037 A 
HETATM    6  C   UNL     1      42.856 -10.751   5.392  1.00  0.00     0.048 A 
HETATM    7  C   UNL     1      43.308 -10.598   6.686  1.00  0.00     0.105 A 
HETATM    8  C   UNL     1      43.952 -11.611   7.355  1.00  0.00     0.105 A 
HETATM    9  O   UNL     1      43.199  -9.470   7.439  1.00  0.00    -0.323 OA
HETATM   10  O   UNL     1      44.325 -11.253   8.612  1.00  0.00    -0.323 OA
HETATM   11  C   UNL     1      44.170 -12.838   6.771  1.00  0.00     0.040 A 
HETATM   12  C   UNL     1      43.844  -9.894   8.659  1.00  0.00     0.352 A 
HETATM   13  C   UNL     1      43.729 -13.019   5.457  1.00  0.00     0.012 A 
ENDBRANCH   4   5
ENDBRANCH   2   4
BRANCH   2  14
HETATM   14  C   UNL     1      40.702 -13.814   3.201  1.00  0.00     0.219 C 
BRANCH  14  15
HETATM   15  C   UNL     1      39.978 -14.160   1.860  1.00  0.00     0.246 C 
HETATM   16  N   UNL     1      40.037 -13.247   0.833  1.00  0.00    -0.354 N 
HETATM   17  H   UNL     1      40.448 -12.346   1.052  1.00  0.00     0.162 HD
HETATM   18  O   UNL     1      39.449 -15.264   1.718  1.00  0.00    -0.271 OA
BRANCH  16  19
HETATM   19  C   UNL     1      39.321 -13.314  -0.443  1.00  0.00     0.084 C 
HETATM   20  C   UNL     1      38.485 -12.073  -0.799  1.00  0.00     0.025 C 
HETATM   21  C   UNL     1      39.166 -11.035  -1.687  1.00  0.00     0.002 C 
HETATM   22  C   UNL     1      39.912 -11.661  -2.857  1.00  0.00     0.000 C 
HETATM   23  C   UNL     1      40.896 -12.727  -2.393  1.00  0.00     0.002 C 
HETATM   24  C   UNL     1      40.199 -13.823  -1.594  1.00  0.00     0.025 C 
ENDBRANCH  16  19
ENDBRANCH  14  15
BRANCH  14  25
HETATM   25  C   UNL     1      40.002 -12.782   4.073  1.00  0.00     0.014 A 
HETATM   26  S   UNL     1      39.864 -13.067   5.774  1.00  0.00    -0.104 SA
HETATM   27  C   UNL     1      39.070 -11.580   6.039  1.00  0.00     0.050 A 
HETATM   28  C   UNL     1      38.959 -10.844   4.886  1.00  0.00     0.008 A 
HETATM   29  C   UNL     1      39.516 -11.522   3.765  1.00  0.00     0.017 A 
ENDBRANCH  14  25
ENDBRANCH   2  14
BRANCH   1  30
HETATM   30  C   UNL     1      42.627 -15.865   2.202  1.00  0.00     0.144 C 
BRANCH  30  31
HETATM   31  C   UNL     1      43.190 -16.835   3.198  1.00  0.00    -0.021 A 
HETATM   32  C   UNL     1      43.425 -18.252   3.113  1.00  0.00    -0.001 A 
HETATM   33  C   UNL     1      43.258 -19.236   2.117  1.00  0.00     0.014 A 
HETATM   34  C   UNL     1      43.899 -18.670   4.362  1.00  0.00     0.042 A 
HETATM   35  C   UNL     1      43.530 -20.580   2.407  1.00  0.00     0.001 A 
HETATM   36  C   UNL     1      43.986 -20.958   3.666  1.00  0.00     0.002 A 
HETATM   37  C   UNL     1      44.188 -20.006   4.665  1.00  0.00     0.030 A 
HETATM   38  N   UNL     1      44.003 -17.555   5.155  1.00  0.00    -0.365 N 
HETATM   39  H   UNL     1      44.335 -17.560   6.109  1.00  0.00     0.165 HD
HETATM   40  C   UNL     1      43.574 -16.453   4.473  1.00  0.00     0.097 A 
ENDBRANCH  30  31
ENDBRANCH   1  30
TORSDOF 8
ENDMDL
MODEL 2
REMARK VINA RESULT:      -9.7      2.021      6.723
REMARK  8 active torsions:
REMARK  status: ('A' for Active; 'I' for Inactive)
REMARK    1  A    between atoms: C_8  and  C_9 
REMARK    2  A    between atoms: C_9  and  C_10 
REMARK       I    between atoms: C_10  and  N_11 
REMARK    3  A    between atoms: N_11  and  C_27 
REMARK    4  A    between atoms: N_11  and  C_12 
REMARK    5  A    between atoms: C_12  and  C_13 
REMARK    6  A    between atoms: C_12  and  C_22 
REMARK       I    between atoms: C_13  and  N_14 
REMARK    7  A    between atoms: N_14  and  C_15 
REMARK    8  A    between atoms: C_27  and  C_28 
ROOT
HETATM    1  C   UNL     1      41.482 -14.916   3.452  1.00  0.00     0.225 C 
HETATM    2  N   UNL     1      41.058 -13.593   3.311  1.00  0.00    -0.330 N 
HETATM    3  O   UNL     1      40.679 -15.855   3.453  1.00  0.00    -0.273 OA
ENDROOT
BRANCH   2   4
HETATM    4  C   UNL     1      39.621 -13.368   3.074  1.00  0.00     0.165 C 
BRANCH   4   5
HETATM    5  C   UNL     1      39.291 -13.043   1.633  1.00  0.00    -0.037 A 
HETATM    6  C   UNL     1      39.816 -13.829   0.592  1.00  0.00     0.048 A 
HETATM    7  C   UNL     1      39.526 -13.470  -0.707  1.00  0.00     0.105 A 
HETATM    8  C   UNL     1      38.730 -12.389  -1.001  1.00  0.00     0.105 A 
HETATM    9  O   UNL     1      39.981 -14.095  -1.827  1.00  0.00    -0.323 OA
HETATM   10  O   UNL     1      38.578 -12.200  -2.339  1.00  0.00    -0.323 OA
HETATM   11  C   UNL     1      38.170 -11.614  -0.012  1.00  0.00     0.040 A 
HETATM   12  C   UNL     1      39.374 -13.286  -2.856  1.00  0.00     0.352 A 
HETATM   13  C   UNL     1      38.453 -11.951   1.315  1.00  0.00     0.012 A 
ENDBRANCH   4   5
ENDBRANCH   2   4
BRANCH   2  14
HETATM   14  C   UNL     1      41.910 -12.441   3.712  1.00  0.00     0.219 C 
BRANCH  14  15
HETATM   15  C   UNL     1      42.122 -12.337   5.258  1.00  0.00     0.246 C 
HETATM   16  N   UNL     1      43.203 -11.623   5.721  1.00  0.00    -0.354 N 
HETATM   17  H   UNL     1      43.869 -11.308   5.024  1.00  0.00     0.162 HD
HETATM   18  O   UNL     1      41.283 -12.815   6.023  1.00  0.00    -0.271 OA
BRANCH  16  19
HETATM   19  C   UNL     1      43.655 -11.519   7.110  1.00  0.00     0.084 C 
HETATM   20  C   UNL     1      45.172 -11.651   7.325  1.00  0.00     0.025 C 
HETATM   21  C   UNL     1      45.960 -10.345   7.385  1.00  0.00     0.002 C 
HETATM   22  C   UNL     1      45.282  -9.289   8.246  1.00  0.00     0.000 C 
HETATM   23  C   UNL     1      43.841  -9.050   7.815  1.00  0.00     0.002 C 
HETATM   24  C   UNL     1      43.024 -10.336   7.856  1.00  0.00     0.025 C 
ENDBRANCH  16  19
ENDBRANCH  14  15
BRANCH  14  25
HETATM   25  C   UNL     1      41.513 -11.145   3.019  1.00  0.00     0.014 A 
HETATM   26  S   UNL     1      40.613  -9.959   3.900  1.00  0.00    -0.104 SA
HETATM   27  C   UNL     1      40.591  -8.880   2.578  1.00  0.00     0.050 A 
HETATM   28  C   UNL     1      41.299  -9.366   1.507  1.00  0.00     0.008 A 
HETATM   29  C   UNL     1      41.847 -10.652   1.769  1.00  0.00     0.017 A 
ENDBRANCH  14  25
ENDBRANCH   2  14
BRANCH   1  30
HETATM   30  C   UNL     1      42.970 -15.222   3.484  1.00  0.00     0.144 C 
BRANCH  30  31
HETATM   31  C   UNL     1      43.424 -16.499   4.127  1.00  0.00    -0.021 A 
HETATM   32  C   UNL     1      43.525 -17.837   3.610  1.00  0.00    -0.001 A 
HETATM   33  C   UNL     1      43.282 -18.449   2.362  1.00  0.00     0.014 A 
HETATM   34  C   UNL     1      43.938 -18.660   4.663  1.00  0.00     0.042 A 
HETATM   35  C   UNL     1      43.422 -19.837   2.223  1.00  0.00     0.001 A 
HETATM   36  C   UNL     1      43.820 -20.623   3.299  1.00  0.00     0.002 A 
HETATM   37  C   UNL     1      44.095 -20.046   4.539  1.00  0.00     0.030 A 
HETATM   38  N   UNL     1      44.134 -17.857   5.758  1.00  0.00    -0.365 N 
HETATM   39  H   UNL     1      44.448 -18.185   6.660  1.00  0.00     0.165 HD
HETATM   40  C   UNL     1      43.822 -16.563   5.453  1.00  0.00     0.097 A 
ENDBRANCH  30  31
ENDBRANCH   1  30
TORSDOF 8
ENDMDL
MODEL 3
REMARK VINA RESULT:      -9.6      1.983      5.124
REMARK  8 active torsions:
REMARK  status: ('A' for Active; 'I' for Inactive)
REMARK    1  A    between atoms: C_8  and  C_9 
REMARK    2  A    between atoms: C_9  and  C_10 
REMARK       I    between atoms: C_10  and  N_11 
REMARK    3  A    between atoms: N_11  and  C_27 
REMARK    4  A    between atoms: N_11  and  C_12 
REMARK    5  A    between atoms: C_12  and  C_13 
REMARK    6  A    between atoms: C_12  and  C_22 
REMARK       I    between atoms: C_13  and  N_14 
REMARK    7  A    between atoms: N_14  and  C_15 
REMARK    8  A    between atoms: C_27  and  C_28 
ROOT
HETATM    1  C   UNL     1      41.563 -14.923   3.482  1.00  0.00     0.225 C 
HETATM    2  N   UNL     1      40.959 -13.991   2.635  1.00  0.00    -0.330 N 
HETATM    3  O   UNL     1      40.963 -15.403   4.448  1.00  0.00    -0.273 OA
ENDROOT
BRANCH   2   4
HETATM    4  C   UNL     1      39.543 -13.670   2.890  1.00  0.00     0.165 C 
BRANCH   4   5
HETATM    5  C   UNL     1      39.350 -12.482   3.807  1.00  0.00    -0.037 A 
HETATM    6  C   UNL     1      39.438 -12.641   5.201  1.00  0.00     0.048 A 
HETATM    7  C   UNL     1      39.211 -11.540   6.000  1.00  0.00     0.105 A 
HETATM    8  C   UNL     1      38.927 -10.305   5.470  1.00  0.00     0.105 A 
HETATM    9  O   UNL     1      39.219 -11.528   7.361  1.00  0.00    -0.323 OA
HETATM   10  O   UNL     1      38.726  -9.359   6.426  1.00  0.00    -0.323 OA
HETATM   11  C   UNL     1      38.864 -10.098   4.111  1.00  0.00     0.040 A 
HETATM   12  C   UNL     1      38.914 -10.142   7.622  1.00  0.00     0.352 A 
HETATM   13  C   UNL     1      39.083 -11.199   3.277  1.00  0.00     0.012 A 
ENDBRANCH   4   5
ENDBRANCH   2   4
BRANCH   2  14
HETATM   14  C   UNL     1      41.750 -13.101   1.743  1.00  0.00     0.219 C 
BRANCH  14  15
HETATM   15  C   UNL     1      42.381 -11.880   2.488  1.00  0.00     0.246 C 
HETATM   16  N   UNL     1      43.116 -12.120   3.626  1.00  0.00    -0.354 N 
HETATM   17  H   UNL     1      43.102 -13.069   3.982  1.00  0.00     0.162 HD
HETATM   18  O   UNL     1      42.283 -10.752   2.004  1.00  0.00    -0.271 OA
BRANCH  16  19
HETATM   19  C   UNL     1      43.670 -11.119   4.539  1.00  0.00     0.084 C 
HETATM   20  C   UNL     1      42.664 -10.481   5.513  1.00  0.00     0.025 C 
HETATM   21  C   UNL     1      42.570 -11.117   6.897  1.00  0.00     0.002 C 
HETATM   22  C   UNL     1      43.936 -11.421   7.497  1.00  0.00     0.000 C 
HETATM   23  C   UNL     1      44.792 -12.259   6.556  1.00  0.00     0.002 C 
HETATM   24  C   UNL     1      44.974 -11.575   5.206  1.00  0.00     0.025 C 
ENDBRANCH  16  19
ENDBRANCH  14  15
BRANCH  14  25
HETATM   25  C   UNL     1      41.023 -12.770   0.447  1.00  0.00     0.014 A 
HETATM   26  S   UNL     1      40.320 -14.052  -0.477  1.00  0.00    -0.104 SA
HETATM   27  C   UNL     1      39.708 -12.977  -1.652  1.00  0.00     0.050 A 
HETATM   28  C   UNL     1      39.969 -11.667  -1.334  1.00  0.00     0.008 A 
HETATM   29  C   UNL     1      40.700 -11.548  -0.118  1.00  0.00     0.017 A 
ENDBRANCH  14  25
ENDBRANCH   2  14
BRANCH   1  30
HETATM   30  C   UNL     1      42.947 -15.451   3.141  1.00  0.00     0.144 C 
BRANCH  30  31
HETATM   31  C   UNL     1      43.436 -16.682   3.844  1.00  0.00    -0.021 A 
HETATM   32  C   UNL     1      43.503 -18.054   3.418  1.00  0.00    -0.001 A 
HETATM   33  C   UNL     1      43.183 -18.751   2.234  1.00  0.00     0.014 A 
HETATM   34  C   UNL     1      43.976 -18.804   4.501  1.00  0.00     0.042 A 
HETATM   35  C   UNL     1      43.310 -20.146   2.185  1.00  0.00     0.001 A 
HETATM   36  C   UNL     1      43.771 -20.857   3.288  1.00  0.00     0.002 A 
HETATM   37  C   UNL     1      44.122 -20.196   4.465  1.00  0.00     0.030 A 
HETATM   38  N   UNL     1      44.240 -17.926   5.522  1.00  0.00    -0.365 N 
HETATM   39  H   UNL     1      44.608 -18.192   6.425  1.00  0.00     0.165 HD
HETATM   40  C   UNL     1      43.913 -16.656   5.145  1.00  0.00     0.097 A 
ENDBRANCH  30  31
ENDBRANCH   1  30
TORSDOF 8
ENDMDL
MODEL 4
REMARK VINA RESULT:      -9.6      2.201      5.939
REMARK  8 active torsions:
REMARK  status: ('A' for Active; 'I' for Inactive)
REMARK    1  A    between atoms: C_8  and  C_9 
REMARK    2  A    between atoms: C_9  and  C_10 
REMARK       I    between atoms: C_10  and  N_11 
REMARK    3  A    between atoms: N_11  and  C_27 
REMARK    4  A    between atoms: N_11  and  C_12 
REMARK    5  A    between atoms: C_12  and  C_13 
REMARK    6  A    between atoms: C_12  and  C_22 
REMARK       I    between atoms: C_13  and  N_14 
REMARK    7  A    between atoms: N_14  and  C_15 
REMARK    8  A    between atoms: C_27  and  C_28 
ROOT
HETATM    1  C   UNL     1      41.791 -15.601   3.099  1.00  0.00     0.225 C 
HETATM    2  N   UNL     1      41.109 -14.459   3.525  1.00  0.00    -0.330 N 
HETATM    3  O   UNL     1      41.311 -16.363   2.253  1.00  0.00    -0.273 OA
ENDROOT
BRANCH   2   4
HETATM    4  C   UNL     1      39.831 -14.151   2.858  1.00  0.00     0.165 C 
BRANCH   4   5
HETATM    5  C   UNL     1      39.988 -13.305   1.614  1.00  0.00    -0.037 A 
HETATM    6  C   UNL     1      40.090 -13.915   0.351  1.00  0.00     0.048 A 
HETATM    7  C   UNL     1      40.278 -13.107  -0.751  1.00  0.00     0.105 A 
HETATM    8  C   UNL     1      40.344 -11.738  -0.645  1.00  0.00     0.105 A 
HETATM    9  O   UNL     1      40.434 -13.533  -2.034  1.00  0.00    -0.323 OA
HETATM   10  O   UNL     1      40.544 -11.130  -1.845  1.00  0.00    -0.323 OA
HETATM   11  C   UNL     1      40.215 -11.100   0.566  1.00  0.00     0.040 A 
HETATM   12  C   UNL     1      40.599 -12.274  -2.721  1.00  0.00     0.352 A 
HETATM   13  C   UNL     1      40.031 -11.895   1.702  1.00  0.00     0.012 A 
ENDBRANCH   4   5
ENDBRANCH   2   4
BRANCH   2  14
HETATM   14  C   UNL     1      41.443 -13.765   4.798  1.00  0.00     0.219 C 
BRANCH  14  15
HETATM   15  C   UNL     1      40.194 -13.160   5.518  1.00  0.00     0.246 C 
HETATM   16  N   UNL     1      39.878 -11.843   5.277  1.00  0.00    -0.354 N 
HETATM   17  H   UNL     1      40.549 -11.308   4.737  1.00  0.00     0.162 HD
HETATM   18  O   UNL     1      39.476 -13.884   6.209  1.00  0.00    -0.271 OA
BRANCH  16  19
HETATM   19  C   UNL     1      38.843 -11.053   5.947  1.00  0.00     0.084 C 
HETATM   20  C   UNL     1      39.132 -10.689   7.413  1.00  0.00     0.025 C 
HETATM   21  C   UNL     1      39.774  -9.326   7.655  1.00  0.00     0.002 C 
HETATM   22  C   UNL     1      39.124  -8.218   6.838  1.00  0.00     0.000 C 
HETATM   23  C   UNL     1      39.086  -8.559   5.354  1.00  0.00     0.002 C 
HETATM   24  C   UNL     1      38.351  -9.871   5.100  1.00  0.00     0.025 C 
ENDBRANCH  16  19
ENDBRANCH  14  15
BRANCH  14  25
HETATM   25  C   UNL     1      42.636 -12.830   4.664  1.00  0.00     0.014 A 
HETATM   26  S   UNL     1      43.589 -12.473   6.062  1.00  0.00    -0.104 SA
HETATM   27  C   UNL     1      44.661 -11.484   5.177  1.00  0.00     0.050 A 
HETATM   28  C   UNL     1      44.355 -11.464   3.839  1.00  0.00     0.008 A 
HETATM   29  C   UNL     1      43.209 -12.256   3.542  1.00  0.00     0.017 A 
ENDBRANCH  14  25
ENDBRANCH   2  14
BRANCH   1  30
HETATM   30  C   UNL     1      43.206 -15.851   3.594  1.00  0.00     0.144 C 
BRANCH  30  31
HETATM   31  C   UNL     1      43.482 -17.109   4.362  1.00  0.00    -0.021 A 
HETATM   32  C   UNL     1      43.665 -18.467   3.924  1.00  0.00    -0.001 A 
HETATM   33  C   UNL     1      43.684 -19.122   2.675  1.00  0.00     0.014 A 
HETATM   34  C   UNL     1      43.822 -19.255   5.069  1.00  0.00     0.042 A 
HETATM   35  C   UNL     1      43.820 -20.515   2.616  1.00  0.00     0.001 A 
HETATM   36  C   UNL     1      43.959 -21.266   3.779  1.00  0.00     0.002 A 
HETATM   37  C   UNL     1      43.973 -20.647   5.028  1.00  0.00     0.030 A 
HETATM   38  N   UNL     1      43.794 -18.414   6.153  1.00  0.00    -0.365 N 
HETATM   39  H   UNL     1      43.899 -18.713   7.113  1.00  0.00     0.165 HD
HETATM   40  C   UNL     1      43.583 -17.129   5.744  1.00  0.00     0.097 A 
ENDBRANCH  30  31
ENDBRANCH   1  30
TORSDOF 8
ENDMDL
MODEL 5
REMARK VINA RESULT:      -9.5      1.955      3.186
REMARK  8 active torsions:
REMARK  status: ('A' for Active; 'I' for Inactive)
REMARK    1  A    between atoms: C_8  and  C_9 
REMARK    2  A    between atoms: C_9  and  C_10 
REMARK       I    between atoms: C_10  and  N_11 
REMARK    3  A    between atoms: N_11  and  C_27 
REMARK    4  A    between atoms: N_11  and  C_12 
REMARK    5  A    between atoms: C_12  and  C_13 
REMARK    6  A    between atoms: C_12  and  C_22 
REMARK       I    between atoms: C_13  and  N_14 
REMARK    7  A    between atoms: N_14  and  C_15 
REMARK    8  A    between atoms: C_27  and  C_28 
ROOT
HETATM    1  C   UNL     1      43.377 -13.358   6.259  1.00  0.00     0.225 C 
HETATM    2  N   UNL     1      42.955 -12.113   5.788  1.00  0.00    -0.330 N 
HETATM    3  O   UNL     1      44.509 -13.523   6.725  1.00  0.00    -0.273 OA
ENDROOT
BRANCH   2   4
HETATM    4  C   UNL     1      43.886 -10.981   5.950  1.00  0.00     0.165 C 
BRANCH   4   5
HETATM    5  C   UNL     1      44.005 -10.499   7.380  1.00  0.00    -0.037 A 
HETATM    6  C   UNL     1      42.871 -10.021   8.062  1.00  0.00     0.048 A 
HETATM    7  C   UNL     1      43.034  -9.550   9.348  1.00  0.00     0.105 A 
HETATM    8  C   UNL     1      44.256  -9.558   9.975  1.00  0.00     0.105 A 
HETATM    9  O   UNL     1      42.055  -9.020  10.131  1.00  0.00    -0.323 OA
HETATM   10  O   UNL     1      44.203  -9.041  11.231  1.00  0.00    -0.323 OA
HETATM   11  C   UNL     1      45.383 -10.047   9.356  1.00  0.00     0.040 A 
HETATM   12  C   UNL     1      42.804  -8.703  11.324  1.00  0.00     0.352 A 
HETATM   13  C   UNL     1      45.249 -10.525   8.049  1.00  0.00     0.012 A 
ENDBRANCH   4   5
ENDBRANCH   2   4
BRANCH   2  14
HETATM   14  C   UNL     1      41.797 -11.965   4.866  1.00  0.00     0.219 C 
BRANCH  14  15
HETATM   15  C   UNL     1      42.180 -12.129   3.360  1.00  0.00     0.246 C 
HETATM   16  N   UNL     1      41.340 -12.857   2.549  1.00  0.00    -0.354 N 
HETATM   17  H   UNL     1      40.581 -13.348   3.008  1.00  0.00     0.162 HD
HETATM   18  O   UNL     1      43.166 -11.541   2.913  1.00  0.00    -0.271 OA
BRANCH  16  19
HETATM   19  C   UNL     1      41.582 -13.242   1.157  1.00  0.00     0.084 C 
HETATM   20  C   UNL     1      41.329 -14.723   0.826  1.00  0.00     0.025 C 
HETATM   21  C   UNL     1      39.950 -15.062   0.267  1.00  0.00     0.002 C 
HETATM   22  C   UNL     1      39.492 -14.081  -0.802  1.00  0.00     0.000 C 
HETATM   23  C   UNL     1      39.554 -12.641  -0.310  1.00  0.00     0.002 C 
HETATM   24  C   UNL     1      40.958 -12.266   0.151  1.00  0.00     0.025 C 
ENDBRANCH  16  19
ENDBRANCH  14  15
BRANCH  14  25
HETATM   25  C   UNL     1      40.936 -10.753   5.192  1.00  0.00     0.014 A 
HETATM   26  S   UNL     1      39.691 -10.898   6.384  1.00  0.00    -0.104 SA
HETATM   27  C   UNL     1      39.240  -9.260   6.228  1.00  0.00     0.050 A 
HETATM   28  C   UNL     1      40.046  -8.588   5.343  1.00  0.00     0.008 A 
HETATM   29  C   UNL     1      41.033  -9.438   4.769  1.00  0.00     0.017 A 
ENDBRANCH  14  25
ENDBRANCH   2  14
BRANCH   1  30
HETATM   30  C   UNL     1      42.385 -14.508   6.314  1.00  0.00     0.144 C 
BRANCH  30  31
HETATM   31  C   UNL     1      42.889 -15.899   6.067  1.00  0.00    -0.021 A 
HETATM   32  C   UNL     1      43.199 -16.591   4.845  1.00  0.00    -0.001 A 
HETATM   33  C   UNL     1      43.183 -16.259   3.474  1.00  0.00     0.014 A 
HETATM   34  C   UNL     1      43.562 -17.898   5.188  1.00  0.00     0.042 A 
HETATM   35  C   UNL     1      43.487 -17.233   2.513  1.00  0.00     0.001 A 
HETATM   36  C   UNL     1      43.829 -18.526   2.894  1.00  0.00     0.002 A 
HETATM   37  C   UNL     1      43.883 -18.880   4.242  1.00  0.00     0.030 A 
HETATM   38  N   UNL     1      43.531 -17.986   6.557  1.00  0.00    -0.365 N 
HETATM   39  H   UNL     1      43.763 -18.817   7.083  1.00  0.00     0.165 HD
HETATM   40  C   UNL     1      43.122 -16.799   7.094  1.00  0.00     0.097 A 
ENDBRANCH  30  31
ENDBRANCH   1  30
TORSDOF 8
ENDMDL
MODEL 6
REMARK VINA RESULT:      -9.3      2.729      7.668
REMARK  8 active torsions:
REMARK  status: ('A' for Active; 'I' for Inactive)
REMARK    1  A    between atoms: C_8  and  C_9 
REMARK    2  A    between atoms: C_9  and  C_10 
REMARK       I    between atoms: C_10  and  N_11 
REMARK    3  A    between atoms: N_11  and  C_27 
REMARK    4  A    between atoms: N_11  and  C_12 
REMARK    5  A    between atoms: C_12  and  C_13 
REMARK    6  A    between atoms: C_12  and  C_22 
REMARK       I    between atoms: C_13  and  N_14 
REMARK    7  A    between atoms: N_14  and  C_15 
REMARK    8  A    between atoms: C_27  and  C_28 
ROOT
HETATM    1  C   UNL     1      43.191 -13.387   6.167  1.00  0.00     0.225 C 
HETATM    2  N   UNL     1      42.052 -13.865   5.514  1.00  0.00    -0.330 N 
HETATM    3  O   UNL     1      43.668 -13.971   7.144  1.00  0.00    -0.273 OA
ENDROOT
BRANCH   2   4
HETATM    4  C   UNL     1      41.496 -15.146   5.984  1.00  0.00     0.165 C 
BRANCH   4   5
HETATM    5  C   UNL     1      42.297 -16.351   5.541  1.00  0.00    -0.037 A 
HETATM    6  C   UNL     1      42.492 -16.606   4.172  1.00  0.00     0.048 A 
HETATM    7  C   UNL     1      43.190 -17.740   3.812  1.00  0.00     0.105 A 
HETATM    8  C   UNL     1      43.712 -18.599   4.749  1.00  0.00     0.105 A 
HETATM    9  O   UNL     1      43.434 -18.154   2.539  1.00  0.00    -0.323 OA
HETATM   10  O   UNL     1      44.353 -19.658   4.187  1.00  0.00    -0.323 OA
HETATM   11  C   UNL     1      43.574 -18.368   6.098  1.00  0.00     0.040 A 
HETATM   12  C   UNL     1      44.174 -19.369   2.786  1.00  0.00     0.352 A 
HETATM   13  C   UNL     1      42.863 -17.230   6.491  1.00  0.00     0.012 A 
ENDBRANCH   4   5
ENDBRANCH   2   4
BRANCH   2  14
HETATM   14  C   UNL     1      41.224 -13.001   4.629  1.00  0.00     0.219 C 
BRANCH  14  15
HETATM   15  C   UNL     1      40.010 -12.347   5.365  1.00  0.00     0.246 C 
HETATM   16  N   UNL     1      39.937 -10.974   5.410  1.00  0.00    -0.354 N 
HETATM   17  H   UNL     1      40.745 -10.467   5.066  1.00  0.00     0.162 HD
HETATM   18  O   UNL     1      39.109 -13.060   5.809  1.00  0.00    -0.271 OA
BRANCH  16  19
HETATM   19  C   UNL     1      38.968 -10.171   6.158  1.00  0.00     0.084 C 
HETATM   20  C   UNL     1      39.470  -9.604   7.496  1.00  0.00     0.025 C 
HETATM   21  C   UNL     1      40.024  -8.183   7.460  1.00  0.00     0.002 C 
HETATM   22  C   UNL     1      39.154  -7.233   6.649  1.00  0.00     0.000 C 
HETATM   23  C   UNL     1      38.894  -7.765   5.246  1.00  0.00     0.002 C 
HETATM   24  C   UNL     1      38.242  -9.142   5.281  1.00  0.00     0.025 C 
ENDBRANCH  16  19
ENDBRANCH  14  15
BRANCH  14  25
HETATM   25  C   UNL     1      40.901 -13.662   3.296  1.00  0.00     0.014 A 
HETATM   26  S   UNL     1      42.073 -13.614   2.025  1.00  0.00    -0.104 SA
HETATM   27  C   UNL     1      41.083 -14.518   0.970  1.00  0.00     0.050 A 
HETATM   28  C   UNL     1      39.913 -14.909   1.573  1.00  0.00     0.008 A 
HETATM   29  C   UNL     1      39.821 -14.439   2.914  1.00  0.00     0.017 A 
ENDBRANCH  14  25
ENDBRANCH   2  14
BRANCH   1  30
HETATM   30  C   UNL     1      43.930 -12.190   5.592  1.00  0.00     0.144 C 
BRANCH  30  31
HETATM   31  C   UNL     1      44.747 -11.341   6.521  1.00  0.00    -0.021 A 
HETATM   32  C   UNL     1      44.363 -10.509   7.630  1.00  0.00    -0.001 A 
HETATM   33  C   UNL     1      43.146 -10.193   8.270  1.00  0.00     0.014 A 
HETATM   34  C   UNL     1      45.522  -9.883   8.101  1.00  0.00     0.042 A 
HETATM   35  C   UNL     1      43.125  -9.256   9.312  1.00  0.00     0.001 A 
HETATM   36  C   UNL     1      44.298  -8.644   9.742  1.00  0.00     0.002 A 
HETATM   37  C   UNL     1      45.522  -8.955   9.150  1.00  0.00     0.030 A 
HETATM   38  N   UNL     1      46.573 -10.352   7.354  1.00  0.00    -0.365 N 
HETATM   39  H   UNL     1      47.537 -10.079   7.487  1.00  0.00     0.165 HD
HETATM   40  C   UNL     1      46.122 -11.218   6.401  1.00  0.00     0.097 A 
ENDBRANCH  30  31
ENDBRANCH   1  30
TORSDOF 8
ENDMDL
MODEL 7
REMARK VINA RESULT:      -9.0     16.440     19.491
REMARK  8 active torsions:
REMARK  status: ('A' for Active; 'I' for Inactive)
REMARK    1  A    between atoms: C_8  and  C_9 
REMARK    2  A    between atoms: C_9  and  C_10 
REMARK       I    between atoms: C_10  and  N_11 
REMARK    3  A    between atoms: N_11  and  C_27 
REMARK    4  A    between atoms: N_11  and  C_12 
REMARK    5  A    between atoms: C_12  and  C_13 
REMARK    6  A    between atoms: C_12  and  C_22 
REMARK       I    between atoms: C_13  and  N_14 
REMARK    7  A    between atoms: N_14  and  C_15 
REMARK    8  A    between atoms: C_27  and  C_28 
ROOT
HETATM    1  C   UNL     1      46.086 -28.586  -1.717  1.00  0.00     0.225 C 
HETATM    2  N   UNL     1      46.816 -29.051  -0.620  1.00  0.00    -0.330 N 
HETATM    3  O   UNL     1      46.547 -27.739  -2.488  1.00  0.00    -0.273 OA
ENDROOT
BRANCH   2   4
HETATM    4  C   UNL     1      48.196 -28.554  -0.472  1.00  0.00     0.165 C 
BRANCH   4   5
HETATM    5  C   UNL     1      49.248 -29.615  -0.717  1.00  0.00    -0.037 A 
HETATM    6  C   UNL     1      49.443 -30.132  -2.010  1.00  0.00     0.048 A 
HETATM    7  C   UNL     1      50.381 -31.129  -2.180  1.00  0.00     0.105 A 
HETATM    8  C   UNL     1      51.132 -31.605  -1.132  1.00  0.00     0.105 A 
HETATM    9  O   UNL     1      50.667 -31.763  -3.349  1.00  0.00    -0.323 OA
HETATM   10  O   UNL     1      51.988 -32.592  -1.508  1.00  0.00    -0.323 OA
HETATM   11  C   UNL     1      50.996 -31.102   0.141  1.00  0.00     0.040 A 
HETATM   12  C   UNL     1      51.689 -32.686  -2.916  1.00  0.00     0.352 A 
HETATM   13  C   UNL     1      50.047 -30.096   0.344  1.00  0.00     0.012 A 
ENDBRANCH   4   5
ENDBRANCH   2   4
BRANCH   2  14
HETATM   14  C   UNL     1      46.168 -29.730   0.534  1.00  0.00     0.219 C 
BRANCH  14  15
HETATM   15  C   UNL     1      46.730 -29.270   1.918  1.00  0.00     0.246 C 
HETATM   16  N   UNL     1      47.508 -30.152   2.631  1.00  0.00    -0.354 N 
HETATM   17  H   UNL     1      47.570 -31.096   2.268  1.00  0.00     0.162 HD
HETATM   18  O   UNL     1      46.541 -28.114   2.300  1.00  0.00    -0.271 OA
BRANCH  16  19
HETATM   19  C   UNL     1      48.013 -29.971   3.994  1.00  0.00     0.084 C 
HETATM   20  C   UNL     1      47.860 -31.187   4.923  1.00  0.00     0.025 C 
HETATM   21  C   UNL     1      49.068 -32.116   5.021  1.00  0.00     0.002 C 
HETATM   22  C   UNL     1      50.380 -31.360   5.168  1.00  0.00     0.000 C 
HETATM   23  C   UNL     1      50.562 -30.325   4.065  1.00  0.00     0.002 C 
HETATM   24  C   UNL     1      49.407 -29.331   4.034  1.00  0.00     0.025 C 
ENDBRANCH  16  19
ENDBRANCH  14  15
BRANCH  14  25
HETATM   25  C   UNL     1      46.056 -31.236   0.343  1.00  0.00     0.014 A 
HETATM   26  S   UNL     1      44.675 -32.066   0.973  1.00  0.00    -0.104 SA
HETATM   27  C   UNL     1      45.209 -33.573   0.377  1.00  0.00     0.050 A 
HETATM   28  C   UNL     1      46.375 -33.458  -0.339  1.00  0.00     0.008 A 
HETATM   29  C   UNL     1      46.845 -32.115  -0.379  1.00  0.00     0.017 A 
ENDBRANCH  14  25
ENDBRANCH   2  14
BRANCH   1  30
HETATM   30  C   UNL     1      44.743 -29.221  -2.040  1.00  0.00     0.144 C 
BRANCH  30  31
HETATM   31  C   UNL     1      44.583 -29.920  -3.357  1.00  0.00    -0.021 A 
HETATM   32  C   UNL     1      44.304 -31.296  -3.672  1.00  0.00    -0.001 A 
HETATM   33  C   UNL     1      44.058 -32.465  -2.922  1.00  0.00     0.014 A 
HETATM   34  C   UNL     1      44.333 -31.417  -5.066  1.00  0.00     0.042 A 
HETATM   35  C   UNL     1      43.890 -33.694  -3.574  1.00  0.00     0.001 A 
HETATM   36  C   UNL     1      43.941 -33.776  -4.962  1.00  0.00     0.002 A 
HETATM   37  C   UNL     1      44.154 -32.635  -5.735  1.00  0.00     0.030 A 
HETATM   38  N   UNL     1      44.562 -30.166  -5.581  1.00  0.00    -0.365 N 
HETATM   39  H   UNL     1      44.620 -29.955  -6.568  1.00  0.00     0.165 HD
HETATM   40  C   UNL     1      44.722 -29.264  -4.569  1.00  0.00     0.097 A 
ENDBRANCH  30  31
ENDBRANCH   1  30
TORSDOF 8
ENDMDL
MODEL 8
REMARK VINA RESULT:      -9.0      2.130      7.604
REMARK  8 active torsions:
REMARK  status: ('A' for Active; 'I' for Inactive)
REMARK    1  A    between atoms: C_8  and  C_9 
REMARK    2  A    between atoms: C_9  and  C_10 
REMARK       I    between atoms: C_10  and  N_11 
REMARK    3  A    between atoms: N_11  and  C_27 
REMARK    4  A    between atoms: N_11  and  C_12 
REMARK    5  A    between atoms: C_12  and  C_13 
REMARK    6  A    between atoms: C_12  and  C_22 
REMARK       I    between atoms: C_13  and  N_14 
REMARK    7  A    between atoms: N_14  and  C_15 
REMARK    8  A    between atoms: C_27  and  C_28 
ROOT
HETATM    1  C   UNL     1      43.594 -11.467   4.530  1.00  0.00     0.225 C 
HETATM    2  N   UNL     1      42.701 -12.484   4.186  1.00  0.00    -0.330 N 
HETATM    3  O   UNL     1      44.610 -11.246   3.863  1.00  0.00    -0.273 OA
ENDROOT
BRANCH   2   4
HETATM    4  C   UNL     1      42.975 -13.227   2.942  1.00  0.00     0.165 C 
BRANCH   4   5
HETATM    5  C   UNL     1      41.990 -12.928   1.833  1.00  0.00    -0.037 A 
HETATM    6  C   UNL     1      41.260 -13.970   1.234  1.00  0.00     0.048 A 
HETATM    7  C   UNL     1      40.407 -13.657   0.196  1.00  0.00     0.105 A 
HETATM    8  C   UNL     1      40.241 -12.366  -0.243  1.00  0.00     0.105 A 
HETATM    9  O   UNL     1      39.660 -14.544  -0.515  1.00  0.00    -0.323 OA
HETATM   10  O   UNL     1      39.367 -12.275  -1.280  1.00  0.00    -0.323 OA
HETATM   11  C   UNL     1      40.910 -11.313   0.338  1.00  0.00     0.040 A 
HETATM   12  C   UNL     1      39.001 -13.660  -1.447  1.00  0.00     0.352 A 
HETATM   13  C   UNL     1      41.787 -11.602   1.387  1.00  0.00     0.012 A 
ENDBRANCH   4   5
ENDBRANCH   2   4
BRANCH   2  14
HETATM   14  C   UNL     1      41.724 -13.044   5.158  1.00  0.00     0.219 C 
BRANCH  14  15
HETATM   15  C   UNL     1      41.320 -14.522   4.849  1.00  0.00     0.246 C 
HETATM   16  N   UNL     1      42.280 -15.499   4.971  1.00  0.00    -0.354 N 
HETATM   17  H   UNL     1      43.229 -15.183   5.139  1.00  0.00     0.162 HD
HETATM   18  O   UNL     1      40.147 -14.793   4.588  1.00  0.00    -0.271 OA
BRANCH  16  19
HETATM   19  C   UNL     1      42.148 -16.909   4.600  1.00  0.00     0.084 C 
HETATM   20  C   UNL     1      42.057 -17.191   3.091  1.00  0.00     0.025 C 
HETATM   21  C   UNL     1      43.368 -17.538   2.391  1.00  0.00     0.002 C 
HETATM   22  C   UNL     1      44.209 -18.533   3.177  1.00  0.00     0.000 C 
HETATM   23  C   UNL     1      44.449 -18.063   4.606  1.00  0.00     0.002 C 
HETATM   24  C   UNL     1      43.137 -17.818   5.343  1.00  0.00     0.025 C 
ENDBRANCH  16  19
ENDBRANCH  14  15
BRANCH  14  25
HETATM   25  C   UNL     1      40.566 -12.096   5.441  1.00  0.00     0.014 A 
HETATM   26  S   UNL     1      39.784 -11.303   4.118  1.00  0.00    -0.104 SA
HETATM   27  C   UNL     1      38.669 -10.518   5.144  1.00  0.00     0.050 A 
HETATM   28  C   UNL     1      38.833 -10.886   6.457  1.00  0.00     0.008 A 
HETATM   29  C   UNL     1      39.904 -11.810   6.622  1.00  0.00     0.017 A 
ENDBRANCH  14  25
ENDBRANCH   2  14
BRANCH   1  30
HETATM   30  C   UNL     1      43.250 -10.531   5.677  1.00  0.00     0.144 C 
BRANCH  30  31
HETATM   31  C   UNL     1      44.124 -10.545   6.896  1.00  0.00    -0.021 A 
HETATM   32  C   UNL     1      43.890 -10.077   8.236  1.00  0.00    -0.001 A 
HETATM   33  C   UNL     1      42.806  -9.479   8.913  1.00  0.00     0.014 A 
HETATM   34  C   UNL     1      45.073 -10.270   8.957  1.00  0.00     0.042 A 
HETATM   35  C   UNL     1      42.950  -9.072  10.245  1.00  0.00     0.001 A 
HETATM   36  C   UNL     1      44.148  -9.268  10.924  1.00  0.00     0.002 A 
HETATM   37  C   UNL     1      45.231  -9.881  10.293  1.00  0.00     0.030 A 
HETATM   38  N   UNL     1      45.970 -10.879   8.116  1.00  0.00    -0.365 N 
HETATM   39  H   UNL     1      46.908 -11.149   8.378  1.00  0.00     0.165 HD
HETATM   40  C   UNL     1      45.418 -11.040   6.878  1.00  0.00     0.097 A 
ENDBRANCH  30  31
ENDBRANCH   1  30
TORSDOF 8
ENDMDL
MODEL 9
REMARK VINA RESULT:      -9.0      2.401      6.656
REMARK  8 active torsions:
REMARK  status: ('A' for Active; 'I' for Inactive)
REMARK    1  A    between atoms: C_8  and  C_9 
REMARK    2  A    between atoms: C_9  and  C_10 
REMARK       I    between atoms: C_10  and  N_11 
REMARK    3  A    between atoms: N_11  and  C_27 
REMARK    4  A    between atoms: N_11  and  C_12 
REMARK    5  A    between atoms: C_12  and  C_13 
REMARK    6  A    between atoms: C_12  and  C_22 
REMARK       I    between atoms: C_13  and  N_14 
REMARK    7  A    between atoms: N_14  and  C_15 
REMARK    8  A    between atoms: C_27  and  C_28 
ROOT
HETATM    1  C   UNL     1      42.912 -13.071   5.941  1.00  0.00     0.225 C 
HETATM    2  N   UNL     1      41.796 -13.424   5.177  1.00  0.00    -0.330 N 
HETATM    3  O   UNL     1      43.338 -13.804   6.839  1.00  0.00    -0.273 OA
ENDROOT
BRANCH   2   4
HETATM    4  C   UNL     1      41.201 -14.749   5.429  1.00  0.00     0.165 C 
BRANCH   4   5
HETATM    5  C   UNL     1      41.721 -15.828   4.504  1.00  0.00    -0.037 A 
HETATM    6  C   UNL     1      42.731 -16.706   4.937  1.00  0.00     0.048 A 
HETATM    7  C   UNL     1      43.206 -17.645   4.046  1.00  0.00     0.105 A 
HETATM    8  C   UNL     1      42.705 -17.755   2.771  1.00  0.00     0.105 A 
HETATM    9  O   UNL     1      44.201 -18.540   4.289  1.00  0.00    -0.323 OA
HETATM   10  O   UNL     1      43.316 -18.733   2.052  1.00  0.00    -0.323 OA
HETATM   11  C   UNL     1      41.694 -16.939   2.319  1.00  0.00     0.040 A 
HETATM   12  C   UNL     1      44.263 -19.228   3.021  1.00  0.00     0.352 A 
HETATM   13  C   UNL     1      41.198 -15.972   3.199  1.00  0.00     0.012 A 
ENDBRANCH   4   5
ENDBRANCH   2   4
BRANCH   2  14
HETATM   14  C   UNL     1      41.020 -12.422   4.398  1.00  0.00     0.219 C 
BRANCH  14  15
HETATM   15  C   UNL     1      41.483 -12.303   2.910  1.00  0.00     0.246 C 
HETATM   16  N   UNL     1      40.607 -12.691   1.922  1.00  0.00    -0.354 N 
HETATM   17  H   UNL     1      39.755 -13.148   2.227  1.00  0.00     0.162 HD
HETATM   18  O   UNL     1      42.572 -11.790   2.648  1.00  0.00    -0.271 OA
BRANCH  16  19
HETATM   19  C   UNL     1      40.890 -12.788   0.489  1.00  0.00     0.084 C 
HETATM   20  C   UNL     1      40.786 -14.200  -0.113  1.00  0.00     0.025 C 
HETATM   21  C   UNL     1      39.449 -14.562  -0.754  1.00  0.00     0.002 C 
HETATM   22  C   UNL     1      38.900 -13.450  -1.635  1.00  0.00     0.000 C 
HETATM   23  C   UNL     1      38.817 -12.126  -0.887  1.00  0.00     0.002 C 
HETATM   24  C   UNL     1      40.176 -11.708  -0.335  1.00  0.00     0.025 C 
ENDBRANCH  16  19
ENDBRANCH  14  15
BRANCH  14  25
HETATM   25  C   UNL     1      40.853 -11.102   5.138  1.00  0.00     0.014 A 
HETATM   26  S   UNL     1      41.169  -9.621   4.302  1.00  0.00    -0.104 SA
HETATM   27  C   UNL     1      40.758  -8.674   5.661  1.00  0.00     0.050 A 
HETATM   28  C   UNL     1      40.330  -9.445   6.713  1.00  0.00     0.008 A 
HETATM   29  C   UNL     1      40.360 -10.834   6.403  1.00  0.00     0.017 A 
ENDBRANCH  14  25
ENDBRANCH   2  14
BRANCH   1  30
HETATM   30  C   UNL     1      43.693 -11.818   5.582  1.00  0.00     0.144 C 
BRANCH  30  31
HETATM   31  C   UNL     1      44.648 -11.257   6.593  1.00  0.00    -0.021 A 
HETATM   32  C   UNL     1      44.422 -10.670   7.887  1.00  0.00    -0.001 A 
HETATM   33  C   UNL     1      43.290 -10.423   8.690  1.00  0.00     0.014 A 
HETATM   34  C   UNL     1      45.664 -10.247   8.373  1.00  0.00     0.042 A 
HETATM   35  C   UNL     1      43.429  -9.745   9.908  1.00  0.00     0.001 A 
HETATM   36  C   UNL     1      44.679  -9.327  10.351  1.00  0.00     0.002 A 
HETATM   37  C   UNL     1      45.823  -9.579   9.594  1.00  0.00     0.030 A 
HETATM   38  N   UNL     1      46.611 -10.607   7.448  1.00  0.00    -0.365 N 
HETATM   39  H   UNL     1      47.602 -10.437   7.548  1.00  0.00     0.165 HD
HETATM   40  C   UNL     1      46.015 -11.205   6.375  1.00  0.00     0.097 A 
ENDBRANCH  30  31
ENDBRANCH   1  30
TORSDOF 8
ENDMDL
MODEL 10
REMARK VINA RESULT:      -8.7      2.366      6.263
REMARK  8 active torsions:
REMARK  status: ('A' for Active; 'I' for Inactive)
REMARK    1  A    between atoms: C_8  and  C_9 
REMARK    2  A    between atoms: C_9  and  C_10 
REMARK       I    between atoms: C_10  and  N_11 
REMARK    3  A    between atoms: N_11  and  C_27 
REMARK    4  A    between atoms: N_11  and  C_12 
REMARK    5  A    between atoms: C_12  and  C_13 
REMARK    6  A    between atoms: C_12  and  C_22 
REMARK       I    between atoms: C_13  and  N_14 
REMARK    7  A    between atoms: N_14  and  C_15 
REMARK    8  A    between atoms: C_27  and  C_28 
ROOT
HETATM    1  C   UNL     1      40.179 -11.372   3.272  1.00  0.00     0.225 C 
HETATM    2  N   UNL     1      40.834 -11.677   4.467  1.00  0.00    -0.330 N 
HETATM    3  O   UNL     1      39.041 -10.893   3.263  1.00  0.00    -0.273 OA
ENDROOT
BRANCH   2   4
HETATM    4  C   UNL     1      40.146 -11.319   5.721  1.00  0.00     0.165 C 
BRANCH   4   5
HETATM    5  C   UNL     1      40.527  -9.953   6.249  1.00  0.00    -0.037 A 
HETATM    6  C   UNL     1      40.850  -8.914   5.357  1.00  0.00     0.048 A 
HETATM    7  C   UNL     1      41.235  -7.699   5.883  1.00  0.00     0.105 A 
HETATM    8  C   UNL     1      41.287  -7.478   7.238  1.00  0.00     0.105 A 
HETATM    9  O   UNL     1      41.616  -6.606   5.166  1.00  0.00    -0.323 OA
HETATM   10  O   UNL     1      41.701  -6.220   7.547  1.00  0.00    -0.323 OA
HETATM   11  C   UNL     1      40.947  -8.456   8.143  1.00  0.00     0.040 A 
HETATM   12  C   UNL     1      41.906  -5.672   6.228  1.00  0.00     0.352 A 
HETATM   13  C   UNL     1      40.560  -9.701   7.639  1.00  0.00     0.012 A 
ENDBRANCH   4   5
ENDBRANCH   2   4
BRANCH   2  14
HETATM   14  C   UNL     1      41.990 -12.612   4.522  1.00  0.00     0.219 C 
BRANCH  14  15
HETATM   15  C   UNL     1      41.569 -14.106   4.705  1.00  0.00     0.246 C 
HETATM   16  N   UNL     1      42.341 -15.078   4.111  1.00  0.00    -0.354 N 
HETATM   17  H   UNL     1      43.072 -14.756   3.486  1.00  0.00     0.162 HD
HETATM   18  O   UNL     1      40.620 -14.388   5.437  1.00  0.00    -0.271 OA
BRANCH  16  19
HETATM   19  C   UNL     1      42.048 -16.511   4.045  1.00  0.00     0.084 C 
HETATM   20  C   UNL     1      42.062 -17.126   2.636  1.00  0.00     0.025 C 
HETATM   21  C   UNL     1      43.372 -17.775   2.197  1.00  0.00     0.002 C 
HETATM   22  C   UNL     1      43.987 -18.648   3.281  1.00  0.00     0.000 C 
HETATM   23  C   UNL     1      44.154 -17.888   4.591  1.00  0.00     0.002 C 
HETATM   24  C   UNL     1      42.825 -17.328   5.086  1.00  0.00     0.025 C 
ENDBRANCH  16  19
ENDBRANCH  14  15
BRANCH  14  25
HETATM   25  C   UNL     1      43.096 -12.127   5.449  1.00  0.00     0.014 A 
HETATM   26  S   UNL     1      43.476 -13.048   6.862  1.00  0.00    -0.104 SA
HETATM   27  C   UNL     1      44.729 -11.982   7.317  1.00  0.00     0.050 A 
HETATM   28  C   UNL     1      44.909 -10.979   6.397  1.00  0.00     0.008 A 
HETATM   29  C   UNL     1      43.990 -11.078   5.314  1.00  0.00     0.017 A 
ENDBRANCH  14  25
ENDBRANCH   2  14
BRANCH   1  30
HETATM   30  C   UNL     1      40.925 -11.520   1.956  1.00  0.00     0.144 C 
BRANCH  30  31
HETATM   31  C   UNL     1      40.517 -12.621   1.023  1.00  0.00    -0.021 A 
HETATM   32  C   UNL     1      40.573 -12.719  -0.411  1.00  0.00    -0.001 A 
HETATM   33  C   UNL     1      41.028 -11.886  -1.454  1.00  0.00     0.014 A 
HETATM   34  C   UNL     1      39.992 -13.941  -0.767  1.00  0.00     0.042 A 
HETATM   35  C   UNL     1      40.859 -12.277  -2.788  1.00  0.00     0.001 A 
HETATM   36  C   UNL     1      40.263 -13.494  -3.103  1.00  0.00     0.002 A 
HETATM   37  C   UNL     1      39.827 -14.354  -2.095  1.00  0.00     0.030 A 
HETATM   38  N   UNL     1      39.649 -14.586   0.394  1.00  0.00    -0.365 N 
HETATM   39  H   UNL     1      39.220 -15.500   0.436  1.00  0.00     0.165 HD
HETATM   40  C   UNL     1      39.949 -13.803   1.472  1.00  0.00     0.097 A 
ENDBRANCH  30  31
ENDBRANCH   1  30
TORSDOF 8
ENDMDL
