MODEL 1
REMARK VINA RESULT:      -9.6      0.000      0.000
REMARK  2 active torsions:
REMARK  status: ('A' for Active; 'I' for Inactive)
REMARK    1  A    between atoms: O_2  and  C_3 
REMARK    2  A    between atoms: C_5  and  N_6 
ROOT
HETATM    1  N   UNL     1      41.897 -15.700   4.728  1.00  0.00    -0.252 N 
HETATM    2  C   UNL     1      40.811 -15.484   3.909  1.00  0.00     0.239 C 
HETATM    3  O   UNL     1      40.128 -16.257   3.257  1.00  0.00    -0.272 OA
HETATM    4  C   UNL     1      40.552 -14.017   3.828  1.00  0.00     0.145 C 
HETATM    5  C   UNL     1      41.260 -13.458   5.046  1.00  0.00     0.126 C 
HETATM    6  C   UNL     1      42.304 -14.517   5.313  1.00  0.00     0.238 C 
HETATM    7  O   UNL     1      43.335 -14.262   5.915  1.00  0.00    -0.272 OA
HETATM    8  C   UNL     1      41.192 -13.374   2.587  1.00  0.00     0.250 A 
HETATM    9  C   UNL     1      41.979 -14.351   1.632  1.00  0.00     0.264 A 
HETATM   10  O   UNL     1      42.980 -14.982   1.926  1.00  0.00    -0.270 OA
HETATM   11  N   UNL     1      41.378 -14.309   0.389  1.00  0.00    -0.324 N 
HETATM   12  C   UNL     1      40.312 -13.428   0.373  1.00  0.00     0.044 A 
HETATM   13  C   UNL     1      40.149 -12.829   1.627  1.00  0.00     0.015 A 
HETATM   14  C   UNL     1      39.502 -13.138  -0.703  1.00  0.00     0.030 A 
HETATM   15  C   UNL     1      38.490 -12.199  -0.506  1.00  0.00     0.002 A 
HETATM   16  C   UNL     1      38.314 -11.581   0.745  1.00  0.00     0.001 A 
HETATM   17  C   UNL     1      39.145 -11.894   1.827  1.00  0.00     0.012 A 
HETATM   18  N   UNL     1      42.063 -12.228   3.148  1.00  0.00    -0.043 N 
HETATM   19  H   UNL     1      41.826 -11.364   2.638  1.00  0.00     0.282 HD
HETATM   20  C   UNL     1      41.732 -12.078   4.613  1.00  0.00     0.204 C 
HETATM   21  C   UNL     1      43.571 -12.358   3.096  1.00  0.00     0.237 C 
HETATM   22  C   UNL     1      44.011 -11.351   4.140  1.00  0.00     0.030 C 
HETATM   23  C   UNL     1      42.958 -11.427   5.241  1.00  0.00     0.036 C 
HETATM   24  H   UNL     1      41.689 -14.867  -0.398  1.00  0.00     0.169 HD
ENDROOT
BRANCH   1  25
HETATM   25  C   UNL     1      42.599 -16.946   4.835  1.00  0.00     0.048 A 
HETATM   26  C   UNL     1      43.114 -17.599   3.703  1.00  0.00     0.066 A 
HETATM   27  C   UNL     1      43.865 -18.779   3.797  1.00  0.00     0.070 A 
HETATM   28  C   UNL     1      44.086 -19.354   5.043  1.00  0.00     0.037 A 
HETATM   29  C   UNL     1      43.565 -18.744   6.180  1.00  0.00     0.005 A 
HETATM   30  C   UNL     1      42.832 -17.555   6.076  1.00  0.00     0.030 A 
BRANCH  27  31
HETATM   31  O   UNL     1      44.316 -19.263   2.600  1.00  0.00    -0.356 OA
HETATM   32  C   UNL     1      43.521 -20.264   1.975  1.00  0.00     0.210 C 
ENDBRANCH  27  31
ENDBRANCH   1  25
TORSDOF 2
ENDMDL
MODEL 2
REMARK VINA RESULT:      -9.5      1.868      3.938
REMARK  2 active torsions:
REMARK  status: ('A' for Active; 'I' for Inactive)
REMARK    1  A    between atoms: O_2  and  C_3 
REMARK    2  A    between atoms: C_5  and  N_6 
ROOT
HETATM    1  N   UNL     1      43.344 -16.475   3.903  1.00  0.00    -0.252 N 
HETATM    2  C   UNL     1      43.282 -15.360   4.708  1.00  0.00     0.239 C 
HETATM    3  O   UNL     1      43.492 -15.216   5.902  1.00  0.00    -0.272 OA
HETATM    4  C   UNL     1      42.806 -14.203   3.895  1.00  0.00     0.145 C 
HETATM    5  C   UNL     1      43.076 -14.633   2.466  1.00  0.00     0.126 C 
HETATM    6  C   UNL     1      43.084 -16.138   2.589  1.00  0.00     0.238 C 
HETATM    7  O   UNL     1      42.840 -16.860   1.636  1.00  0.00    -0.272 OA
HETATM    8  C   UNL     1      41.292 -13.973   4.029  1.00  0.00     0.250 A 
HETATM    9  C   UNL     1      40.525 -14.962   4.987  1.00  0.00     0.264 A 
HETATM   10  O   UNL     1      40.413 -16.166   4.828  1.00  0.00    -0.270 OA
HETATM   11  N   UNL     1      39.946 -14.217   5.995  1.00  0.00    -0.324 N 
HETATM   12  C   UNL     1      40.201 -12.866   5.835  1.00  0.00     0.044 A 
HETATM   13  C   UNL     1      40.976 -12.644   4.692  1.00  0.00     0.015 A 
HETATM   14  C   UNL     1      39.765 -11.846   6.652  1.00  0.00     0.030 A 
HETATM   15  C   UNL     1      40.123 -10.546   6.296  1.00  0.00     0.002 A 
HETATM   16  C   UNL     1      40.897 -10.301   5.147  1.00  0.00     0.001 A 
HETATM   17  C   UNL     1      41.332 -11.353   4.333  1.00  0.00     0.012 A 
HETATM   18  N   UNL     1      40.765 -13.992   2.576  1.00  0.00    -0.043 N 
HETATM   19  H   UNL     1      40.197 -13.145   2.429  1.00  0.00     0.282 HD
HETATM   20  C   UNL     1      41.963 -13.985   1.657  1.00  0.00     0.204 C 
HETATM   21  C   UNL     1      39.922 -15.162   2.116  1.00  0.00     0.237 C 
HETATM   22  C   UNL     1      40.045 -15.067   0.608  1.00  0.00     0.030 C 
HETATM   23  C   UNL     1      41.474 -14.598   0.351  1.00  0.00     0.036 C 
HETATM   24  H   UNL     1      39.410 -14.626   6.753  1.00  0.00     0.169 HD
ENDROOT
BRANCH   1  25
HETATM   25  C   UNL     1      43.502 -17.817   4.384  1.00  0.00     0.048 A 
HETATM   26  C   UNL     1      43.681 -18.898   3.506  1.00  0.00     0.066 A 
HETATM   27  C   UNL     1      43.908 -20.204   3.962  1.00  0.00     0.070 A 
HETATM   28  C   UNL     1      43.924 -20.460   5.328  1.00  0.00     0.037 A 
HETATM   29  C   UNL     1      43.722 -19.414   6.223  1.00  0.00     0.005 A 
HETATM   30  C   UNL     1      43.514 -18.109   5.756  1.00  0.00     0.030 A 
BRANCH  27  31
HETATM   31  O   UNL     1      44.093 -21.128   2.971  1.00  0.00    -0.356 OA
HETATM   32  C   UNL     1      43.768 -20.720   1.647  1.00  0.00     0.210 C 
ENDBRANCH  27  31
ENDBRANCH   1  25
TORSDOF 2
ENDMDL
MODEL 3
REMARK VINA RESULT:      -9.3      2.817      5.900
REMARK  2 active torsions:
REMARK  status: ('A' for Active; 'I' for Inactive)
REMARK    1  A    between atoms: O_2  and  C_3 
REMARK    2  A    between atoms: C_5  and  N_6 
ROOT
HETATM    1  N   UNL     1      43.871 -12.549   5.812  1.00  0.00    -0.252 N 
HETATM    2  C   UNL     1      43.474 -12.151   4.555  1.00  0.00     0.239 C 
HETATM    3  O   UNL     1      43.639 -11.101   3.954  1.00  0.00    -0.272 OA
HETATM    4  C   UNL     1      42.658 -13.237   3.939  1.00  0.00     0.145 C 
HETATM    5  C   UNL     1      43.035 -14.468   4.739  1.00  0.00     0.126 C 
HETATM    6  C   UNL     1      43.508 -13.862   6.039  1.00  0.00     0.238 C 
HETATM    7  O   UNL     1      43.490 -14.493   7.083  1.00  0.00    -0.272 OA
HETATM    8  C   UNL     1      41.147 -13.013   4.121  1.00  0.00     0.250 A 
HETATM    9  C   UNL     1      40.732 -11.704   4.894  1.00  0.00     0.264 A 
HETATM   10  O   UNL     1      40.995 -11.448   6.056  1.00  0.00    -0.270 OA
HETATM   11  N   UNL     1      39.959 -10.935   4.045  1.00  0.00    -0.324 N 
HETATM   12  C   UNL     1      39.784 -11.555   2.821  1.00  0.00     0.044 A 
HETATM   13  C   UNL     1      40.443 -12.788   2.795  1.00  0.00     0.015 A 
HETATM   14  C   UNL     1      39.061 -11.072   1.752  1.00  0.00     0.030 A 
HETATM   15  C   UNL     1      38.997 -11.871   0.611  1.00  0.00     0.002 A 
HETATM   16  C   UNL     1      39.648 -13.117   0.567  1.00  0.00     0.001 A 
HETATM   17  C   UNL     1      40.380 -13.587   1.663  1.00  0.00     0.012 A 
HETATM   18  N   UNL     1      40.640 -14.310   4.791  1.00  0.00    -0.043 N 
HETATM   19  H   UNL     1      39.837 -14.660   4.248  1.00  0.00     0.282 HD
HETATM   20  C   UNL     1      41.770 -15.312   4.760  1.00  0.00     0.204 C 
HETATM   21  C   UNL     1      40.195 -14.264   6.238  1.00  0.00     0.237 C 
HETATM   22  C   UNL     1      40.270 -15.724   6.638  1.00  0.00     0.030 C 
HETATM   23  C   UNL     1      41.482 -16.281   5.898  1.00  0.00     0.036 C 
HETATM   24  H   UNL     1      39.582 -10.029   4.303  1.00  0.00     0.169 HD
ENDROOT
BRANCH   1  25
HETATM   25  C   UNL     1      44.439 -11.678   6.799  1.00  0.00     0.048 A 
HETATM   26  C   UNL     1      43.710 -11.274   7.930  1.00  0.00     0.066 A 
HETATM   27  C   UNL     1      44.275 -10.482   8.940  1.00  0.00     0.070 A 
HETATM   28  C   UNL     1      45.587 -10.043   8.815  1.00  0.00     0.037 A 
HETATM   29  C   UNL     1      46.326 -10.405   7.692  1.00  0.00     0.005 A 
HETATM   30  C   UNL     1      45.758 -11.212   6.698  1.00  0.00     0.030 A 
BRANCH  27  31
HETATM   31  O   UNL     1      43.434 -10.208   9.984  1.00  0.00    -0.356 OA
HETATM   32  C   UNL     1      43.785 -10.757  11.249  1.00  0.00     0.210 C 
ENDBRANCH  27  31
ENDBRANCH   1  25
TORSDOF 2
ENDMDL
MODEL 4
REMARK VINA RESULT:      -9.3      1.260      1.773
REMARK  2 active torsions:
REMARK  status: ('A' for Active; 'I' for Inactive)
REMARK    1  A    between atoms: O_2  and  C_3 
REMARK    2  A    between atoms: C_5  and  N_6 
ROOT
HETATM    1  N   UNL     1      41.435 -15.462   3.679  1.00  0.00    -0.252 N 
HETATM    2  C   UNL     1      40.328 -15.224   2.896  1.00  0.00     0.239 C 
HETATM    3  O   UNL     1      39.775 -15.912   2.053  1.00  0.00    -0.272 OA
HETATM    4  C   UNL     1      39.840 -13.838   3.157  1.00  0.00     0.145 C 
HETATM    5  C   UNL     1      40.453 -13.488   4.499  1.00  0.00     0.126 C 
HETATM    6  C   UNL     1      41.652 -14.407   4.543  1.00  0.00     0.238 C 
HETATM    7  O   UNL     1      42.629 -14.151   5.226  1.00  0.00    -0.272 OA
HETATM    8  C   UNL     1      40.369 -12.825   2.130  1.00  0.00     0.250 A 
HETATM    9  C   UNL     1      41.299 -13.409   0.999  1.00  0.00     0.264 A 
HETATM   10  O   UNL     1      42.388 -13.931   1.170  1.00  0.00    -0.270 OA
HETATM   11  N   UNL     1      40.698 -13.161  -0.219  1.00  0.00    -0.324 N 
HETATM   12  C   UNL     1      39.506 -12.477  -0.063  1.00  0.00     0.044 A 
HETATM   13  C   UNL     1      39.252 -12.231   1.290  1.00  0.00     0.015 A 
HETATM   14  C   UNL     1      38.659 -12.063  -1.069  1.00  0.00     0.030 A 
HETATM   15  C   UNL     1      37.511 -11.367  -0.691  1.00  0.00     0.002 A 
HETATM   16  C   UNL     1      37.241 -11.104   0.665  1.00  0.00     0.001 A 
HETATM   17  C   UNL     1      38.113 -11.537   1.670  1.00  0.00     0.012 A 
HETATM   18  N   UNL     1      41.049 -11.728   2.980  1.00  0.00    -0.043 N 
HETATM   19  H   UNL     1      40.678 -10.814   2.682  1.00  0.00     0.282 HD
HETATM   20  C   UNL     1      40.700 -11.990   4.426  1.00  0.00     0.204 C 
HETATM   21  C   UNL     1      42.558 -11.609   2.955  1.00  0.00     0.237 C 
HETATM   22  C   UNL     1      42.835 -10.829   4.224  1.00  0.00     0.030 C 
HETATM   23  C   UNL     1      41.809 -11.329   5.235  1.00  0.00     0.036 C 
HETATM   24  H   UNL     1      41.092 -13.458  -1.105  1.00  0.00     0.169 HD
ENDROOT
BRANCH   1  25
HETATM   25  C   UNL     1      42.326 -16.573   3.510  1.00  0.00     0.048 A 
HETATM   26  C   UNL     1      42.803 -17.307   4.609  1.00  0.00     0.066 A 
HETATM   27  C   UNL     1      43.615 -18.440   4.456  1.00  0.00     0.070 A 
HETATM   28  C   UNL     1      44.000 -18.842   3.183  1.00  0.00     0.037 A 
HETATM   29  C   UNL     1      43.565 -18.119   2.076  1.00  0.00     0.005 A 
HETATM   30  C   UNL     1      42.739 -16.999   2.239  1.00  0.00     0.030 A 
BRANCH  27  31
HETATM   31  O   UNL     1      43.962 -19.052   5.629  1.00  0.00    -0.356 OA
HETATM   32  C   UNL     1      43.975 -20.475   5.629  1.00  0.00     0.210 C 
ENDBRANCH  27  31
ENDBRANCH   1  25
TORSDOF 2
ENDMDL
MODEL 5
REMARK VINA RESULT:      -8.8      2.577      6.769
REMARK  2 active torsions:
REMARK  status: ('A' for Active; 'I' for Inactive)
REMARK    1  A    between atoms: O_2  and  C_3 
REMARK    2  A    between atoms: C_5  and  N_6 
ROOT
HETATM    1  N   UNL     1      39.544 -13.047   2.228  1.00  0.00    -0.252 N 
HETATM    2  C   UNL     1      39.966 -12.546   3.439  1.00  0.00     0.239 C 
HETATM    3  O   UNL     1      39.798 -11.457   3.962  1.00  0.00    -0.272 OA
HETATM    4  C   UNL     1      40.818 -13.569   4.113  1.00  0.00     0.145 C 
HETATM    5  C   UNL     1      40.442 -14.864   3.421  1.00  0.00     0.126 C 
HETATM    6  C   UNL     1      39.924 -14.368   2.092  1.00  0.00     0.238 C 
HETATM    7  O   UNL     1      39.926 -15.078   1.099  1.00  0.00    -0.272 OA
HETATM    8  C   UNL     1      42.318 -13.336   3.874  1.00  0.00     0.250 A 
HETATM    9  C   UNL     1      42.690 -12.083   2.992  1.00  0.00     0.264 A 
HETATM   10  O   UNL     1      42.392 -11.922   1.820  1.00  0.00    -0.270 OA
HETATM   11  N   UNL     1      43.470 -11.239   3.757  1.00  0.00    -0.324 N 
HETATM   12  C   UNL     1      43.689 -11.760   5.020  1.00  0.00     0.044 A 
HETATM   13  C   UNL     1      43.053 -12.998   5.159  1.00  0.00     0.015 A 
HETATM   14  C   UNL     1      44.430 -11.184   6.028  1.00  0.00     0.030 A 
HETATM   15  C   UNL     1      44.538 -11.892   7.226  1.00  0.00     0.002 A 
HETATM   16  C   UNL     1      43.911 -13.141   7.383  1.00  0.00     0.001 A 
HETATM   17  C   UNL     1      43.160 -13.706   6.346  1.00  0.00     0.012 A 
HETATM   18  N   UNL     1      42.831 -14.672   3.292  1.00  0.00    -0.043 N 
HETATM   19  H   UNL     1      43.654 -14.966   3.838  1.00  0.00     0.282 HD
HETATM   20  C   UNL     1      41.721 -15.687   3.431  1.00  0.00     0.204 C 
HETATM   21  C   UNL     1      43.237 -14.731   1.834  1.00  0.00     0.237 C 
HETATM   22  C   UNL     1      43.178 -16.219   1.549  1.00  0.00     0.030 C 
HETATM   23  C   UNL     1      41.996 -16.737   2.363  1.00  0.00     0.036 C 
HETATM   24  H   UNL     1      43.824 -10.350   3.421  1.00  0.00     0.169 HD
ENDROOT
BRANCH   1  25
HETATM   25  C   UNL     1      38.935 -12.264   1.192  1.00  0.00     0.048 A 
HETATM   26  C   UNL     1      39.527 -12.131  -0.074  1.00  0.00     0.066 A 
HETATM   27  C   UNL     1      38.910 -11.428  -1.119  1.00  0.00     0.070 A 
HETATM   28  C   UNL     1      37.686 -10.808  -0.900  1.00  0.00     0.037 A 
HETATM   29  C   UNL     1      37.087 -10.899   0.353  1.00  0.00     0.005 A 
HETATM   30  C   UNL     1      37.704 -11.619   1.385  1.00  0.00     0.030 A 
BRANCH  27  31
HETATM   31  O   UNL     1      39.611 -11.425  -2.293  1.00  0.00    -0.356 OA
HETATM   32  C   UNL     1      40.893 -12.042  -2.275  1.00  0.00     0.210 C 
ENDBRANCH  27  31
ENDBRANCH   1  25
TORSDOF 2
ENDMDL
MODEL 6
REMARK VINA RESULT:      -8.7      2.117      6.423
REMARK  2 active torsions:
REMARK  status: ('A' for Active; 'I' for Inactive)
REMARK    1  A    between atoms: O_2  and  C_3 
REMARK    2  A    between atoms: C_5  and  N_6 
ROOT
HETATM    1  N   UNL     1      41.631 -13.036   1.345  1.00  0.00    -0.252 N 
HETATM    2  C   UNL     1      42.504 -13.948   1.895  1.00  0.00     0.239 C 
HETATM    3  O   UNL     1      42.966 -14.988   1.454  1.00  0.00    -0.272 OA
HETATM    4  C   UNL     1      42.824 -13.528   3.291  1.00  0.00     0.145 C 
HETATM    5  C   UNL     1      42.458 -12.057   3.317  1.00  0.00     0.126 C 
HETATM    6  C   UNL     1      41.444 -11.968   2.201  1.00  0.00     0.238 C 
HETATM    7  O   UNL     1      40.602 -11.086   2.169  1.00  0.00    -0.272 OA
HETATM    8  C   UNL     1      41.949 -14.240   4.335  1.00  0.00     0.250 A 
HETATM    9  C   UNL     1      40.902 -15.274   3.769  1.00  0.00     0.264 A 
HETATM   10  O   UNL     1      39.962 -15.009   3.039  1.00  0.00    -0.270 OA
HETATM   11  N   UNL     1      41.195 -16.514   4.302  1.00  0.00    -0.324 N 
HETATM   12  C   UNL     1      42.278 -16.451   5.161  1.00  0.00     0.044 A 
HETATM   13  C   UNL     1      42.767 -15.143   5.241  1.00  0.00     0.015 A 
HETATM   14  C   UNL     1      42.827 -17.498   5.868  1.00  0.00     0.030 A 
HETATM   15  C   UNL     1      43.912 -17.211   6.696  1.00  0.00     0.002 A 
HETATM   16  C   UNL     1      44.415 -15.901   6.795  1.00  0.00     0.001 A 
HETATM   17  C   UNL     1      43.844 -14.853   6.065  1.00  0.00     0.012 A 
HETATM   18  N   UNL     1      41.305 -13.096   5.149  1.00  0.00    -0.043 N 
HETATM   19  H   UNL     1      41.467 -13.282   6.150  1.00  0.00     0.282 HD
HETATM   20  C   UNL     1      41.981 -11.809   4.740  1.00  0.00     0.204 C 
HETATM   21  C   UNL     1      39.823 -12.828   4.995  1.00  0.00     0.237 C 
HETATM   22  C   UNL     1      39.702 -11.408   5.511  1.00  0.00     0.030 C 
HETATM   23  C   UNL     1      40.979 -10.706   5.058  1.00  0.00     0.036 C 
HETATM   24  H   UNL     1      40.674 -17.354   4.077  1.00  0.00     0.169 HD
ENDROOT
BRANCH   1  25
HETATM   25  C   UNL     1      40.900 -13.243   0.129  1.00  0.00     0.048 A 
HETATM   26  C   UNL     1      40.956 -12.322  -0.930  1.00  0.00     0.066 A 
HETATM   27  C   UNL     1      40.305 -12.546  -2.151  1.00  0.00     0.070 A 
HETATM   28  C   UNL     1      39.546 -13.696  -2.324  1.00  0.00     0.037 A 
HETATM   29  C   UNL     1      39.449 -14.615  -1.283  1.00  0.00     0.005 A 
HETATM   30  C   UNL     1      40.118 -14.390  -0.073  1.00  0.00     0.030 A 
BRANCH  27  31
HETATM   31  O   UNL     1      40.492 -11.561  -3.083  1.00  0.00    -0.356 OA
HETATM   32  C   UNL     1      40.945 -10.302  -2.600  1.00  0.00     0.210 C 
ENDBRANCH  27  31
ENDBRANCH   1  25
TORSDOF 2
ENDMDL
MODEL 7
REMARK VINA RESULT:      -8.4      2.733      6.286
REMARK  2 active torsions:
REMARK  status: ('A' for Active; 'I' for Inactive)
REMARK    1  A    between atoms: O_2  and  C_3 
REMARK    2  A    between atoms: C_5  and  N_6 
ROOT
HETATM    1  N   UNL     1      39.922 -13.214   0.911  1.00  0.00    -0.252 N 
HETATM    2  C   UNL     1      39.310 -12.345   1.787  1.00  0.00     0.239 C 
HETATM    3  O   UNL     1      38.767 -11.267   1.604  1.00  0.00    -0.272 OA
HETATM    4  C   UNL     1      39.451 -12.878   3.173  1.00  0.00     0.145 C 
HETATM    5  C   UNL     1      39.753 -14.349   2.965  1.00  0.00     0.126 C 
HETATM    6  C   UNL     1      40.341 -14.352   1.573  1.00  0.00     0.238 C 
HETATM    7  O   UNL     1      41.094 -15.235   1.198  1.00  0.00    -0.272 OA
HETATM    8  C   UNL     1      40.645 -12.263   3.922  1.00  0.00     0.250 A 
HETATM    9  C   UNL     1      41.485 -11.195   3.124  1.00  0.00     0.264 A 
HETATM   10  O   UNL     1      42.123 -11.405   2.106  1.00  0.00    -0.270 OA
HETATM   11  N   UNL     1      41.427 -10.002   3.817  1.00  0.00    -0.324 N 
HETATM   12  C   UNL     1      40.684 -10.128   4.977  1.00  0.00     0.044 A 
HETATM   13  C   UNL     1      40.202 -11.433   5.114  1.00  0.00     0.015 A 
HETATM   14  C   UNL     1      40.436  -9.139   5.904  1.00  0.00     0.030 A 
HETATM   15  C   UNL     1      39.673  -9.486   7.019  1.00  0.00     0.002 A 
HETATM   16  C   UNL     1      39.184 -10.796   7.178  1.00  0.00     0.001 A 
HETATM   17  C   UNL     1      39.445 -11.783   6.222  1.00  0.00     0.012 A 
HETATM   18  N   UNL     1      41.479 -13.478   4.388  1.00  0.00    -0.043 N 
HETATM   19  H   UNL     1      41.661 -13.375   5.397  1.00  0.00     0.282 HD
HETATM   20  C   UNL     1      40.661 -14.720   4.127  1.00  0.00     0.204 C 
HETATM   21  C   UNL     1      42.818 -13.744   3.733  1.00  0.00     0.237 C 
HETATM   22  C   UNL     1      43.051 -15.203   4.070  1.00  0.00     0.030 C 
HETATM   23  C   UNL     1      41.672 -15.854   4.011  1.00  0.00     0.036 C 
HETATM   24  H   UNL     1      41.875  -9.150   3.498  1.00  0.00     0.169 HD
ENDROOT
BRANCH   1  25
HETATM   25  C   UNL     1      40.220 -12.911  -0.458  1.00  0.00     0.048 A 
HETATM   26  C   UNL     1      39.599 -13.595  -1.516  1.00  0.00     0.066 A 
HETATM   27  C   UNL     1      39.826 -13.262  -2.858  1.00  0.00     0.070 A 
HETATM   28  C   UNL     1      40.720 -12.245  -3.172  1.00  0.00     0.037 A 
HETATM   29  C   UNL     1      41.372 -11.567  -2.146  1.00  0.00     0.005 A 
HETATM   30  C   UNL     1      41.124 -11.896  -0.807  1.00  0.00     0.030 A 
BRANCH  27  31
HETATM   31  O   UNL     1      39.114 -14.009  -3.757  1.00  0.00    -0.356 OA
HETATM   32  C   UNL     1      38.280 -15.029  -3.222  1.00  0.00     0.210 C 
ENDBRANCH  27  31
ENDBRANCH   1  25
TORSDOF 2
ENDMDL
MODEL 8
REMARK VINA RESULT:      -8.3     15.166     17.590
REMARK  2 active torsions:
REMARK  status: ('A' for Active; 'I' for Inactive)
REMARK    1  A    between atoms: O_2  and  C_3 
REMARK    2  A    between atoms: C_5  and  N_6 
ROOT
HETATM    1  N   UNL     1      45.481 -29.125  -0.446  1.00  0.00    -0.252 N 
HETATM    2  C   UNL     1      46.711 -28.839   0.105  1.00  0.00     0.239 C 
HETATM    3  O   UNL     1      47.746 -28.438  -0.402  1.00  0.00    -0.272 OA
HETATM    4  C   UNL     1      46.677 -29.172   1.559  1.00  0.00     0.145 C 
HETATM    5  C   UNL     1      45.198 -29.202   1.888  1.00  0.00     0.126 C 
HETATM    6  C   UNL     1      44.584 -29.492   0.538  1.00  0.00     0.238 C 
HETATM    7  O   UNL     1      43.486 -30.013   0.433  1.00  0.00    -0.272 OA
HETATM    8  C   UNL     1      47.244 -30.570   1.855  1.00  0.00     0.250 A 
HETATM    9  C   UNL     1      47.762 -31.384   0.608  1.00  0.00     0.264 A 
HETATM   10  O   UNL     1      47.079 -31.767  -0.327  1.00  0.00    -0.270 OA
HETATM   11  N   UNL     1      49.104 -31.646   0.797  1.00  0.00    -0.324 N 
HETATM   12  C   UNL     1      49.553 -31.140   2.004  1.00  0.00     0.044 A 
HETATM   13  C   UNL     1      48.512 -30.504   2.688  1.00  0.00     0.015 A 
HETATM   14  C   UNL     1      50.831 -31.233   2.509  1.00  0.00     0.030 A 
HETATM   15  C   UNL     1      51.066 -30.665   3.761  1.00  0.00     0.002 A 
HETATM   16  C   UNL     1      50.031 -30.027   4.468  1.00  0.00     0.001 A 
HETATM   17  C   UNL     1      48.741 -29.940   3.934  1.00  0.00     0.012 A 
HETATM   18  N   UNL     1      46.120 -31.288   2.635  1.00  0.00    -0.043 N 
HETATM   19  H   UNL     1      46.527 -31.682   3.496  1.00  0.00     0.282 HD
HETATM   20  C   UNL     1      45.070 -30.258   2.975  1.00  0.00     0.204 C 
HETATM   21  C   UNL     1      45.363 -32.414   1.962  1.00  0.00     0.237 C 
HETATM   22  C   UNL     1      44.099 -32.487   2.796  1.00  0.00     0.030 C 
HETATM   23  C   UNL     1      43.780 -31.043   3.169  1.00  0.00     0.036 C 
HETATM   24  H   UNL     1      49.675 -32.144   0.122  1.00  0.00     0.169 HD
ENDROOT
BRANCH   1  25
HETATM   25  C   UNL     1      45.216 -29.186  -1.854  1.00  0.00     0.048 A 
HETATM   26  C   UNL     1      44.795 -30.374  -2.473  1.00  0.00     0.066 A 
HETATM   27  C   UNL     1      44.463 -30.431  -3.834  1.00  0.00     0.070 A 
HETATM   28  C   UNL     1      44.582 -29.291  -4.619  1.00  0.00     0.037 A 
HETATM   29  C   UNL     1      45.023 -28.105  -4.039  1.00  0.00     0.005 A 
HETATM   30  C   UNL     1      45.335 -28.054  -2.674  1.00  0.00     0.030 A 
BRANCH  27  31
HETATM   31  O   UNL     1      44.042 -31.660  -4.264  1.00  0.00    -0.356 OA
HETATM   32  C   UNL     1      44.218 -32.748  -3.364  1.00  0.00     0.210 C 
ENDBRANCH  27  31
ENDBRANCH   1  25
TORSDOF 2
ENDMDL
MODEL 9
REMARK VINA RESULT:      -8.2     14.939     16.799
REMARK  2 active torsions:
REMARK  status: ('A' for Active; 'I' for Inactive)
REMARK    1  A    between atoms: O_2  and  C_3 
REMARK    2  A    between atoms: C_5  and  N_6 
ROOT
HETATM    1  N   UNL     1      46.979 -31.300   1.826  1.00  0.00    -0.252 N 
HETATM    2  C   UNL     1      47.072 -31.111   0.465  1.00  0.00     0.239 C 
HETATM    3  O   UNL     1      48.016 -30.792  -0.240  1.00  0.00    -0.272 OA
HETATM    4  C   UNL     1      45.720 -31.288  -0.141  1.00  0.00     0.145 C 
HETATM    5  C   UNL     1      44.956 -32.073   0.908  1.00  0.00     0.126 C 
HETATM    6  C   UNL     1      45.710 -31.724   2.169  1.00  0.00     0.238 C 
HETATM    7  O   UNL     1      45.184 -31.790   3.268  1.00  0.00    -0.272 OA
HETATM    8  C   UNL     1      44.986 -29.952  -0.343  1.00  0.00     0.250 A 
HETATM    9  C   UNL     1      45.771 -28.659   0.099  1.00  0.00     0.264 A 
HETATM   10  O   UNL     1      46.121 -28.391   1.236  1.00  0.00    -0.270 OA
HETATM   11  N   UNL     1      45.929 -27.854  -1.012  1.00  0.00    -0.324 N 
HETATM   12  C   UNL     1      45.342 -28.418  -2.131  1.00  0.00     0.044 A 
HETATM   13  C   UNL     1      44.756 -29.647  -1.813  1.00  0.00     0.015 A 
HETATM   14  C   UNL     1      45.305 -27.879  -3.398  1.00  0.00     0.030 A 
HETATM   15  C   UNL     1      44.641 -28.610  -4.384  1.00  0.00     0.002 A 
HETATM   16  C   UNL     1      44.040 -29.845  -4.082  1.00  0.00     0.001 A 
HETATM   17  C   UNL     1      44.094 -30.376  -2.789  1.00  0.00     0.012 A 
HETATM   18  N   UNL     1      43.638 -30.134   0.390  1.00  0.00    -0.043 N 
HETATM   19  H   UNL     1      42.881 -29.873  -0.259  1.00  0.00     0.282 HD
HETATM   20  C   UNL     1      43.520 -31.590   0.773  1.00  0.00     0.204 C 
HETATM   21  C   UNL     1      43.390 -29.369   1.673  1.00  0.00     0.237 C 
HETATM   22  C   UNL     1      42.266 -30.165   2.304  1.00  0.00     0.030 C 
HETATM   23  C   UNL     1      42.561 -31.621   1.956  1.00  0.00     0.036 C 
HETATM   24  H   UNL     1      46.421 -26.968  -0.993  1.00  0.00     0.169 HD
ENDROOT
BRANCH   1  25
HETATM   25  C   UNL     1      48.005 -30.955   2.766  1.00  0.00     0.048 A 
HETATM   26  C   UNL     1      48.769 -31.938   3.416  1.00  0.00     0.066 A 
HETATM   27  C   UNL     1      49.823 -31.616   4.283  1.00  0.00     0.070 A 
HETATM   28  C   UNL     1      50.112 -30.282   4.545  1.00  0.00     0.037 A 
HETATM   29  C   UNL     1      49.355 -29.285   3.937  1.00  0.00     0.005 A 
HETATM   30  C   UNL     1      48.315 -29.619   3.059  1.00  0.00     0.030 A 
BRANCH  27  31
HETATM   31  O   UNL     1      50.480 -32.696   4.804  1.00  0.00    -0.356 OA
HETATM   32  C   UNL     1      51.754 -32.450   5.388  1.00  0.00     0.210 C 
ENDBRANCH  27  31
ENDBRANCH   1  25
TORSDOF 2
ENDMDL
MODEL 10
REMARK VINA RESULT:      -8.2      2.508      5.478
REMARK  2 active torsions:
REMARK  status: ('A' for Active; 'I' for Inactive)
REMARK    1  A    between atoms: O_2  and  C_3 
REMARK    2  A    between atoms: C_5  and  N_6 
ROOT
HETATM    1  N   UNL     1      42.396 -12.180   3.528  1.00  0.00    -0.252 N 
HETATM    2  C   UNL     1      41.959 -11.650   2.334  1.00  0.00     0.239 C 
HETATM    3  O   UNL     1      41.593 -10.523   2.040  1.00  0.00    -0.272 OA
HETATM    4  C   UNL     1      41.902 -12.738   1.315  1.00  0.00     0.145 C 
HETATM    5  C   UNL     1      42.804 -13.814   1.886  1.00  0.00     0.126 C 
HETATM    6  C   UNL     1      42.767 -13.500   3.363  1.00  0.00     0.238 C 
HETATM    7  O   UNL     1      42.996 -14.353   4.204  1.00  0.00    -0.272 OA
HETATM    8  C   UNL     1      40.494 -13.341   1.176  1.00  0.00     0.250 A 
HETATM    9  C   UNL     1      39.381 -12.714   2.100  1.00  0.00     0.264 A 
HETATM   10  O   UNL     1      39.365 -12.745   3.318  1.00  0.00    -0.270 OA
HETATM   11  N   UNL     1      38.396 -12.191   1.285  1.00  0.00    -0.324 N 
HETATM   12  C   UNL     1      38.684 -12.397  -0.052  1.00  0.00     0.044 A 
HETATM   13  C   UNL     1      39.897 -13.079  -0.195  1.00  0.00     0.015 A 
HETATM   14  C   UNL     1      37.912 -12.014  -1.127  1.00  0.00     0.030 A 
HETATM   15  C   UNL     1      38.382 -12.338  -2.399  1.00  0.00     0.002 A 
HETATM   16  C   UNL     1      39.597 -13.029  -2.564  1.00  0.00     0.001 A 
HETATM   17  C   UNL     1      40.367 -13.405  -1.458  1.00  0.00     0.012 A 
HETATM   18  N   UNL     1      40.697 -14.856   1.398  1.00  0.00    -0.043 N 
HETATM   19  H   UNL     1      40.253 -15.359   0.615  1.00  0.00     0.282 HD
HETATM   20  C   UNL     1      42.184 -15.120   1.415  1.00  0.00     0.204 C 
HETATM   21  C   UNL     1      40.171 -15.489   2.669  1.00  0.00     0.237 C 
HETATM   22  C   UNL     1      40.975 -16.772   2.740  1.00  0.00     0.030 C 
HETATM   23  C   UNL     1      42.358 -16.410   2.206  1.00  0.00     0.036 C 
HETATM   24  H   UNL     1      37.575 -11.714   1.641  1.00  0.00     0.169 HD
ENDROOT
BRANCH   1  25
HETATM   25  C   UNL     1      42.325 -11.505   4.791  1.00  0.00     0.048 A 
HETATM   26  C   UNL     1      43.475 -11.250   5.555  1.00  0.00     0.066 A 
HETATM   27  C   UNL     1      43.431 -10.528   6.756  1.00  0.00     0.070 A 
HETATM   28  C   UNL     1      42.210 -10.073   7.239  1.00  0.00     0.037 A 
HETATM   29  C   UNL     1      41.049 -10.335   6.518  1.00  0.00     0.005 A 
HETATM   30  C   UNL     1      41.107 -11.041   5.310  1.00  0.00     0.030 A 
BRANCH  27  31
HETATM   31  O   UNL     1      44.649 -10.344   7.353  1.00  0.00    -0.356 OA
HETATM   32  C   UNL     1      45.717 -11.164   6.893  1.00  0.00     0.210 C 
ENDBRANCH  27  31
ENDBRANCH   1  25
TORSDOF 2
ENDMDL
