MODEL 1
REMARK VINA RESULT:      -8.8      0.000      0.000
REMARK  7 active torsions:
REMARK  status: ('A' for Active; 'I' for Inactive)
REMARK    1  A    between atoms: C_4  and  C_5 
REMARK    2  A    between atoms: C_9  and  C_10 
REMARK    3  A    between atoms: C_10  and  C_11 
REMARK    4  A    between atoms: C_11  and  C_12 
REMARK    5  A    between atoms: C_12  and  O_13 
REMARK    6  A    between atoms: C_18  and  C_19 
REMARK       I    between atoms: C_19  and  N_20 
REMARK    7  A    between atoms: N_20  and  C_21 
ROOT
HETATM    1  C   UNL     1      42.225 -13.314   2.202  1.00  0.00     0.202 A 
HETATM    2  N   UNL     1      41.108 -13.506   1.269  1.00  0.00    -0.083 N 
HETATM    3  C   UNL     1      40.158 -12.562   1.014  1.00  0.00     0.726 A 
HETATM    4  N   UNL     1      39.365 -12.985   0.063  1.00  0.00    -0.046 NA
HETATM    5  C   UNL     1      39.914 -14.198  -0.278  1.00  0.00     0.166 A 
HETATM    6  N   UNL     1      41.012 -14.545   0.409  1.00  0.00    -0.140 NA
HETATM    7  N   UNL     1      40.200 -11.396   1.677  1.00  0.00    -0.192 N 
HETATM    8  C   UNL     1      41.227 -11.039   2.545  1.00  0.00     0.037 A 
HETATM    9  C   UNL     1      41.146  -9.630   3.087  1.00  0.00     0.070 C 
HETATM   10  C   UNL     1      42.228 -11.918   2.827  1.00  0.00     0.062 A 
HETATM   11  H   UNL     1      39.504 -10.688   1.456  1.00  0.00     0.184 HD
ENDROOT
BRANCH  10  12
HETATM   12  C   UNL     1      43.311 -11.558   3.811  1.00  0.00     0.256 C 
HETATM   13  N   UNL     1      42.886 -11.347   5.108  1.00  0.00    -0.323 N 
HETATM   14  H   UNL     1      41.898 -11.354   5.296  1.00  0.00     0.169 HD
HETATM   15  O   UNL     1      44.464 -11.424   3.416  1.00  0.00    -0.267 OA
BRANCH  13  16
HETATM   16  C   UNL     1      43.687 -11.035   6.237  1.00  0.00     0.041 A 
HETATM   17  C   UNL     1      43.105 -10.311   7.306  1.00  0.00    -0.035 A 
HETATM   18  C   UNL     1      41.686  -9.811   7.268  1.00  0.00     0.050 C 
HETATM   19  C   UNL     1      43.882 -10.008   8.439  1.00  0.00     0.009 A 
HETATM   20  C   UNL     1      45.211 -10.417   8.527  1.00  0.00     0.001 A 
HETATM   21  C   UNL     1      45.780 -11.131   7.480  1.00  0.00     0.002 A 
HETATM   22  C   UNL     1      45.024 -11.436   6.345  1.00  0.00     0.030 A 
ENDBRANCH  13  16
ENDBRANCH  10  12
BRANCH   1  23
HETATM   23  C   UNL     1      42.267 -14.463   3.207  1.00  0.00    -0.028 A 
HETATM   24  C   UNL     1      41.329 -14.583   4.248  1.00  0.00     0.016 A 
HETATM   25  C   UNL     1      41.410 -15.633   5.174  1.00  0.00    -0.061 A 
HETATM   26  C   UNL     1      40.430 -15.739   6.305  1.00  0.00     0.048 C 
HETATM   27  C   UNL     1      42.423 -16.588   5.039  1.00  0.00     0.007 A 
HETATM   28  C   UNL     1      43.339 -16.503   3.995  1.00  0.00     0.001 A 
HETATM   29  C   UNL     1      43.261 -15.449   3.084  1.00  0.00     0.010 A 
ENDBRANCH   1  23
BRANCH   5  30
HETATM   30  C   UNL     1      39.357 -15.040  -1.368  1.00  0.00     0.085 C 
BRANCH  30  31
HETATM   31  C   UNL     1      39.390 -14.359  -2.734  1.00  0.00     0.034 C 
BRANCH  31  32
HETATM   32  C   UNL     1      38.023 -14.289  -3.405  1.00  0.00     0.164 C 
BRANCH  32  33
HETATM   33  O   UNL     1      38.060 -14.985  -4.647  1.00  0.00    -0.401 OA
HETATM   34  H   UNL     1      37.154 -15.280  -4.844  1.00  0.00     0.209 HD
ENDBRANCH  32  33
ENDBRANCH  31  32
ENDBRANCH  30  31
ENDBRANCH   5  30
TORSDOF 7
ENDMDL
MODEL 2
REMARK VINA RESULT:      -8.8      2.143      7.903
REMARK  7 active torsions:
REMARK  status: ('A' for Active; 'I' for Inactive)
REMARK    1  A    between atoms: C_4  and  C_5 
REMARK    2  A    between atoms: C_9  and  C_10 
REMARK    3  A    between atoms: C_10  and  C_11 
REMARK    4  A    between atoms: C_11  and  C_12 
REMARK    5  A    between atoms: C_12  and  O_13 
REMARK    6  A    between atoms: C_18  and  C_19 
REMARK       I    between atoms: C_19  and  N_20 
REMARK    7  A    between atoms: N_20  and  C_21 
ROOT
HETATM    1  C   UNL     1      41.774 -13.258   3.667  1.00  0.00     0.202 A 
HETATM    2  N   UNL     1      42.762 -12.511   4.453  1.00  0.00    -0.083 N 
HETATM    3  C   UNL     1      43.120 -11.219   4.198  1.00  0.00     0.726 A 
HETATM    4  N   UNL     1      43.935 -10.798   5.131  1.00  0.00    -0.046 NA
HETATM    5  C   UNL     1      44.006 -11.873   5.985  1.00  0.00     0.166 A 
HETATM    6  N   UNL     1      43.270 -12.936   5.631  1.00  0.00    -0.140 NA
HETATM    7  N   UNL     1      42.582 -10.588   3.142  1.00  0.00    -0.192 N 
HETATM    8  C   UNL     1      41.587 -11.138   2.340  1.00  0.00     0.037 A 
HETATM    9  C   UNL     1      41.030 -10.209   1.285  1.00  0.00     0.070 C 
HETATM   10  C   UNL     1      41.156 -12.413   2.552  1.00  0.00     0.062 A 
HETATM   11  H   UNL     1      42.833  -9.616   2.981  1.00  0.00     0.184 HD
ENDROOT
BRANCH  10  12
HETATM   12  C   UNL     1      40.120 -13.033   1.650  1.00  0.00     0.256 C 
HETATM   13  N   UNL     1      40.274 -12.767   0.303  1.00  0.00    -0.323 N 
HETATM   14  H   UNL     1      40.989 -12.119   0.020  1.00  0.00     0.169 HD
HETATM   15  O   UNL     1      39.199 -13.674   2.142  1.00  0.00    -0.267 OA
BRANCH  13  16
HETATM   16  C   UNL     1      39.474 -13.247  -0.766  1.00  0.00     0.041 A 
HETATM   17  C   UNL     1      38.357 -12.482  -1.179  1.00  0.00    -0.035 A 
HETATM   18  C   UNL     1      37.951 -11.206  -0.492  1.00  0.00     0.050 C 
HETATM   19  C   UNL     1      37.564 -12.937  -2.249  1.00  0.00     0.009 A 
HETATM   20  C   UNL     1      37.869 -14.124  -2.911  1.00  0.00     0.001 A 
HETATM   21  C   UNL     1      38.966 -14.873  -2.509  1.00  0.00     0.002 A 
HETATM   22  C   UNL     1      39.762 -14.438  -1.445  1.00  0.00     0.030 A 
ENDBRANCH  13  16
ENDBRANCH  10  12
BRANCH   1  23
HETATM   23  C   UNL     1      42.372 -14.585   3.205  1.00  0.00    -0.028 A 
HETATM   24  C   UNL     1      42.552 -15.670   4.080  1.00  0.00     0.016 A 
HETATM   25  C   UNL     1      43.131 -16.867   3.635  1.00  0.00    -0.061 A 
HETATM   26  C   UNL     1      43.355 -18.012   4.578  1.00  0.00     0.048 C 
HETATM   27  C   UNL     1      43.509 -16.987   2.293  1.00  0.00     0.007 A 
HETATM   28  C   UNL     1      43.309 -15.933   1.407  1.00  0.00     0.001 A 
HETATM   29  C   UNL     1      42.743 -14.741   1.858  1.00  0.00     0.010 A 
ENDBRANCH   1  23
BRANCH   5  30
HETATM   30  C   UNL     1      44.803 -11.836   7.237  1.00  0.00     0.085 C 
BRANCH  30  31
HETATM   31  C   UNL     1      46.051 -10.962   7.134  1.00  0.00     0.034 C 
BRANCH  31  32
HETATM   32  C   UNL     1      46.017  -9.752   8.060  1.00  0.00     0.164 C 
BRANCH  32  33
HETATM   33  O   UNL     1      46.693  -8.658   7.449  1.00  0.00    -0.401 OA
HETATM   34  H   UNL     1      47.441  -8.418   8.023  1.00  0.00     0.209 HD
ENDBRANCH  32  33
ENDBRANCH  31  32
ENDBRANCH  30  31
ENDBRANCH   5  30
TORSDOF 7
ENDMDL
MODEL 3
REMARK VINA RESULT:      -8.7      2.938      6.209
REMARK  7 active torsions:
REMARK  status: ('A' for Active; 'I' for Inactive)
REMARK    1  A    between atoms: C_4  and  C_5 
REMARK    2  A    between atoms: C_9  and  C_10 
REMARK    3  A    between atoms: C_10  and  C_11 
REMARK    4  A    between atoms: C_11  and  C_12 
REMARK    5  A    between atoms: C_12  and  O_13 
REMARK    6  A    between atoms: C_18  and  C_19 
REMARK       I    between atoms: C_19  and  N_20 
REMARK    7  A    between atoms: N_20  and  C_21 
ROOT
HETATM    1  C   UNL     1      40.320 -13.026   3.660  1.00  0.00     0.202 A 
HETATM    2  N   UNL     1      39.669 -11.919   2.949  1.00  0.00    -0.083 N 
HETATM    3  C   UNL     1      39.158 -12.019   1.688  1.00  0.00     0.726 A 
HETATM    4  N   UNL     1      38.549 -10.905   1.373  1.00  0.00    -0.046 NA
HETATM    5  C   UNL     1      38.669 -10.154   2.518  1.00  0.00     0.166 A 
HETATM    6  N   UNL     1      39.316 -10.751   3.530  1.00  0.00    -0.140 NA
HETATM    7  N   UNL     1      39.287 -13.177   1.020  1.00  0.00    -0.192 N 
HETATM    8  C   UNL     1      39.822 -14.333   1.578  1.00  0.00     0.037 A 
HETATM    9  C   UNL     1      39.755 -15.559   0.695  1.00  0.00     0.070 C 
HETATM   10  C   UNL     1      40.325 -14.320   2.844  1.00  0.00     0.062 A 
HETATM   11  H   UNL     1      38.875 -13.248   0.093  1.00  0.00     0.184 HD
ENDROOT
BRANCH  10  12
HETATM   12  C   UNL     1      40.958 -15.554   3.431  1.00  0.00     0.256 C 
HETATM   13  N   UNL     1      42.186 -15.899   2.901  1.00  0.00    -0.323 N 
HETATM   14  H   UNL     1      42.533 -15.377   2.115  1.00  0.00     0.169 HD
HETATM   15  O   UNL     1      40.351 -16.197   4.281  1.00  0.00    -0.267 OA
BRANCH  13  16
HETATM   16  C   UNL     1      43.018 -16.982   3.287  1.00  0.00     0.041 A 
HETATM   17  C   UNL     1      43.705 -16.907   4.522  1.00  0.00    -0.035 A 
HETATM   18  C   UNL     1      43.633 -15.699   5.418  1.00  0.00     0.050 C 
HETATM   19  C   UNL     1      44.520 -17.980   4.926  1.00  0.00     0.009 A 
HETATM   20  C   UNL     1      44.653 -19.117   4.132  1.00  0.00     0.001 A 
HETATM   21  C   UNL     1      43.976 -19.192   2.922  1.00  0.00     0.002 A 
HETATM   22  C   UNL     1      43.165 -18.134   2.504  1.00  0.00     0.030 A 
ENDBRANCH  13  16
ENDBRANCH  10  12
BRANCH   1  23
HETATM   23  C   UNL     1      41.692 -12.584   4.165  1.00  0.00    -0.028 A 
HETATM   24  C   UNL     1      42.018 -12.573   5.532  1.00  0.00     0.016 A 
HETATM   25  C   UNL     1      43.276 -12.134   5.969  1.00  0.00    -0.061 A 
HETATM   26  C   UNL     1      43.611 -12.089   7.431  1.00  0.00     0.048 C 
HETATM   27  C   UNL     1      44.226 -11.729   5.025  1.00  0.00     0.007 A 
HETATM   28  C   UNL     1      43.930 -11.765   3.666  1.00  0.00     0.001 A 
HETATM   29  C   UNL     1      42.673 -12.191   3.238  1.00  0.00     0.010 A 
ENDBRANCH   1  23
BRANCH   5  30
HETATM   30  C   UNL     1      38.078  -8.798   2.640  1.00  0.00     0.085 C 
BRANCH  30  31
HETATM   31  C   UNL     1      38.715  -7.958   3.745  1.00  0.00     0.034 C 
BRANCH  31  32
HETATM   32  C   UNL     1      37.817  -7.785   4.964  1.00  0.00     0.164 C 
BRANCH  32  33
HETATM   33  O   UNL     1      37.215  -9.032   5.299  1.00  0.00    -0.401 OA
HETATM   34  H   UNL     1      36.425  -9.135   4.741  1.00  0.00     0.209 HD
ENDBRANCH  32  33
ENDBRANCH  31  32
ENDBRANCH  30  31
ENDBRANCH   5  30
TORSDOF 7
ENDMDL
MODEL 4
REMARK VINA RESULT:      -8.4      1.790      2.657
REMARK  7 active torsions:
REMARK  status: ('A' for Active; 'I' for Inactive)
REMARK    1  A    between atoms: C_4  and  C_5 
REMARK    2  A    between atoms: C_9  and  C_10 
REMARK    3  A    between atoms: C_10  and  C_11 
REMARK    4  A    between atoms: C_11  and  C_12 
REMARK    5  A    between atoms: C_12  and  O_13 
REMARK    6  A    between atoms: C_18  and  C_19 
REMARK       I    between atoms: C_19  and  N_20 
REMARK    7  A    between atoms: N_20  and  C_21 
ROOT
HETATM    1  C   UNL     1      40.643 -12.362   1.180  1.00  0.00     0.202 A 
HETATM    2  N   UNL     1      39.432 -12.313   0.352  1.00  0.00    -0.083 N 
HETATM    3  C   UNL     1      38.422 -11.414   0.532  1.00  0.00     0.726 A 
HETATM    4  N   UNL     1      37.539 -11.551  -0.424  1.00  0.00    -0.046 NA
HETATM    5  C   UNL     1      38.090 -12.531  -1.214  1.00  0.00     0.166 A 
HETATM    6  N   UNL     1      39.275 -13.004  -0.800  1.00  0.00    -0.140 NA
HETATM    7  N   UNL     1      38.497 -10.541   1.549  1.00  0.00    -0.192 N 
HETATM    8  C   UNL     1      39.605 -10.421   2.382  1.00  0.00     0.037 A 
HETATM    9  C   UNL     1      39.534  -9.289   3.381  1.00  0.00     0.070 C 
HETATM   10  C   UNL     1      40.666 -11.264   2.244  1.00  0.00     0.062 A 
HETATM   11  H   UNL     1      37.753  -9.857   1.654  1.00  0.00     0.184 HD
ENDROOT
BRANCH  10  12
HETATM   12  C   UNL     1      41.844 -11.176   3.180  1.00  0.00     0.256 C 
HETATM   13  N   UNL     1      41.577 -11.496   4.497  1.00  0.00    -0.323 N 
HETATM   14  H   UNL     1      40.624 -11.673   4.765  1.00  0.00     0.169 HD
HETATM   15  O   UNL     1      42.926 -10.788   2.753  1.00  0.00    -0.267 OA
BRANCH  13  16
HETATM   16  C   UNL     1      42.497 -11.534   5.578  1.00  0.00     0.041 A 
HETATM   17  C   UNL     1      43.159 -12.750   5.866  1.00  0.00    -0.035 A 
HETATM   18  C   UNL     1      42.886 -14.022   5.108  1.00  0.00     0.050 C 
HETATM   19  C   UNL     1      44.087 -12.799   6.924  1.00  0.00     0.009 A 
HETATM   20  C   UNL     1      44.365 -11.666   7.683  1.00  0.00     0.001 A 
HETATM   21  C   UNL     1      43.718 -10.471   7.398  1.00  0.00     0.002 A 
HETATM   22  C   UNL     1      42.792 -10.406   6.354  1.00  0.00     0.030 A 
ENDBRANCH  13  16
ENDBRANCH  10  12
BRANCH   1  23
HETATM   23  C   UNL     1      40.848 -13.777   1.718  1.00  0.00    -0.028 A 
HETATM   24  C   UNL     1      42.031 -14.501   1.489  1.00  0.00     0.016 A 
HETATM   25  C   UNL     1      42.180 -15.810   1.970  1.00  0.00    -0.061 A 
HETATM   26  C   UNL     1      43.429 -16.594   1.695  1.00  0.00     0.048 C 
HETATM   27  C   UNL     1      41.144 -16.389   2.711  1.00  0.00     0.007 A 
HETATM   28  C   UNL     1      39.979 -15.674   2.974  1.00  0.00     0.001 A 
HETATM   29  C   UNL     1      39.832 -14.377   2.483  1.00  0.00     0.010 A 
ENDBRANCH   1  23
BRANCH   5  30
HETATM   30  C   UNL     1      37.442 -12.995  -2.467  1.00  0.00     0.085 C 
BRANCH  30  31
HETATM   31  C   UNL     1      38.400 -13.714  -3.413  1.00  0.00     0.034 C 
BRANCH  31  32
HETATM   32  C   UNL     1      38.189 -15.223  -3.450  1.00  0.00     0.164 C 
BRANCH  32  33
HETATM   33  O   UNL     1      38.554 -15.791  -2.195  1.00  0.00    -0.401 OA
HETATM   34  H   UNL     1      39.520 -15.906  -2.196  1.00  0.00     0.209 HD
ENDBRANCH  32  33
ENDBRANCH  31  32
ENDBRANCH  30  31
ENDBRANCH   5  30
TORSDOF 7
ENDMDL
MODEL 5
REMARK VINA RESULT:      -8.4      2.227      7.958
REMARK  7 active torsions:
REMARK  status: ('A' for Active; 'I' for Inactive)
REMARK    1  A    between atoms: C_4  and  C_5 
REMARK    2  A    between atoms: C_9  and  C_10 
REMARK    3  A    between atoms: C_10  and  C_11 
REMARK    4  A    between atoms: C_11  and  C_12 
REMARK    5  A    between atoms: C_12  and  O_13 
REMARK    6  A    between atoms: C_18  and  C_19 
REMARK       I    between atoms: C_19  and  N_20 
REMARK    7  A    between atoms: N_20  and  C_21 
ROOT
HETATM    1  C   UNL     1      41.290 -12.450   4.057  1.00  0.00     0.202 A 
HETATM    2  N   UNL     1      42.206 -11.778   4.987  1.00  0.00    -0.083 N 
HETATM    3  C   UNL     1      42.449 -10.436   4.980  1.00  0.00     0.726 A 
HETATM    4  N   UNL     1      43.220 -10.125   5.990  1.00  0.00    -0.046 NA
HETATM    5  C   UNL     1      43.383 -11.329   6.634  1.00  0.00     0.166 A 
HETATM    6  N   UNL     1      42.745 -12.369   6.077  1.00  0.00    -0.140 NA
HETATM    7  N   UNL     1      41.862  -9.669   4.047  1.00  0.00    -0.192 N 
HETATM    8  C   UNL     1      40.923 -10.145   3.138  1.00  0.00     0.037 A 
HETATM    9  C   UNL     1      40.290  -9.090   2.260  1.00  0.00     0.070 C 
HETATM   10  C   UNL     1      40.605 -11.470   3.103  1.00  0.00     0.062 A 
HETATM   11  H   UNL     1      42.027  -8.666   4.071  1.00  0.00     0.184 HD
ENDROOT
BRANCH  10  12
HETATM   12  C   UNL     1      39.632 -12.000   2.082  1.00  0.00     0.256 C 
HETATM   13  N   UNL     1      40.111 -12.068   0.788  1.00  0.00    -0.323 N 
HETATM   14  H   UNL     1      41.021 -11.685   0.593  1.00  0.00     0.169 HD
HETATM   15  O   UNL     1      38.491 -12.283   2.428  1.00  0.00    -0.267 OA
BRANCH  13  16
HETATM   16  C   UNL     1      39.432 -12.557  -0.357  1.00  0.00     0.041 A 
HETATM   17  C   UNL     1      39.543 -13.930  -0.681  1.00  0.00    -0.035 A 
HETATM   18  C   UNL     1      40.399 -14.882   0.109  1.00  0.00     0.050 C 
HETATM   19  C   UNL     1      38.861 -14.433  -1.805  1.00  0.00     0.009 A 
HETATM   20  C   UNL     1      38.073 -13.600  -2.596  1.00  0.00     0.001 A 
HETATM   21  C   UNL     1      37.960 -12.253  -2.275  1.00  0.00     0.002 A 
HETATM   22  C   UNL     1      38.634 -11.737  -1.166  1.00  0.00     0.030 A 
ENDBRANCH  13  16
ENDBRANCH  10  12
BRANCH   1  23
HETATM   23  C   UNL     1      42.006 -13.612   3.372  1.00  0.00    -0.028 A 
HETATM   24  C   UNL     1      41.691 -14.954   3.651  1.00  0.00     0.016 A 
HETATM   25  C   UNL     1      42.385 -16.002   3.028  1.00  0.00    -0.061 A 
HETATM   26  C   UNL     1      42.071 -17.433   3.353  1.00  0.00     0.048 C 
HETATM   27  C   UNL     1      43.384 -15.702   2.097  1.00  0.00     0.007 A 
HETATM   28  C   UNL     1      43.686 -14.380   1.786  1.00  0.00     0.001 A 
HETATM   29  C   UNL     1      43.001 -13.342   2.417  1.00  0.00     0.010 A 
ENDBRANCH   1  23
BRANCH   5  30
HETATM   30  C   UNL     1      44.167 -11.455   7.888  1.00  0.00     0.085 C 
BRANCH  30  31
HETATM   31  C   UNL     1      45.424 -10.587   7.905  1.00  0.00     0.034 C 
BRANCH  31  32
HETATM   32  C   UNL     1      45.312  -9.387   8.838  1.00  0.00     0.164 C 
BRANCH  32  33
HETATM   33  O   UNL     1      45.790  -8.218   8.178  1.00  0.00    -0.401 OA
HETATM   34  H   UNL     1      45.613  -7.460   8.761  1.00  0.00     0.209 HD
ENDBRANCH  32  33
ENDBRANCH  31  32
ENDBRANCH  30  31
ENDBRANCH   5  30
TORSDOF 7
ENDMDL
MODEL 6
REMARK VINA RESULT:      -8.2      1.429      1.834
REMARK  7 active torsions:
REMARK  status: ('A' for Active; 'I' for Inactive)
REMARK    1  A    between atoms: C_4  and  C_5 
REMARK    2  A    between atoms: C_9  and  C_10 
REMARK    3  A    between atoms: C_10  and  C_11 
REMARK    4  A    between atoms: C_11  and  C_12 
REMARK    5  A    between atoms: C_12  and  O_13 
REMARK    6  A    between atoms: C_18  and  C_19 
REMARK       I    between atoms: C_19  and  N_20 
REMARK    7  A    between atoms: N_20  and  C_21 
ROOT
HETATM    1  C   UNL     1      41.765 -13.060   3.344  1.00  0.00     0.202 A 
HETATM    2  N   UNL     1      40.969 -13.123   2.112  1.00  0.00    -0.083 N 
HETATM    3  C   UNL     1      39.920 -12.295   1.840  1.00  0.00     0.726 A 
HETATM    4  N   UNL     1      39.485 -12.523   0.627  1.00  0.00    -0.046 NA
HETATM    5  C   UNL     1      40.354 -13.482   0.165  1.00  0.00     0.166 A 
HETATM    6  N   UNL     1      41.310 -13.855   1.028  1.00  0.00    -0.140 NA
HETATM    7  N   UNL     1      39.545 -11.390   2.759  1.00  0.00    -0.192 N 
HETATM    8  C   UNL     1      40.235 -11.166   3.946  1.00  0.00     0.037 A 
HETATM    9  C   UNL     1      39.718 -10.014   4.778  1.00  0.00     0.070 C 
HETATM   10  C   UNL     1      41.312 -11.933   4.274  1.00  0.00     0.062 A 
HETATM   11  H   UNL     1      38.781 -10.759   2.532  1.00  0.00     0.184 HD
ENDROOT
BRANCH  10  12
HETATM   12  C   UNL     1      42.027 -11.732   5.585  1.00  0.00     0.256 C 
HETATM   13  N   UNL     1      43.134 -10.907   5.534  1.00  0.00    -0.323 N 
HETATM   14  H   UNL     1      43.444 -10.574   4.637  1.00  0.00     0.169 HD
HETATM   15  O   UNL     1      41.637 -12.330   6.582  1.00  0.00    -0.267 OA
BRANCH  13  16
HETATM   16  C   UNL     1      43.967 -10.517   6.615  1.00  0.00     0.041 A 
HETATM   17  C   UNL     1      43.521  -9.492   7.482  1.00  0.00    -0.035 A 
HETATM   18  C   UNL     1      42.223  -8.759   7.273  1.00  0.00     0.050 C 
HETATM   19  C   UNL     1      44.329  -9.105   8.568  1.00  0.00     0.009 A 
HETATM   20  C   UNL     1      45.555  -9.722   8.804  1.00  0.00     0.001 A 
HETATM   21  C   UNL     1      45.990 -10.731   7.955  1.00  0.00     0.002 A 
HETATM   22  C   UNL     1      45.202 -11.125   6.870  1.00  0.00     0.030 A 
ENDBRANCH  13  16
ENDBRANCH  10  12
BRANCH   1  23
HETATM   23  C   UNL     1      41.824 -14.440   3.995  1.00  0.00    -0.028 A 
HETATM   24  C   UNL     1      43.036 -15.126   4.187  1.00  0.00     0.016 A 
HETATM   25  C   UNL     1      43.058 -16.405   4.761  1.00  0.00    -0.061 A 
HETATM   26  C   UNL     1      44.349 -17.150   4.933  1.00  0.00     0.048 C 
HETATM   27  C   UNL     1      41.856 -16.991   5.173  1.00  0.00     0.007 A 
HETATM   28  C   UNL     1      40.651 -16.312   5.020  1.00  0.00     0.001 A 
HETATM   29  C   UNL     1      40.634 -15.045   4.437  1.00  0.00     0.010 A 
ENDBRANCH   1  23
BRANCH   5  30
HETATM   30  C   UNL     1      40.269 -14.027  -1.214  1.00  0.00     0.085 C 
BRANCH  30  31
HETATM   31  C   UNL     1      38.835 -14.179  -1.717  1.00  0.00     0.034 C 
BRANCH  31  32
HETATM   32  C   UNL     1      38.700 -15.180  -2.858  1.00  0.00     0.164 C 
BRANCH  32  33
HETATM   33  O   UNL     1      38.262 -16.436  -2.348  1.00  0.00    -0.401 OA
HETATM   34  H   UNL     1      38.999 -17.064  -2.446  1.00  0.00     0.209 HD
ENDBRANCH  32  33
ENDBRANCH  31  32
ENDBRANCH  30  31
ENDBRANCH   5  30
TORSDOF 7
ENDMDL
MODEL 7
REMARK VINA RESULT:      -8.1      3.604      8.552
REMARK  7 active torsions:
REMARK  status: ('A' for Active; 'I' for Inactive)
REMARK    1  A    between atoms: C_4  and  C_5 
REMARK    2  A    between atoms: C_9  and  C_10 
REMARK    3  A    between atoms: C_10  and  C_11 
REMARK    4  A    between atoms: C_11  and  C_12 
REMARK    5  A    between atoms: C_12  and  O_13 
REMARK    6  A    between atoms: C_18  and  C_19 
REMARK       I    between atoms: C_19  and  N_20 
REMARK    7  A    between atoms: N_20  and  C_21 
ROOT
HETATM    1  C   UNL     1      43.136 -13.759   5.157  1.00  0.00     0.202 A 
HETATM    2  N   UNL     1      43.454 -12.675   6.094  1.00  0.00    -0.083 N 
HETATM    3  C   UNL     1      43.567 -12.843   7.443  1.00  0.00     0.726 A 
HETATM    4  N   UNL     1      43.963 -11.723   7.992  1.00  0.00    -0.046 NA
HETATM    5  C   UNL     1      44.136 -10.894   6.909  1.00  0.00     0.166 A 
HETATM    6  N   UNL     1      43.874 -11.447   5.716  1.00  0.00    -0.140 NA
HETATM    7  N   UNL     1      43.333 -14.054   7.973  1.00  0.00    -0.192 N 
HETATM    8  C   UNL     1      43.084 -15.193   7.214  1.00  0.00     0.037 A 
HETATM    9  C   UNL     1      42.976 -16.477   8.004  1.00  0.00     0.070 C 
HETATM   10  C   UNL     1      42.986 -15.110   5.858  1.00  0.00     0.062 A 
HETATM   11  H   UNL     1      43.451 -14.173   8.976  1.00  0.00     0.184 HD
ENDROOT
BRANCH  10  12
HETATM   12  C   UNL     1      42.658 -16.330   5.036  1.00  0.00     0.256 C 
HETATM   13  N   UNL     1      43.743 -17.092   4.650  1.00  0.00    -0.323 N 
HETATM   14  H   UNL     1      44.667 -16.750   4.853  1.00  0.00     0.169 HD
HETATM   15  O   UNL     1      41.494 -16.548   4.719  1.00  0.00    -0.267 OA
BRANCH  13  16
HETATM   16  C   UNL     1      43.726 -18.302   3.909  1.00  0.00     0.041 A 
HETATM   17  C   UNL     1      43.491 -18.244   2.515  1.00  0.00    -0.035 A 
HETATM   18  C   UNL     1      43.203 -16.954   1.795  1.00  0.00     0.050 C 
HETATM   19  C   UNL     1      43.488 -19.434   1.764  1.00  0.00     0.009 A 
HETATM   20  C   UNL     1      43.720 -20.665   2.373  1.00  0.00     0.001 A 
HETATM   21  C   UNL     1      43.955 -20.722   3.740  1.00  0.00     0.002 A 
HETATM   22  C   UNL     1      43.958 -19.550   4.501  1.00  0.00     0.030 A 
ENDBRANCH  13  16
ENDBRANCH  10  12
BRANCH   1  23
HETATM   23  C   UNL     1      41.951 -13.358   4.282  1.00  0.00    -0.028 A 
HETATM   24  C   UNL     1      42.035 -13.318   2.879  1.00  0.00     0.016 A 
HETATM   25  C   UNL     1      40.939 -12.917   2.102  1.00  0.00    -0.061 A 
HETATM   26  C   UNL     1      41.042 -12.841   0.607  1.00  0.00     0.048 C 
HETATM   27  C   UNL     1      39.737 -12.582   2.735  1.00  0.00     0.007 A 
HETATM   28  C   UNL     1      39.627 -12.648   4.121  1.00  0.00     0.001 A 
HETATM   29  C   UNL     1      40.725 -13.035   4.889  1.00  0.00     0.010 A 
ENDBRANCH   1  23
BRANCH   5  30
HETATM   30  C   UNL     1      44.630  -9.501   7.050  1.00  0.00     0.085 C 
BRANCH  30  31
HETATM   31  C   UNL     1      44.514  -8.960   8.474  1.00  0.00     0.034 C 
BRANCH  31  32
HETATM   32  C   UNL     1      45.712  -9.309   9.349  1.00  0.00     0.164 C 
BRANCH  32  33
HETATM   33  O   UNL     1      45.399 -10.431  10.170  1.00  0.00    -0.401 OA
HETATM   34  H   UNL     1      44.498 -10.719   9.940  1.00  0.00     0.209 HD
ENDBRANCH  32  33
ENDBRANCH  31  32
ENDBRANCH  30  31
ENDBRANCH   5  30
TORSDOF 7
ENDMDL
MODEL 8
REMARK VINA RESULT:      -8.1     12.109     16.136
REMARK  7 active torsions:
REMARK  status: ('A' for Active; 'I' for Inactive)
REMARK    1  A    between atoms: C_4  and  C_5 
REMARK    2  A    between atoms: C_9  and  C_10 
REMARK    3  A    between atoms: C_10  and  C_11 
REMARK    4  A    between atoms: C_11  and  C_12 
REMARK    5  A    between atoms: C_12  and  O_13 
REMARK    6  A    between atoms: C_18  and  C_19 
REMARK       I    between atoms: C_19  and  N_20 
REMARK    7  A    between atoms: N_20  and  C_21 
ROOT
HETATM    1  C   UNL     1      40.430  -7.133  16.846  1.00  0.00     0.202 A 
HETATM    2  N   UNL     1      41.208  -7.212  18.088  1.00  0.00    -0.083 N 
HETATM    3  C   UNL     1      41.285  -6.205  19.004  1.00  0.00     0.726 A 
HETATM    4  N   UNL     1      41.959  -6.613  20.049  1.00  0.00    -0.046 NA
HETATM    5  C   UNL     1      42.234  -7.925  19.743  1.00  0.00     0.166 A 
HETATM    6  N   UNL     1      41.758  -8.351  18.564  1.00  0.00    -0.140 NA
HETATM    7  N   UNL     1      40.657  -5.044  18.755  1.00  0.00    -0.192 N 
HETATM    8  C   UNL     1      39.831  -4.835  17.655  1.00  0.00     0.037 A 
HETATM    9  C   UNL     1      39.120  -3.502  17.633  1.00  0.00     0.070 C 
HETATM   10  C   UNL     1      39.680  -5.807  16.711  1.00  0.00     0.062 A 
HETATM   11  H   UNL     1      40.696  -4.312  19.459  1.00  0.00     0.184 HD
ENDROOT
BRANCH  10  12
HETATM   12  C   UNL     1      38.833  -5.564  15.489  1.00  0.00     0.256 C 
HETATM   13  N   UNL     1      39.377  -4.705  14.553  1.00  0.00    -0.323 N 
HETATM   14  H   UNL     1      40.237  -4.234  14.778  1.00  0.00     0.169 HD
HETATM   15  O   UNL     1      37.723  -6.080  15.413  1.00  0.00    -0.267 OA
BRANCH  13  16
HETATM   16  C   UNL     1      38.821  -4.330  13.303  1.00  0.00     0.041 A 
HETATM   17  C   UNL     1      39.276  -4.980  12.132  1.00  0.00    -0.035 A 
HETATM   18  C   UNL     1      40.367  -6.016  12.152  1.00  0.00     0.050 C 
HETATM   19  C   UNL     1      38.722  -4.630  10.887  1.00  0.00     0.009 A 
HETATM   20  C   UNL     1      37.727  -3.659  10.794  1.00  0.00     0.001 A 
HETATM   21  C   UNL     1      37.278  -3.024  11.943  1.00  0.00     0.002 A 
HETATM   22  C   UNL     1      37.820  -3.356  13.187  1.00  0.00     0.030 A 
ENDBRANCH  13  16
ENDBRANCH  10  12
BRANCH   1  23
HETATM   23  C   UNL     1      41.317  -7.488  15.654  1.00  0.00    -0.028 A 
HETATM   24  C   UNL     1      41.039  -8.580  14.813  1.00  0.00     0.016 A 
HETATM   25  C   UNL     1      41.887  -8.901  13.744  1.00  0.00    -0.061 A 
HETATM   26  C   UNL     1      41.608 -10.087  12.869  1.00  0.00     0.048 C 
HETATM   27  C   UNL     1      43.009  -8.103  13.497  1.00  0.00     0.007 A 
HETATM   28  C   UNL     1      43.281  -7.000  14.301  1.00  0.00     0.001 A 
HETATM   29  C   UNL     1      42.441  -6.693  15.370  1.00  0.00     0.010 A 
ENDBRANCH   1  23
BRANCH   5  30
HETATM   30  C   UNL     1      42.963  -8.818  20.679  1.00  0.00     0.085 C 
BRANCH  30  31
HETATM   31  C   UNL     1      42.172 -10.067  21.062  1.00  0.00     0.034 C 
BRANCH  31  32
HETATM   32  C   UNL     1      42.984 -11.352  20.950  1.00  0.00     0.164 C 
BRANCH  32  33
HETATM   33  O   UNL     1      42.424 -12.190  19.944  1.00  0.00    -0.401 OA
HETATM   34  H   UNL     1      43.114 -12.819  19.670  1.00  0.00     0.209 HD
ENDBRANCH  32  33
ENDBRANCH  31  32
ENDBRANCH  30  31
ENDBRANCH   5  30
TORSDOF 7
ENDMDL
MODEL 9
REMARK VINA RESULT:      -8.0     16.924     19.663
REMARK  7 active torsions:
REMARK  status: ('A' for Active; 'I' for Inactive)
REMARK    1  A    between atoms: C_4  and  C_5 
REMARK    2  A    between atoms: C_9  and  C_10 
REMARK    3  A    between atoms: C_10  and  C_11 
REMARK    4  A    between atoms: C_11  and  C_12 
REMARK    5  A    between atoms: C_12  and  O_13 
REMARK    6  A    between atoms: C_18  and  C_19 
REMARK       I    between atoms: C_19  and  N_20 
REMARK    7  A    between atoms: N_20  and  C_21 
ROOT
HETATM    1  C   UNL     1      46.722 -30.309  -1.024  1.00  0.00     0.202 A 
HETATM    2  N   UNL     1      48.174 -30.142  -1.151  1.00  0.00    -0.083 N 
HETATM    3  C   UNL     1      48.962 -29.566  -0.198  1.00  0.00     0.726 A 
HETATM    4  N   UNL     1      50.218 -29.661  -0.550  1.00  0.00    -0.046 NA
HETATM    5  C   UNL     1      50.154 -30.368  -1.727  1.00  0.00     0.166 A 
HETATM    6  N   UNL     1      48.920 -30.722  -2.118  1.00  0.00    -0.140 NA
HETATM    7  N   UNL     1      48.389 -29.073   0.913  1.00  0.00    -0.192 N 
HETATM    8  C   UNL     1      47.037 -29.209   1.208  1.00  0.00     0.037 A 
HETATM    9  C   UNL     1      46.625 -28.694   2.569  1.00  0.00     0.070 C 
HETATM   10  C   UNL     1      46.192 -29.800   0.318  1.00  0.00     0.062 A 
HETATM   11  H   UNL     1      48.990 -28.673   1.629  1.00  0.00     0.184 HD
ENDROOT
BRANCH  10  12
HETATM   12  C   UNL     1      44.717 -29.897   0.608  1.00  0.00     0.256 C 
HETATM   13  N   UNL     1      44.320 -31.038   1.279  1.00  0.00    -0.323 N 
HETATM   14  H   UNL     1      45.002 -31.758   1.446  1.00  0.00     0.169 HD
HETATM   15  O   UNL     1      43.964 -29.018   0.204  1.00  0.00    -0.267 OA
BRANCH  13  16
HETATM   16  C   UNL     1      43.010 -31.372   1.710  1.00  0.00     0.041 A 
HETATM   17  C   UNL     1      42.291 -32.364   1.002  1.00  0.00    -0.035 A 
HETATM   18  C   UNL     1      42.840 -33.041  -0.225  1.00  0.00     0.050 C 
HETATM   19  C   UNL     1      40.997 -32.718   1.427  1.00  0.00     0.009 A 
HETATM   20  C   UNL     1      40.419 -32.110   2.539  1.00  0.00     0.001 A 
HETATM   21  C   UNL     1      41.125 -31.140   3.237  1.00  0.00     0.002 A 
HETATM   22  C   UNL     1      42.409 -30.774   2.825  1.00  0.00     0.030 A 
ENDBRANCH  13  16
ENDBRANCH  10  12
BRANCH   1  23
HETATM   23  C   UNL     1      46.022 -29.724  -2.249  1.00  0.00    -0.028 A 
HETATM   24  C   UNL     1      45.377 -30.534  -3.200  1.00  0.00     0.016 A 
HETATM   25  C   UNL     1      44.769 -29.972  -4.332  1.00  0.00    -0.061 A 
HETATM   26  C   UNL     1      44.112 -30.840  -5.364  1.00  0.00     0.048 C 
HETATM   27  C   UNL     1      44.782 -28.583  -4.497  1.00  0.00     0.007 A 
HETATM   28  C   UNL     1      45.388 -27.765  -3.548  1.00  0.00     0.001 A 
HETATM   29  C   UNL     1      46.003 -28.330  -2.431  1.00  0.00     0.010 A 
ENDBRANCH   1  23
BRANCH   5  30
HETATM   30  C   UNL     1      51.371 -30.756  -2.484  1.00  0.00     0.085 C 
BRANCH  30  31
HETATM   31  C   UNL     1      51.299 -32.169  -3.062  1.00  0.00     0.034 C 
BRANCH  31  32
HETATM   32  C   UNL     1      52.558 -32.574  -3.817  1.00  0.00     0.164 C 
BRANCH  32  33
HETATM   33  O   UNL     1      53.334 -31.418  -4.118  1.00  0.00    -0.401 OA
HETATM   34  H   UNL     1      52.929 -30.665  -3.651  1.00  0.00     0.209 HD
ENDBRANCH  32  33
ENDBRANCH  31  32
ENDBRANCH  30  31
ENDBRANCH   5  30
TORSDOF 7
ENDMDL
MODEL 10
REMARK VINA RESULT:      -7.9      3.398      7.563
REMARK  7 active torsions:
REMARK  status: ('A' for Active; 'I' for Inactive)
REMARK    1  A    between atoms: C_4  and  C_5 
REMARK    2  A    between atoms: C_9  and  C_10 
REMARK    3  A    between atoms: C_10  and  C_11 
REMARK    4  A    between atoms: C_11  and  C_12 
REMARK    5  A    between atoms: C_12  and  O_13 
REMARK    6  A    between atoms: C_18  and  C_19 
REMARK       I    between atoms: C_19  and  N_20 
REMARK    7  A    between atoms: N_20  and  C_21 
ROOT
HETATM    1  C   UNL     1      41.452 -12.964   3.895  1.00  0.00     0.202 A 
HETATM    2  N   UNL     1      41.208 -11.721   4.637  1.00  0.00    -0.083 N 
HETATM    3  C   UNL     1      40.675 -11.675   5.891  1.00  0.00     0.726 A 
HETATM    4  N   UNL     1      40.682 -10.441   6.325  1.00  0.00    -0.046 NA
HETATM    5  C   UNL     1      41.293  -9.758   5.300  1.00  0.00     0.166 A 
HETATM    6  N   UNL     1      41.671 -10.510   4.256  1.00  0.00    -0.140 NA
HETATM    7  N   UNL     1      40.301 -12.819   6.486  1.00  0.00    -0.192 N 
HETATM    8  C   UNL     1      40.523 -14.080   5.941  1.00  0.00     0.037 A 
HETATM    9  C   UNL     1      40.141 -15.239   6.832  1.00  0.00     0.070 C 
HETATM   10  C   UNL     1      41.079 -14.208   4.704  1.00  0.00     0.062 A 
HETATM   11  H   UNL     1      39.933 -12.774   7.433  1.00  0.00     0.184 HD
ENDROOT
BRANCH  10  12
HETATM   12  C   UNL     1      41.269 -15.568   4.084  1.00  0.00     0.256 C 
HETATM   13  N   UNL     1      42.549 -16.082   4.165  1.00  0.00    -0.323 N 
HETATM   14  H   UNL     1      43.278 -15.497   4.536  1.00  0.00     0.169 HD
HETATM   15  O   UNL     1      40.327 -16.109   3.516  1.00  0.00    -0.267 OA
BRANCH  13  16
HETATM   16  C   UNL     1      43.001 -17.345   3.703  1.00  0.00     0.041 A 
HETATM   17  C   UNL     1      43.642 -18.214   4.617  1.00  0.00    -0.035 A 
HETATM   18  C   UNL     1      43.914 -17.830   6.047  1.00  0.00     0.050 C 
HETATM   19  C   UNL     1      44.081 -19.478   4.179  1.00  0.00     0.009 A 
HETATM   20  C   UNL     1      43.886 -19.885   2.861  1.00  0.00     0.001 A 
HETATM   21  C   UNL     1      43.253 -19.034   1.965  1.00  0.00     0.002 A 
HETATM   22  C   UNL     1      42.815 -17.774   2.383  1.00  0.00     0.030 A 
ENDBRANCH  13  16
ENDBRANCH  10  12
BRANCH   1  23
HETATM   23  C   UNL     1      40.804 -12.882   2.515  1.00  0.00    -0.028 A 
HETATM   24  C   UNL     1      39.585 -12.216   2.299  1.00  0.00     0.016 A 
HETATM   25  C   UNL     1      38.997 -12.182   1.026  1.00  0.00    -0.061 A 
HETATM   26  C   UNL     1      37.679 -11.501   0.804  1.00  0.00     0.048 C 
HETATM   27  C   UNL     1      39.652 -12.797  -0.047  1.00  0.00     0.007 A 
HETATM   28  C   UNL     1      40.876 -13.433   0.144  1.00  0.00     0.001 A 
HETATM   29  C   UNL     1      41.449 -13.474   1.415  1.00  0.00     0.010 A 
ENDBRANCH   1  23
BRANCH   5  30
HETATM   30  C   UNL     1      41.561  -8.299   5.371  1.00  0.00     0.085 C 
BRANCH  30  31
HETATM   31  C   UNL     1      40.531  -7.535   6.200  1.00  0.00     0.034 C 
BRANCH  31  32
HETATM   32  C   UNL     1      41.133  -6.848   7.420  1.00  0.00     0.164 C 
BRANCH  32  33
HETATM   33  O   UNL     1      42.444  -6.381   7.113  1.00  0.00    -0.401 OA
HETATM   34  H   UNL     1      42.771  -6.905   6.361  1.00  0.00     0.209 HD
ENDBRANCH  32  33
ENDBRANCH  31  32
ENDBRANCH  30  31
ENDBRANCH   5  30
TORSDOF 7
ENDMDL
