MODEL 1
REMARK VINA RESULT:      -8.1      0.000      0.000
REMARK  7 active torsions:
REMARK  status: ('A' for Active; 'I' for Inactive)
REMARK    1  A    between atoms: C_2  and  N_3 
REMARK    2  A    between atoms: C_2  and  C_10 
REMARK    3  A    between atoms: N_11  and  C_12 
REMARK    4  A    between atoms: C_19  and  S_20 
REMARK    5  A    between atoms: S_20  and  C_21 
REMARK    6  A    between atoms: C_21  and  C_22 
REMARK    7  A    between atoms: C_21  and  C_28 
REMARK       I    between atoms: C_22  and  N_23 
REMARK       I    between atoms: N_23  and  C_24 
REMARK       I    between atoms: C_24  and  N_25 
ROOT
HETATM    1  C   UNL     1      41.277 -11.913   0.723  1.00  0.00     0.166 A 
HETATM    2  N   UNL     1      41.925 -12.620   1.731  1.00  0.00    -0.274 N 
HETATM    3  C   UNL     1      42.455 -11.636   2.546  1.00  0.00     0.197 A 
HETATM    4  N   UNL     1      42.204 -10.451   2.038  1.00  0.00    -0.122 NA
HETATM    5  N   UNL     1      41.479 -10.621   0.895  1.00  0.00    -0.131 NA
ENDROOT
BRANCH   3   6
HETATM    6  S   UNL     1      43.443 -11.943   3.929  1.00  0.00    -0.070 SA
BRANCH   6   7
HETATM    7  C   UNL     1      42.231 -12.177   5.292  1.00  0.00     0.180 C 
BRANCH   7   8
HETATM    8  C   UNL     1      42.521 -11.284   6.522  1.00  0.00     0.244 C 
HETATM    9  N   UNL     1      41.455 -10.687   7.170  1.00  0.00    -0.278 N 
HETATM   10  C   UNL     1      40.347 -10.170   6.553  1.00  0.00     0.320 C 
HETATM   11  H   UNL     1      41.746 -10.171   7.983  1.00  0.00     0.173 HD
HETATM   12  N   UNL     1      39.524  -9.499   7.403  1.00  0.00    -0.352 N 
HETATM   13  O   UNL     1      40.044 -10.307   5.379  1.00  0.00    -0.247 OA
HETATM   14  H   UNL     1      39.833  -9.096   8.274  1.00  0.00     0.160 HD
HETATM   15  H   UNL     1      38.709  -9.074   6.973  1.00  0.00     0.160 HD
HETATM   16  O   UNL     1      43.654 -11.013   6.944  1.00  0.00    -0.271 OA
ENDBRANCH   7   8
BRANCH   7  17
HETATM   17  C   UNL     1      42.009 -13.654   5.589  1.00  0.00    -0.035 A 
HETATM   18  C   UNL     1      43.080 -14.550   5.423  1.00  0.00     0.009 A 
HETATM   19  C   UNL     1      42.928 -15.912   5.692  1.00  0.00     0.001 A 
HETATM   20  C   UNL     1      41.703 -16.399   6.134  1.00  0.00     0.000 A 
HETATM   21  C   UNL     1      40.631 -15.526   6.311  1.00  0.00     0.001 A 
HETATM   22  C   UNL     1      40.783 -14.163   6.045  1.00  0.00     0.009 A 
ENDBRANCH   7  17
ENDBRANCH   6   7
ENDBRANCH   3   6
BRANCH   2  23
HETATM   23  C   UNL     1      41.947 -14.029   1.899  1.00  0.00     0.043 A 
HETATM   24  C   UNL     1      40.786 -14.699   2.314  1.00  0.00     0.033 A 
HETATM   25  C   UNL     1      40.815 -16.083   2.499  1.00  0.00     0.044 A 
HETATM   26  C   UNL     1      41.991 -16.786   2.268  1.00  0.00     0.116 A 
HETATM   27  F   UNL     1      42.013 -18.112   2.452  1.00  0.00    -0.206 F 
HETATM   28  C   UNL     1      43.145 -16.133   1.850  1.00  0.00     0.044 A 
HETATM   29  C   UNL     1      43.128 -14.749   1.663  1.00  0.00     0.033 A 
ENDBRANCH   2  23
BRANCH   1  30
HETATM   30  C   UNL     1      40.350 -12.491  -0.299  1.00  0.00     0.255 C 
HETATM   31  C   UNL     1      40.890 -12.282  -1.717  1.00  0.00     0.049 C 
BRANCH  30  32
HETATM   32  N   UNL     1      38.902 -11.961  -0.223  1.00  0.00    -0.060 N 
HETATM   33  H   UNL     1      38.310 -12.745  -0.520  1.00  0.00     0.280 HD
HETATM   34  C   UNL     1      38.505 -11.628   1.203  1.00  0.00     0.236 C 
HETATM   35  C   UNL     1      37.004 -11.375   1.256  1.00  0.00     0.028 C 
HETATM   36  C   UNL     1      36.578 -10.278   0.288  1.00  0.00     0.003 C 
HETATM   37  C   UNL     1      37.077 -10.559  -1.127  1.00  0.00     0.028 C 
HETATM   38  C   UNL     1      38.583 -10.802  -1.150  1.00  0.00     0.236 C 
ENDBRANCH  30  32
ENDBRANCH   1  30
TORSDOF 7
ENDMDL
MODEL 2
REMARK VINA RESULT:      -8.1      2.732      6.375
REMARK  7 active torsions:
REMARK  status: ('A' for Active; 'I' for Inactive)
REMARK    1  A    between atoms: C_2  and  N_3 
REMARK    2  A    between atoms: C_2  and  C_10 
REMARK    3  A    between atoms: N_11  and  C_12 
REMARK    4  A    between atoms: C_19  and  S_20 
REMARK    5  A    between atoms: S_20  and  C_21 
REMARK    6  A    between atoms: C_21  and  C_22 
REMARK    7  A    between atoms: C_21  and  C_28 
REMARK       I    between atoms: C_22  and  N_23 
REMARK       I    between atoms: N_23  and  C_24 
REMARK       I    between atoms: C_24  and  N_25 
ROOT
HETATM    1  C   UNL     1      40.420 -11.351   5.274  1.00  0.00     0.166 A 
HETATM    2  N   UNL     1      40.341 -12.630   4.730  1.00  0.00    -0.274 N 
HETATM    3  C   UNL     1      39.699 -12.441   3.520  1.00  0.00     0.197 A 
HETATM    4  N   UNL     1      39.365 -11.179   3.381  1.00  0.00    -0.122 NA
HETATM    5  N   UNL     1      39.804 -10.498   4.479  1.00  0.00    -0.131 NA
ENDROOT
BRANCH   3   6
HETATM    6  S   UNL     1      39.258 -13.717   2.442  1.00  0.00    -0.070 SA
BRANCH   6   7
HETATM    7  C   UNL     1      40.682 -13.828   1.285  1.00  0.00     0.180 C 
BRANCH   7   8
HETATM    8  C   UNL     1      40.264 -13.750  -0.203  1.00  0.00     0.244 C 
HETATM    9  N   UNL     1      40.845 -12.784  -1.002  1.00  0.00    -0.278 N 
HETATM   10  C   UNL     1      41.146 -11.508  -0.604  1.00  0.00     0.320 C 
HETATM   11  H   UNL     1      40.543 -12.850  -1.959  1.00  0.00     0.173 HD
HETATM   12  N   UNL     1      41.562 -10.712  -1.625  1.00  0.00    -0.352 N 
HETATM   13  O   UNL     1      41.115 -11.082   0.539  1.00  0.00    -0.247 OA
HETATM   14  H   UNL     1      41.336 -10.883  -2.592  1.00  0.00     0.160 HD
HETATM   15  H   UNL     1      41.762  -9.750  -1.372  1.00  0.00     0.160 HD
HETATM   16  O   UNL     1      39.394 -14.461  -0.727  1.00  0.00    -0.271 OA
ENDBRANCH   7   8
BRANCH   7  17
HETATM   17  C   UNL     1      41.604 -14.984   1.649  1.00  0.00    -0.035 A 
HETATM   18  C   UNL     1      41.040 -16.173   2.148  1.00  0.00     0.009 A 
HETATM   19  C   UNL     1      41.843 -17.264   2.487  1.00  0.00     0.001 A 
HETATM   20  C   UNL     1      43.223 -17.185   2.329  1.00  0.00     0.000 A 
HETATM   21  C   UNL     1      43.800 -16.019   1.830  1.00  0.00     0.001 A 
HETATM   22  C   UNL     1      42.996 -14.928   1.488  1.00  0.00     0.009 A 
ENDBRANCH   7  17
ENDBRANCH   6   7
ENDBRANCH   3   6
BRANCH   2  23
HETATM   23  C   UNL     1      40.881 -13.820   5.281  1.00  0.00     0.043 A 
HETATM   24  C   UNL     1      40.097 -14.609   6.138  1.00  0.00     0.033 A 
HETATM   25  C   UNL     1      40.637 -15.770   6.695  1.00  0.00     0.044 A 
HETATM   26  C   UNL     1      41.945 -16.137   6.397  1.00  0.00     0.116 A 
HETATM   27  F   UNL     1      42.457 -17.247   6.940  1.00  0.00    -0.206 F 
HETATM   28  C   UNL     1      42.727 -15.366   5.545  1.00  0.00     0.044 A 
HETATM   29  C   UNL     1      42.197 -14.203   4.981  1.00  0.00     0.033 A 
ENDBRANCH   2  23
BRANCH   1  30
HETATM   30  C   UNL     1      41.220 -10.954   6.474  1.00  0.00     0.255 C 
HETATM   31  C   UNL     1      41.090  -9.455   6.756  1.00  0.00     0.049 C 
BRANCH  30  32
HETATM   32  N   UNL     1      42.715 -11.330   6.401  1.00  0.00    -0.060 N 
HETATM   33  H   UNL     1      42.738 -12.356   6.415  1.00  0.00     0.280 HD
HETATM   34  C   UNL     1      43.334 -10.896   5.086  1.00  0.00     0.236 C 
HETATM   35  C   UNL     1      44.715 -11.524   4.953  1.00  0.00     0.028 C 
HETATM   36  C   UNL     1      45.613 -11.176   6.135  1.00  0.00     0.003 C 
HETATM   37  C   UNL     1      44.940 -11.510   7.463  1.00  0.00     0.028 C 
HETATM   38  C   UNL     1      43.563 -10.863   7.570  1.00  0.00     0.236 C 
ENDBRANCH  30  32
ENDBRANCH   1  30
TORSDOF 7
ENDMDL
MODEL 3
REMARK VINA RESULT:      -7.8      3.380      7.279
REMARK  7 active torsions:
REMARK  status: ('A' for Active; 'I' for Inactive)
REMARK    1  A    between atoms: C_2  and  N_3 
REMARK    2  A    between atoms: C_2  and  C_10 
REMARK    3  A    between atoms: N_11  and  C_12 
REMARK    4  A    between atoms: C_19  and  S_20 
REMARK    5  A    between atoms: S_20  and  C_21 
REMARK    6  A    between atoms: C_21  and  C_22 
REMARK    7  A    between atoms: C_21  and  C_28 
REMARK       I    between atoms: C_22  and  N_23 
REMARK       I    between atoms: N_23  and  C_24 
REMARK       I    between atoms: C_24  and  N_25 
ROOT
HETATM    1  C   UNL     1      43.371 -12.314   6.487  1.00  0.00     0.166 A 
HETATM    2  N   UNL     1      42.143 -12.730   5.979  1.00  0.00    -0.274 N 
HETATM    3  C   UNL     1      42.257 -14.106   5.909  1.00  0.00     0.197 A 
HETATM    4  N   UNL     1      43.462 -14.476   6.278  1.00  0.00    -0.122 NA
HETATM    5  N   UNL     1      44.162 -13.359   6.629  1.00  0.00    -0.131 NA
ENDROOT
BRANCH   3   6
HETATM    6  S   UNL     1      41.042 -15.153   5.267  1.00  0.00    -0.070 SA
BRANCH   6   7
HETATM    7  C   UNL     1      41.620 -15.502   3.557  1.00  0.00     0.180 C 
BRANCH   7   8
HETATM    8  C   UNL     1      40.497 -15.380   2.500  1.00  0.00     0.244 C 
HETATM    9  N   UNL     1      40.764 -14.691   1.331  1.00  0.00    -0.278 N 
HETATM   10  C   UNL     1      41.523 -13.555   1.241  1.00  0.00     0.320 C 
HETATM   11  H   UNL     1      39.987 -14.713   0.692  1.00  0.00     0.173 HD
HETATM   12  N   UNL     1      41.497 -12.989   0.005  1.00  0.00    -0.352 N 
HETATM   13  O   UNL     1      42.216 -13.078   2.125  1.00  0.00    -0.247 OA
HETATM   14  H   UNL     1      40.751 -13.134  -0.657  1.00  0.00     0.160 HD
HETATM   15  H   UNL     1      42.022 -12.126  -0.089  1.00  0.00     0.160 HD
HETATM   16  O   UNL     1      39.344 -15.809   2.646  1.00  0.00    -0.271 OA
ENDBRANCH   7   8
BRANCH   7  17
HETATM   17  C   UNL     1      42.441 -16.784   3.500  1.00  0.00    -0.035 A 
HETATM   18  C   UNL     1      42.410 -17.560   2.327  1.00  0.00     0.009 A 
HETATM   19  C   UNL     1      43.153 -18.737   2.223  1.00  0.00     0.001 A 
HETATM   20  C   UNL     1      43.942 -19.156   3.289  1.00  0.00     0.000 A 
HETATM   21  C   UNL     1      43.991 -18.398   4.457  1.00  0.00     0.001 A 
HETATM   22  C   UNL     1      43.250 -17.218   4.561  1.00  0.00     0.009 A 
ENDBRANCH   7  17
ENDBRANCH   6   7
ENDBRANCH   3   6
BRANCH   2  23
HETATM   23  C   UNL     1      41.024 -11.907   5.688  1.00  0.00     0.043 A 
HETATM   24  C   UNL     1      41.021 -11.122   4.525  1.00  0.00     0.033 A 
HETATM   25  C   UNL     1      39.928 -10.298   4.250  1.00  0.00     0.044 A 
HETATM   26  C   UNL     1      38.850 -10.263   5.129  1.00  0.00     0.116 A 
HETATM   27  F   UNL     1      37.809  -9.467   4.862  1.00  0.00    -0.206 F 
HETATM   28  C   UNL     1      38.841 -11.043   6.279  1.00  0.00     0.044 A 
HETATM   29  C   UNL     1      39.929 -11.871   6.564  1.00  0.00     0.033 A 
ENDBRANCH   2  23
BRANCH   1  30
HETATM   30  C   UNL     1      43.702 -10.937   6.968  1.00  0.00     0.255 C 
HETATM   31  C   UNL     1      45.217 -10.731   7.058  1.00  0.00     0.049 C 
BRANCH  30  32
HETATM   32  N   UNL     1      43.057 -10.557   8.318  1.00  0.00    -0.060 N 
HETATM   33  H   UNL     1      42.460 -11.355   8.567  1.00  0.00     0.280 HD
HETATM   34  C   UNL     1      44.095 -10.429   9.416  1.00  0.00     0.236 C 
HETATM   35  C   UNL     1      43.390 -10.326  10.761  1.00  0.00     0.028 C 
HETATM   36  C   UNL     1      42.396  -9.170  10.794  1.00  0.00     0.003 C 
HETATM   37  C   UNL     1      41.421  -9.240   9.622  1.00  0.00     0.028 C 
HETATM   38  C   UNL     1      42.156  -9.336   8.289  1.00  0.00     0.236 C 
ENDBRANCH  30  32
ENDBRANCH   1  30
TORSDOF 7
ENDMDL
MODEL 4
REMARK VINA RESULT:      -7.8      3.179      4.841
REMARK  7 active torsions:
REMARK  status: ('A' for Active; 'I' for Inactive)
REMARK    1  A    between atoms: C_2  and  N_3 
REMARK    2  A    between atoms: C_2  and  C_10 
REMARK    3  A    between atoms: N_11  and  C_12 
REMARK    4  A    between atoms: C_19  and  S_20 
REMARK    5  A    between atoms: S_20  and  C_21 
REMARK    6  A    between atoms: C_21  and  C_22 
REMARK    7  A    between atoms: C_21  and  C_28 
REMARK       I    between atoms: C_22  and  N_23 
REMARK       I    between atoms: N_23  and  C_24 
REMARK       I    between atoms: C_24  and  N_25 
ROOT
HETATM    1  C   UNL     1      40.509 -13.110   1.731  1.00  0.00     0.166 A 
HETATM    2  N   UNL     1      41.672 -13.511   2.384  1.00  0.00    -0.274 N 
HETATM    3  C   UNL     1      42.045 -14.668   1.724  1.00  0.00     0.197 A 
HETATM    4  N   UNL     1      41.156 -14.968   0.807  1.00  0.00    -0.122 NA
HETATM    5  N   UNL     1      40.190 -14.004   0.816  1.00  0.00    -0.131 NA
ENDROOT
BRANCH   3   6
HETATM    6  S   UNL     1      43.395 -15.651   2.170  1.00  0.00    -0.070 SA
BRANCH   6   7
HETATM    7  C   UNL     1      42.731 -16.735   3.497  1.00  0.00     0.180 C 
BRANCH   7   8
HETATM    8  C   UNL     1      42.935 -16.152   4.916  1.00  0.00     0.244 C 
HETATM    9  N   UNL     1      41.887 -16.223   5.815  1.00  0.00    -0.278 N 
HETATM   10  C   UNL     1      40.565 -16.053   5.501  1.00  0.00     0.320 C 
HETATM   11  H   UNL     1      42.139 -15.863   6.721  1.00  0.00     0.173 HD
HETATM   12  N   UNL     1      39.755 -16.013   6.592  1.00  0.00    -0.352 N 
HETATM   13  O   UNL     1      40.092 -15.991   4.378  1.00  0.00    -0.247 OA
HETATM   14  H   UNL     1      40.076 -15.761   7.514  1.00  0.00     0.160 HD
HETATM   15  H   UNL     1      38.772 -15.855   6.398  1.00  0.00     0.160 HD
HETATM   16  O   UNL     1      43.960 -15.569   5.296  1.00  0.00    -0.271 OA
ENDBRANCH   7   8
BRANCH   7  17
HETATM   17  C   UNL     1      43.175 -18.179   3.308  1.00  0.00    -0.035 A 
HETATM   18  C   UNL     1      43.819 -18.838   4.372  1.00  0.00     0.009 A 
HETATM   19  C   UNL     1      44.236 -20.164   4.251  1.00  0.00     0.001 A 
HETATM   20  C   UNL     1      44.013 -20.856   3.064  1.00  0.00     0.000 A 
HETATM   21  C   UNL     1      43.371 -20.224   2.002  1.00  0.00     0.001 A 
HETATM   22  C   UNL     1      42.951 -18.896   2.124  1.00  0.00     0.009 A 
ENDBRANCH   7  17
ENDBRANCH   6   7
ENDBRANCH   3   6
BRANCH   2  23
HETATM   23  C   UNL     1      42.338 -12.820   3.429  1.00  0.00     0.043 A 
HETATM   24  C   UNL     1      43.560 -12.179   3.171  1.00  0.00     0.033 A 
HETATM   25  C   UNL     1      44.225 -11.517   4.205  1.00  0.00     0.044 A 
HETATM   26  C   UNL     1      43.672 -11.497   5.480  1.00  0.00     0.116 A 
HETATM   27  F   UNL     1      44.317 -10.865   6.468  1.00  0.00    -0.206 F 
HETATM   28  C   UNL     1      42.459 -12.122   5.744  1.00  0.00     0.044 A 
HETATM   29  C   UNL     1      41.786 -12.787   4.717  1.00  0.00     0.033 A 
ENDBRANCH   2  23
BRANCH   1  30
HETATM   30  C   UNL     1      39.815 -11.796   1.901  1.00  0.00     0.255 C 
HETATM   31  C   UNL     1      38.309 -11.987   2.101  1.00  0.00     0.049 C 
BRANCH  30  32
HETATM   32  N   UNL     1      40.052 -10.793   0.752  1.00  0.00    -0.060 N 
HETATM   33  H   UNL     1      39.779  -9.878   1.130  1.00  0.00     0.280 HD
HETATM   34  C   UNL     1      41.522 -10.697   0.391  1.00  0.00     0.236 C 
HETATM   35  C   UNL     1      41.730  -9.512  -0.543  1.00  0.00     0.028 C 
HETATM   36  C   UNL     1      40.854  -9.609  -1.788  1.00  0.00     0.003 C 
HETATM   37  C   UNL     1      39.387  -9.819  -1.421  1.00  0.00     0.028 C 
HETATM   38  C   UNL     1      39.210 -11.015  -0.491  1.00  0.00     0.236 C 
ENDBRANCH  30  32
ENDBRANCH   1  30
TORSDOF 7
ENDMDL
MODEL 5
REMARK VINA RESULT:      -7.6      2.450      6.778
REMARK  7 active torsions:
REMARK  status: ('A' for Active; 'I' for Inactive)
REMARK    1  A    between atoms: C_2  and  N_3 
REMARK    2  A    between atoms: C_2  and  C_10 
REMARK    3  A    between atoms: N_11  and  C_12 
REMARK    4  A    between atoms: C_19  and  S_20 
REMARK    5  A    between atoms: S_20  and  C_21 
REMARK    6  A    between atoms: C_21  and  C_22 
REMARK    7  A    between atoms: C_21  and  C_28 
REMARK       I    between atoms: C_22  and  N_23 
REMARK       I    between atoms: N_23  and  C_24 
REMARK       I    between atoms: C_24  and  N_25 
ROOT
HETATM    1  C   UNL     1      42.194 -12.450   5.177  1.00  0.00     0.166 A 
HETATM    2  N   UNL     1      41.520 -13.138   4.172  1.00  0.00    -0.274 N 
HETATM    3  C   UNL     1      40.404 -12.361   3.923  1.00  0.00     0.197 A 
HETATM    4  N   UNL     1      40.376 -11.339   4.746  1.00  0.00    -0.122 NA
HETATM    5  N   UNL     1      41.487 -11.398   5.537  1.00  0.00    -0.131 NA
ENDROOT
BRANCH   3   6
HETATM    6  S   UNL     1      39.153 -12.782   2.808  1.00  0.00    -0.070 SA
BRANCH   6   7
HETATM    7  C   UNL     1      39.656 -11.949   1.248  1.00  0.00     0.180 C 
BRANCH   7   8
HETATM    8  C   UNL     1      39.199 -10.473   1.172  1.00  0.00     0.244 C 
HETATM    9  N   UNL     1      40.041  -9.551   0.579  1.00  0.00    -0.278 N 
HETATM   10  C   UNL     1      41.405  -9.540   0.694  1.00  0.00     0.320 C 
HETATM   11  H   UNL     1      39.629  -8.633   0.536  1.00  0.00     0.173 HD
HETATM   12  N   UNL     1      41.981  -8.437   0.146  1.00  0.00    -0.352 N 
HETATM   13  O   UNL     1      42.096 -10.422   1.178  1.00  0.00    -0.247 OA
HETATM   14  H   UNL     1      41.494  -7.565   0.009  1.00  0.00     0.160 HD
HETATM   15  H   UNL     1      42.989  -8.381   0.242  1.00  0.00     0.160 HD
HETATM   16  O   UNL     1      38.146 -10.037   1.660  1.00  0.00    -0.271 OA
ENDBRANCH   7   8
BRANCH   7  17
HETATM   17  C   UNL     1      39.326 -12.803   0.032  1.00  0.00    -0.035 A 
HETATM   18  C   UNL     1      38.411 -12.312  -0.917  1.00  0.00     0.009 A 
HETATM   19  C   UNL     1      38.084 -13.053  -2.054  1.00  0.00     0.001 A 
HETATM   20  C   UNL     1      38.668 -14.298  -2.262  1.00  0.00     0.000 A 
HETATM   21  C   UNL     1      39.582 -14.800  -1.338  1.00  0.00     0.001 A 
HETATM   22  C   UNL     1      39.912 -14.057  -0.201  1.00  0.00     0.009 A 
ENDBRANCH   7  17
ENDBRANCH   6   7
ENDBRANCH   3   6
BRANCH   2  23
HETATM   23  C   UNL     1      41.952 -14.321   3.518  1.00  0.00     0.043 A 
HETATM   24  C   UNL     1      41.482 -15.570   3.955  1.00  0.00     0.033 A 
HETATM   25  C   UNL     1      41.924 -16.734   3.323  1.00  0.00     0.044 A 
HETATM   26  C   UNL     1      42.823 -16.648   2.267  1.00  0.00     0.116 A 
HETATM   27  F   UNL     1      43.247 -17.768   1.670  1.00  0.00    -0.206 F 
HETATM   28  C   UNL     1      43.289 -15.416   1.822  1.00  0.00     0.044 A 
HETATM   29  C   UNL     1      42.854 -14.245   2.446  1.00  0.00     0.033 A 
ENDBRANCH   2  23
BRANCH   1  30
HETATM   30  C   UNL     1      43.580 -12.738   5.663  1.00  0.00     0.255 C 
HETATM   31  C   UNL     1      43.643 -14.084   6.389  1.00  0.00     0.049 C 
BRANCH  30  32
HETATM   32  N   UNL     1      44.182 -11.643   6.568  1.00  0.00    -0.060 N 
HETATM   33  H   UNL     1      43.767 -10.763   6.241  1.00  0.00     0.280 HD
HETATM   34  C   UNL     1      43.756 -11.818   8.013  1.00  0.00     0.236 C 
HETATM   35  C   UNL     1      44.145 -10.575   8.803  1.00  0.00     0.028 C 
HETATM   36  C   UNL     1      45.637 -10.278   8.693  1.00  0.00     0.003 C 
HETATM   37  C   UNL     1      46.086 -10.214   7.236  1.00  0.00     0.028 C 
HETATM   38  C   UNL     1      45.687 -11.473   6.473  1.00  0.00     0.236 C 
ENDBRANCH  30  32
ENDBRANCH   1  30
TORSDOF 7
ENDMDL
MODEL 6
REMARK VINA RESULT:      -7.6      3.073      7.147
REMARK  7 active torsions:
REMARK  status: ('A' for Active; 'I' for Inactive)
REMARK    1  A    between atoms: C_2  and  N_3 
REMARK    2  A    between atoms: C_2  and  C_10 
REMARK    3  A    between atoms: N_11  and  C_12 
REMARK    4  A    between atoms: C_19  and  S_20 
REMARK    5  A    between atoms: S_20  and  C_21 
REMARK    6  A    between atoms: C_21  and  C_22 
REMARK    7  A    between atoms: C_21  and  C_28 
REMARK       I    between atoms: C_22  and  N_23 
REMARK       I    between atoms: N_23  and  C_24 
REMARK       I    between atoms: C_24  and  N_25 
ROOT
HETATM    1  C   UNL     1      41.782 -15.594   2.623  1.00  0.00     0.166 A 
HETATM    2  N   UNL     1      41.372 -14.302   2.942  1.00  0.00    -0.274 N 
HETATM    3  C   UNL     1      40.081 -14.229   2.452  1.00  0.00     0.197 A 
HETATM    4  N   UNL     1      39.769 -15.348   1.840  1.00  0.00    -0.122 NA
HETATM    5  N   UNL     1      40.833 -16.197   1.935  1.00  0.00    -0.131 NA
ENDROOT
BRANCH   3   6
HETATM    6  S   UNL     1      39.100 -12.807   2.499  1.00  0.00    -0.070 SA
BRANCH   6   7
HETATM    7  C   UNL     1      39.700 -11.811   1.075  1.00  0.00     0.180 C 
BRANCH   7   8
HETATM    8  C   UNL     1      39.276 -10.325   1.152  1.00  0.00     0.244 C 
HETATM    9  N   UNL     1      40.041  -9.386   0.485  1.00  0.00    -0.278 N 
HETATM   10  C   UNL     1      41.406  -9.406   0.385  1.00  0.00     0.320 C 
HETATM   11  H   UNL     1      39.652  -8.460   0.557  1.00  0.00     0.173 HD
HETATM   12  N   UNL     1      41.920  -8.285  -0.185  1.00  0.00    -0.352 N 
HETATM   13  O   UNL     1      42.140 -10.328   0.707  1.00  0.00    -0.247 OA
HETATM   14  H   UNL     1      41.441  -7.397  -0.197  1.00  0.00     0.160 HD
HETATM   15  H   UNL     1      42.932  -8.252  -0.245  1.00  0.00     0.160 HD
HETATM   16  O   UNL     1      38.324  -9.899   1.821  1.00  0.00    -0.271 OA
ENDBRANCH   7   8
BRANCH   7  17
HETATM   17  C   UNL     1      39.416 -12.508  -0.248  1.00  0.00    -0.035 A 
HETATM   18  C   UNL     1      38.129 -12.409  -0.808  1.00  0.00     0.009 A 
HETATM   19  C   UNL     1      37.823 -13.022  -2.024  1.00  0.00     0.001 A 
HETATM   20  C   UNL     1      38.800 -13.743  -2.703  1.00  0.00     0.000 A 
HETATM   21  C   UNL     1      40.082 -13.847  -2.169  1.00  0.00     0.001 A 
HETATM   22  C   UNL     1      40.390 -13.231  -0.953  1.00  0.00     0.009 A 
ENDBRANCH   7  17
ENDBRANCH   6   7
ENDBRANCH   3   6
BRANCH   2  23
HETATM   23  C   UNL     1      42.108 -13.336   3.675  1.00  0.00     0.043 A 
HETATM   24  C   UNL     1      43.158 -12.641   3.054  1.00  0.00     0.033 A 
HETATM   25  C   UNL     1      43.894 -11.706   3.784  1.00  0.00     0.044 A 
HETATM   26  C   UNL     1      43.581 -11.467   5.117  1.00  0.00     0.116 A 
HETATM   27  F   UNL     1      44.295 -10.573   5.811  1.00  0.00    -0.206 F 
HETATM   28  C   UNL     1      42.539 -12.144   5.739  1.00  0.00     0.044 A 
HETATM   29  C   UNL     1      41.796 -13.082   5.019  1.00  0.00     0.033 A 
ENDBRANCH   2  23
BRANCH   1  30
HETATM   30  C   UNL     1      43.020 -16.271   3.120  1.00  0.00     0.255 C 
HETATM   31  C   UNL     1      43.071 -17.733   2.668  1.00  0.00     0.049 C 
BRANCH  30  32
HETATM   32  N   UNL     1      43.217 -16.204   4.649  1.00  0.00    -0.060 N 
HETATM   33  H   UNL     1      43.333 -15.207   4.865  1.00  0.00     0.280 HD
HETATM   34  C   UNL     1      41.979 -16.671   5.391  1.00  0.00     0.236 C 
HETATM   35  C   UNL     1      42.124 -16.330   6.868  1.00  0.00     0.028 C 
HETATM   36  C   UNL     1      43.392 -16.929   7.467  1.00  0.00     0.003 C 
HETATM   37  C   UNL     1      44.626 -16.549   6.652  1.00  0.00     0.028 C 
HETATM   38  C   UNL     1      44.453 -16.907   5.179  1.00  0.00     0.236 C 
ENDBRANCH  30  32
ENDBRANCH   1  30
TORSDOF 7
ENDMDL
MODEL 7
REMARK VINA RESULT:      -7.5      1.636      2.224
REMARK  7 active torsions:
REMARK  status: ('A' for Active; 'I' for Inactive)
REMARK    1  A    between atoms: C_2  and  N_3 
REMARK    2  A    between atoms: C_2  and  C_10 
REMARK    3  A    between atoms: N_11  and  C_12 
REMARK    4  A    between atoms: C_19  and  S_20 
REMARK    5  A    between atoms: S_20  and  C_21 
REMARK    6  A    between atoms: C_21  and  C_22 
REMARK    7  A    between atoms: C_21  and  C_28 
REMARK       I    between atoms: C_22  and  N_23 
REMARK       I    between atoms: N_23  and  C_24 
REMARK       I    between atoms: C_24  and  N_25 
ROOT
HETATM    1  C   UNL     1      41.047 -11.271   2.233  1.00  0.00     0.166 A 
HETATM    2  N   UNL     1      41.945 -12.140   2.846  1.00  0.00    -0.274 N 
HETATM    3  C   UNL     1      42.658 -11.329   3.712  1.00  0.00     0.197 A 
HETATM    4  N   UNL     1      42.268 -10.082   3.581  1.00  0.00    -0.122 NA
HETATM    5  N   UNL     1      41.271 -10.041   2.651  1.00  0.00    -0.131 NA
ENDROOT
BRANCH   3   6
HETATM    6  S   UNL     1      43.977 -11.869   4.687  1.00  0.00    -0.070 SA
BRANCH   6   7
HETATM    7  C   UNL     1      43.189 -12.309   6.289  1.00  0.00     0.180 C 
BRANCH   7   8
HETATM    8  C   UNL     1      43.889 -11.662   7.508  1.00  0.00     0.244 C 
HETATM    9  N   UNL     1      43.126 -10.912   8.384  1.00  0.00    -0.278 N 
HETATM   10  C   UNL     1      42.101 -10.079   8.024  1.00  0.00     0.320 C 
HETATM   11  H   UNL     1      43.665 -10.579   9.166  1.00  0.00     0.173 HD
HETATM   12  N   UNL     1      41.622  -9.340   9.059  1.00  0.00    -0.352 N 
HETATM   13  O   UNL     1      41.588 -10.001   6.919  1.00  0.00    -0.247 OA
HETATM   14  H   UNL     1      42.158  -9.127   9.886  1.00  0.00     0.160 HD
HETATM   15  H   UNL     1      40.883  -8.687   8.821  1.00  0.00     0.160 HD
HETATM   16  O   UNL     1      45.106 -11.718   7.732  1.00  0.00    -0.271 OA
ENDBRANCH   7   8
BRANCH   7  17
HETATM   17  C   UNL     1      42.942 -13.808   6.392  1.00  0.00    -0.035 A 
HETATM   18  C   UNL     1      44.011 -14.693   6.158  1.00  0.00     0.009 A 
HETATM   19  C   UNL     1      43.836 -16.075   6.251  1.00  0.00     0.001 A 
HETATM   20  C   UNL     1      42.589 -16.595   6.581  1.00  0.00     0.000 A 
HETATM   21  C   UNL     1      41.519 -15.736   6.823  1.00  0.00     0.001 A 
HETATM   22  C   UNL     1      41.694 -14.353   6.734  1.00  0.00     0.009 A 
ENDBRANCH   7  17
ENDBRANCH   6   7
ENDBRANCH   3   6
BRANCH   2  23
HETATM   23  C   UNL     1      42.027 -13.544   2.662  1.00  0.00     0.043 A 
HETATM   24  C   UNL     1      41.096 -14.384   3.293  1.00  0.00     0.033 A 
HETATM   25  C   UNL     1      41.191 -15.768   3.127  1.00  0.00     0.044 A 
HETATM   26  C   UNL     1      42.203 -16.302   2.337  1.00  0.00     0.116 A 
HETATM   27  F   UNL     1      42.290 -17.628   2.187  1.00  0.00    -0.206 F 
HETATM   28  C   UNL     1      43.125 -15.477   1.703  1.00  0.00     0.044 A 
HETATM   29  C   UNL     1      43.040 -14.093   1.861  1.00  0.00     0.033 A 
ENDBRANCH   2  23
BRANCH   1  30
HETATM   30  C   UNL     1      39.891 -11.668   1.369  1.00  0.00     0.255 C 
HETATM   31  C   UNL     1      38.849 -12.456   2.168  1.00  0.00     0.049 C 
BRANCH  30  32
HETATM   32  N   UNL     1      40.279 -12.469   0.109  1.00  0.00    -0.060 N 
HETATM   33  H   UNL     1      41.245 -12.778   0.270  1.00  0.00     0.280 HD
HETATM   34  C   UNL     1      39.437 -13.723  -0.036  1.00  0.00     0.236 C 
HETATM   35  C   UNL     1      40.035 -14.603  -1.125  1.00  0.00     0.028 C 
HETATM   36  C   UNL     1      40.162 -13.860  -2.450  1.00  0.00     0.003 C 
HETATM   37  C   UNL     1      40.913 -12.543  -2.280  1.00  0.00     0.028 C 
HETATM   38  C   UNL     1      40.288 -11.680  -1.188  1.00  0.00     0.236 C 
ENDBRANCH  30  32
ENDBRANCH   1  30
TORSDOF 7
ENDMDL
MODEL 8
REMARK VINA RESULT:      -7.4      3.501      7.824
REMARK  7 active torsions:
REMARK  status: ('A' for Active; 'I' for Inactive)
REMARK    1  A    between atoms: C_2  and  N_3 
REMARK    2  A    between atoms: C_2  and  C_10 
REMARK    3  A    between atoms: N_11  and  C_12 
REMARK    4  A    between atoms: C_19  and  S_20 
REMARK    5  A    between atoms: S_20  and  C_21 
REMARK    6  A    between atoms: C_21  and  C_22 
REMARK    7  A    between atoms: C_21  and  C_28 
REMARK       I    between atoms: C_22  and  N_23 
REMARK       I    between atoms: N_23  and  C_24 
REMARK       I    between atoms: C_24  and  N_25 
ROOT
HETATM    1  C   UNL     1      44.083 -10.987   7.042  1.00  0.00     0.166 A 
HETATM    2  N   UNL     1      42.787 -11.184   6.574  1.00  0.00    -0.274 N 
HETATM    3  C   UNL     1      42.739 -12.533   6.273  1.00  0.00     0.197 A 
HETATM    4  N   UNL     1      43.915 -13.080   6.477  1.00  0.00    -0.122 NA
HETATM    5  N   UNL     1      44.759 -12.115   6.946  1.00  0.00    -0.131 NA
ENDROOT
BRANCH   3   6
HETATM    6  S   UNL     1      41.375 -13.326   5.570  1.00  0.00    -0.070 SA
BRANCH   6   7
HETATM    7  C   UNL     1      41.732 -13.304   3.767  1.00  0.00     0.180 C 
BRANCH   7   8
HETATM    8  C   UNL     1      40.578 -12.708   2.927  1.00  0.00     0.244 C 
HETATM    9  N   UNL     1      40.894 -11.862   1.880  1.00  0.00    -0.278 N 
HETATM   10  C   UNL     1      41.900 -10.932   1.893  1.00  0.00     0.320 C 
HETATM   11  H   UNL     1      40.078 -11.570   1.368  1.00  0.00     0.173 HD
HETATM   12  N   UNL     1      41.896 -10.123   0.801  1.00  0.00    -0.352 N 
HETATM   13  O   UNL     1      42.773 -10.825   2.739  1.00  0.00    -0.247 OA
HETATM   14  H   UNL     1      41.077  -9.950   0.239  1.00  0.00     0.160 HD
HETATM   15  H   UNL     1      42.608  -9.400   0.793  1.00  0.00     0.160 HD
HETATM   16  O   UNL     1      39.374 -12.888   3.157  1.00  0.00    -0.271 OA
ENDBRANCH   7   8
BRANCH   7  17
HETATM   17  C   UNL     1      42.267 -14.648   3.291  1.00  0.00    -0.035 A 
HETATM   18  C   UNL     1      42.781 -14.753   1.986  1.00  0.00     0.009 A 
HETATM   19  C   UNL     1      43.292 -15.961   1.507  1.00  0.00     0.001 A 
HETATM   20  C   UNL     1      43.299 -17.084   2.327  1.00  0.00     0.000 A 
HETATM   21  C   UNL     1      42.800 -17.000   3.625  1.00  0.00     0.001 A 
HETATM   22  C   UNL     1      42.292 -15.790   4.106  1.00  0.00     0.009 A 
ENDBRANCH   7  17
ENDBRANCH   6   7
ENDBRANCH   3   6
BRANCH   2  23
HETATM   23  C   UNL     1      41.752 -10.215   6.514  1.00  0.00     0.043 A 
HETATM   24  C   UNL     1      41.679  -9.342   5.417  1.00  0.00     0.033 A 
HETATM   25  C   UNL     1      40.672  -8.376   5.369  1.00  0.00     0.044 A 
HETATM   26  C   UNL     1      39.748  -8.288   6.404  1.00  0.00     0.116 A 
HETATM   27  F   UNL     1      38.789  -7.357   6.353  1.00  0.00    -0.206 F 
HETATM   28  C   UNL     1      39.807  -9.153   7.490  1.00  0.00     0.044 A 
HETATM   29  C   UNL     1      40.810 -10.123   7.549  1.00  0.00     0.033 A 
ENDBRANCH   2  23
BRANCH   1  30
HETATM   30  C   UNL     1      44.598  -9.753   7.712  1.00  0.00     0.255 C 
HETATM   31  C   UNL     1      46.120  -9.806   7.877  1.00  0.00     0.049 C 
BRANCH  30  32
HETATM   32  N   UNL     1      43.949  -9.447   9.078  1.00  0.00    -0.060 N 
HETATM   33  H   UNL     1      43.012  -9.865   9.032  1.00  0.00     0.280 HD
HETATM   34  C   UNL     1      44.683 -10.139  10.211  1.00  0.00     0.236 C 
HETATM   35  C   UNL     1      43.853 -10.031  11.483  1.00  0.00     0.028 C 
HETATM   36  C   UNL     1      43.531  -8.581  11.829  1.00  0.00     0.003 C 
HETATM   37  C   UNL     1      42.895  -7.854  10.648  1.00  0.00     0.028 C 
HETATM   38  C   UNL     1      43.751  -7.975   9.391  1.00  0.00     0.236 C 
ENDBRANCH  30  32
ENDBRANCH   1  30
TORSDOF 7
ENDMDL
MODEL 9
REMARK VINA RESULT:      -7.4      2.358      6.791
REMARK  7 active torsions:
REMARK  status: ('A' for Active; 'I' for Inactive)
REMARK    1  A    between atoms: C_2  and  N_3 
REMARK    2  A    between atoms: C_2  and  C_10 
REMARK    3  A    between atoms: N_11  and  C_12 
REMARK    4  A    between atoms: C_19  and  S_20 
REMARK    5  A    between atoms: S_20  and  C_21 
REMARK    6  A    between atoms: C_21  and  C_22 
REMARK    7  A    between atoms: C_21  and  C_28 
REMARK       I    between atoms: C_22  and  N_23 
REMARK       I    between atoms: N_23  and  C_24 
REMARK       I    between atoms: C_24  and  N_25 
ROOT
HETATM    1  C   UNL     1      41.148 -12.716   5.307  1.00  0.00     0.166 A 
HETATM    2  N   UNL     1      40.760 -13.290   4.099  1.00  0.00    -0.274 N 
HETATM    3  C   UNL     1      39.652 -12.555   3.718  1.00  0.00     0.197 A 
HETATM    4  N   UNL     1      39.363 -11.668   4.642  1.00  0.00    -0.122 NA
HETATM    5  N   UNL     1      40.288 -11.774   5.639  1.00  0.00    -0.131 NA
ENDROOT
BRANCH   3   6
HETATM    6  S   UNL     1      38.702 -12.883   2.313  1.00  0.00    -0.070 SA
BRANCH   6   7
HETATM    7  C   UNL     1      39.497 -11.875   0.998  1.00  0.00     0.180 C 
BRANCH   7   8
HETATM    8  C   UNL     1      39.120 -10.376   1.070  1.00  0.00     0.244 C 
HETATM    9  N   UNL     1      39.987  -9.451   0.520  1.00  0.00    -0.278 N 
HETATM   10  C   UNL     1      41.354  -9.521   0.573  1.00  0.00     0.320 C 
HETATM   11  H   UNL     1      39.627  -8.513   0.575  1.00  0.00     0.173 HD
HETATM   12  N   UNL     1      41.968  -8.407   0.095  1.00  0.00    -0.352 N 
HETATM   13  O   UNL     1      42.013 -10.478   0.947  1.00  0.00    -0.247 OA
HETATM   14  H   UNL     1      41.526  -7.501   0.056  1.00  0.00     0.160 HD
HETATM   15  H   UNL     1      42.981  -8.411   0.150  1.00  0.00     0.160 HD
HETATM   16  O   UNL     1      38.114  -9.930   1.641  1.00  0.00    -0.271 OA
ENDBRANCH   7   8
BRANCH   7  17
HETATM   17  C   UNL     1      39.343 -12.527  -0.370  1.00  0.00    -0.035 A 
HETATM   18  C   UNL     1      38.212 -12.218  -1.148  1.00  0.00     0.009 A 
HETATM   19  C   UNL     1      38.032 -12.782  -2.412  1.00  0.00     0.001 A 
HETATM   20  C   UNL     1      38.981 -13.663  -2.921  1.00  0.00     0.000 A 
HETATM   21  C   UNL     1      40.111 -13.976  -2.169  1.00  0.00     0.001 A 
HETATM   22  C   UNL     1      40.294 -13.410  -0.904  1.00  0.00     0.009 A 
ENDBRANCH   7  17
ENDBRANCH   6   7
ENDBRANCH   3   6
BRANCH   2  23
HETATM   23  C   UNL     1      41.424 -14.335   3.405  1.00  0.00     0.043 A 
HETATM   24  C   UNL     1      41.005 -15.663   3.582  1.00  0.00     0.033 A 
HETATM   25  C   UNL     1      41.672 -16.692   2.914  1.00  0.00     0.044 A 
HETATM   26  C   UNL     1      42.743 -16.394   2.079  1.00  0.00     0.116 A 
HETATM   27  F   UNL     1      43.380 -17.386   1.447  1.00  0.00    -0.206 F 
HETATM   28  C   UNL     1      43.160 -15.082   1.892  1.00  0.00     0.044 A 
HETATM   29  C   UNL     1      42.500 -14.044   2.555  1.00  0.00     0.033 A 
ENDBRANCH   2  23
BRANCH   1  30
HETATM   30  C   UNL     1      42.424 -12.986   6.039  1.00  0.00     0.255 C 
HETATM   31  C   UNL     1      43.594 -12.221   5.413  1.00  0.00     0.049 C 
BRANCH  30  32
HETATM   32  N   UNL     1      42.795 -14.481   6.149  1.00  0.00    -0.060 N 
HETATM   33  H   UNL     1      42.683 -14.859   5.201  1.00  0.00     0.280 HD
HETATM   34  C   UNL     1      44.252 -14.667   6.527  1.00  0.00     0.236 C 
HETATM   35  C   UNL     1      44.628 -16.132   6.356  1.00  0.00     0.028 C 
HETATM   36  C   UNL     1      43.720 -17.050   7.167  1.00  0.00     0.003 C 
HETATM   37  C   UNL     1      42.247 -16.782   6.867  1.00  0.00     0.028 C 
HETATM   38  C   UNL     1      41.899 -15.309   7.053  1.00  0.00     0.236 C 
ENDBRANCH  30  32
ENDBRANCH   1  30
TORSDOF 7
ENDMDL
MODEL 10
REMARK VINA RESULT:      -7.1      3.008      6.437
REMARK  7 active torsions:
REMARK  status: ('A' for Active; 'I' for Inactive)
REMARK    1  A    between atoms: C_2  and  N_3 
REMARK    2  A    between atoms: C_2  and  C_10 
REMARK    3  A    between atoms: N_11  and  C_12 
REMARK    4  A    between atoms: C_19  and  S_20 
REMARK    5  A    between atoms: S_20  and  C_21 
REMARK    6  A    between atoms: C_21  and  C_22 
REMARK    7  A    between atoms: C_21  and  C_28 
REMARK       I    between atoms: C_22  and  N_23 
REMARK       I    between atoms: N_23  and  C_24 
REMARK       I    between atoms: C_24  and  N_25 
ROOT
HETATM    1  C   UNL     1      40.719 -14.770   4.291  1.00  0.00     0.166 A 
HETATM    2  N   UNL     1      40.264 -13.454   4.300  1.00  0.00    -0.274 N 
HETATM    3  C   UNL     1      39.956 -13.214   5.626  1.00  0.00     0.197 A 
HETATM    4  N   UNL     1      40.146 -14.303   6.335  1.00  0.00    -0.122 NA
HETATM    5  N   UNL     1      40.611 -15.279   5.503  1.00  0.00    -0.131 NA
ENDROOT
BRANCH   3   6
HETATM    6  S   UNL     1      39.264 -11.745   6.215  1.00  0.00    -0.070 SA
BRANCH   6   7
HETATM    7  C   UNL     1      40.615 -10.513   6.022  1.00  0.00     0.180 C 
BRANCH   7   8
HETATM    8  C   UNL     1      41.151  -9.982   7.374  1.00  0.00     0.244 C 
HETATM    9  N   UNL     1      42.509 -10.055   7.619  1.00  0.00    -0.278 N 
HETATM   10  C   UNL     1      43.324 -11.091   7.247  1.00  0.00     0.320 C 
HETATM   11  H   UNL     1      42.758  -9.639   8.501  1.00  0.00     0.173 HD
HETATM   12  N   UNL     1      44.583 -10.990   7.749  1.00  0.00    -0.352 N 
HETATM   13  O   UNL     1      43.028 -12.010   6.501  1.00  0.00    -0.247 OA
HETATM   14  H   UNL     1      44.812 -10.459   8.576  1.00  0.00     0.160 HD
HETATM   15  H   UNL     1      45.205 -11.758   7.520  1.00  0.00     0.160 HD
HETATM   16  O   UNL     1      40.439  -9.542   8.288  1.00  0.00    -0.271 OA
ENDBRANCH   7   8
BRANCH   7  17
HETATM   17  C   UNL     1      40.255  -9.450   4.994  1.00  0.00    -0.035 A 
HETATM   18  C   UNL     1      38.914  -9.325   4.586  1.00  0.00     0.009 A 
HETATM   19  C   UNL     1      38.532  -8.358   3.654  1.00  0.00     0.001 A 
HETATM   20  C   UNL     1      39.484  -7.499   3.115  1.00  0.00     0.000 A 
HETATM   21  C   UNL     1      40.816  -7.603   3.511  1.00  0.00     0.001 A 
HETATM   22  C   UNL     1      41.198  -8.568   4.446  1.00  0.00     0.009 A 
ENDBRANCH   7  17
ENDBRANCH   6   7
ENDBRANCH   3   6
BRANCH   2  23
HETATM   23  C   UNL     1      40.219 -12.566   3.195  1.00  0.00     0.043 A 
HETATM   24  C   UNL     1      41.394 -11.929   2.764  1.00  0.00     0.033 A 
HETATM   25  C   UNL     1      41.344 -11.040   1.689  1.00  0.00     0.044 A 
HETATM   26  C   UNL     1      40.133 -10.792   1.052  1.00  0.00     0.116 A 
HETATM   27  F   UNL     1      40.092  -9.934   0.027  1.00  0.00    -0.206 F 
HETATM   28  C   UNL     1      38.966 -11.423   1.466  1.00  0.00     0.044 A 
HETATM   29  C   UNL     1      39.004 -12.315   2.540  1.00  0.00     0.033 A 
ENDBRANCH   2  23
BRANCH   1  30
HETATM   30  C   UNL     1      41.390 -15.461   3.146  1.00  0.00     0.255 C 
HETATM   31  C   UNL     1      40.370 -15.902   2.092  1.00  0.00     0.049 C 
BRANCH  30  32
HETATM   32  N   UNL     1      42.261 -16.669   3.548  1.00  0.00    -0.060 N 
HETATM   33  H   UNL     1      41.659 -17.252   4.142  1.00  0.00     0.280 HD
HETATM   34  C   UNL     1      42.635 -17.512   2.344  1.00  0.00     0.236 C 
HETATM   35  C   UNL     1      43.252 -18.819   2.822  1.00  0.00     0.028 C 
HETATM   36  C   UNL     1      44.452 -18.582   3.732  1.00  0.00     0.003 C 
HETATM   37  C   UNL     1      44.102 -17.642   4.882  1.00  0.00     0.028 C 
HETATM   38  C   UNL     1      43.492 -16.340   4.372  1.00  0.00     0.236 C 
ENDBRANCH  30  32
ENDBRANCH   1  30
TORSDOF 7
ENDMDL
