MODEL 1
REMARK VINA RESULT:      -9.0      0.000      0.000
REMARK  3 active torsions:
REMARK  status: ('A' for Active; 'I' for Inactive)
REMARK    1  A    between atoms: C_5  and  C_6 
REMARK    2  A    between atoms: C_10  and  N_11 
REMARK    3  A    between atoms: C_18  and  C_19 
ROOT
HETATM    1  C   UNL     1      43.843 -16.790   4.662  1.00  0.00     0.106 A 
HETATM    2  C   UNL     1      43.926 -18.320   4.689  1.00  0.00     0.081 A 
HETATM    3  C   UNL     1      44.393 -18.954   3.500  1.00  0.00     0.100 C 
HETATM    4  N   UNL     1      44.777 -19.471   2.534  1.00  0.00    -0.191 NA
HETATM    5  C   UNL     1      43.622 -19.059   5.791  1.00  0.00     0.140 A 
HETATM    6  O   UNL     1      43.208 -18.462   6.994  1.00  0.00    -0.279 OA
HETATM    7  C   UNL     1      43.212 -17.136   7.026  1.00  0.00     0.175 A 
HETATM    8  C   UNL     1      43.499 -16.259   6.011  1.00  0.00     0.040 A 
HETATM    9  N   UNL     1      42.924 -16.395   8.121  1.00  0.00    -0.256 N 
HETATM   10  H   UNL     1      42.667 -16.715   9.047  1.00  0.00     0.191 HD
HETATM   11  N   UNL     1      43.014 -15.074   7.893  1.00  0.00    -0.172 NA
HETATM   12  C   UNL     1      43.395 -14.966   6.602  1.00  0.00     0.099 A 
ENDROOT
BRANCH   1  13
HETATM   13  C   UNL     1      42.778 -16.295   3.690  1.00  0.00    -0.044 A 
HETATM   14  C   UNL     1      41.400 -16.415   3.944  1.00  0.00     0.009 A 
HETATM   15  C   UNL     1      40.457 -16.017   2.994  1.00  0.00     0.007 A 
HETATM   16  C   UNL     1      40.865 -15.498   1.761  1.00  0.00    -0.062 A 
HETATM   17  C   UNL     1      39.849 -15.127   0.721  1.00  0.00     0.048 C 
HETATM   18  C   UNL     1      42.232 -15.395   1.489  1.00  0.00     0.007 A 
HETATM   19  C   UNL     1      43.177 -15.784   2.442  1.00  0.00     0.009 A 
ENDBRANCH   1  13
BRANCH   5  20
HETATM   20  N   UNL     1      43.681 -20.432   5.873  1.00  0.00    -0.282 NA
HETATM   21  H   UNL     1      43.607 -20.927   4.987  1.00  0.00     0.126 HD
HETATM   22  H   UNL     1      43.056 -20.800   6.586  1.00  0.00     0.126 HD
ENDBRANCH   5  20
BRANCH  12  23
HETATM   23  C   UNL     1      43.627 -13.646   6.011  1.00  0.00    -0.005 A 
HETATM   24  C   UNL     1      44.578 -12.764   6.539  1.00  0.00     0.014 A 
HETATM   25  C   UNL     1      44.772 -11.503   5.968  1.00  0.00     0.001 A 
HETATM   26  C   UNL     1      44.010 -11.107   4.870  1.00  0.00     0.000 A 
HETATM   27  C   UNL     1      43.051 -11.969   4.344  1.00  0.00     0.001 A 
HETATM   28  C   UNL     1      42.860 -13.231   4.913  1.00  0.00     0.014 A 
ENDBRANCH  12  23
TORSDOF 3
ENDMDL
MODEL 2
REMARK VINA RESULT:      -8.0      3.734      6.345
REMARK  3 active torsions:
REMARK  status: ('A' for Active; 'I' for Inactive)
REMARK    1  A    between atoms: C_5  and  C_6 
REMARK    2  A    between atoms: C_10  and  N_11 
REMARK    3  A    between atoms: C_18  and  C_19 
ROOT
HETATM    1  C   UNL     1      42.524 -12.327   3.154  1.00  0.00     0.106 A 
HETATM    2  C   UNL     1      43.269 -11.660   4.316  1.00  0.00     0.081 A 
HETATM    3  C   UNL     1      44.684 -11.551   4.186  1.00  0.00     0.100 C 
HETATM    4  N   UNL     1      45.837 -11.458   4.079  1.00  0.00    -0.191 NA
HETATM    5  C   UNL     1      42.635 -11.147   5.406  1.00  0.00     0.140 A 
HETATM    6  O   UNL     1      41.237 -11.193   5.541  1.00  0.00    -0.279 OA
HETATM    7  C   UNL     1      40.560 -11.685   4.511  1.00  0.00     0.175 A 
HETATM    8  C   UNL     1      41.050 -12.227   3.350  1.00  0.00     0.040 A 
HETATM    9  N   UNL     1      39.210 -11.730   4.432  1.00  0.00    -0.256 N 
HETATM   10  H   UNL     1      38.530 -11.415   5.113  1.00  0.00     0.191 HD
HETATM   11  N   UNL     1      38.775 -12.263   3.278  1.00  0.00    -0.172 NA
HETATM   12  C   UNL     1      39.895 -12.553   2.581  1.00  0.00     0.099 A 
ENDROOT
BRANCH   1  13
HETATM   13  C   UNL     1      42.870 -13.807   3.031  1.00  0.00    -0.044 A 
HETATM   14  C   UNL     1      43.302 -14.390   1.827  1.00  0.00     0.009 A 
HETATM   15  C   UNL     1      43.537 -15.764   1.739  1.00  0.00     0.007 A 
HETATM   16  C   UNL     1      43.338 -16.593   2.847  1.00  0.00    -0.062 A 
HETATM   17  C   UNL     1      43.534 -18.076   2.730  1.00  0.00     0.048 C 
HETATM   18  C   UNL     1      42.887 -16.027   4.043  1.00  0.00     0.007 A 
HETATM   19  C   UNL     1      42.661 -14.651   4.136  1.00  0.00     0.009 A 
ENDBRANCH   1  13
BRANCH   5  20
HETATM   20  N   UNL     1      43.251 -10.536   6.475  1.00  0.00    -0.282 NA
HETATM   21  H   UNL     1      44.002 -11.068   6.910  1.00  0.00     0.126 HD
HETATM   22  H   UNL     1      42.580 -10.174   7.148  1.00  0.00     0.126 HD
ENDBRANCH   5  20
BRANCH  12  23
HETATM   23  C   UNL     1      39.797 -13.126   1.237  1.00  0.00    -0.005 A 
HETATM   24  C   UNL     1      39.900 -14.506   1.020  1.00  0.00     0.014 A 
HETATM   25  C   UNL     1      39.819 -15.030  -0.273  1.00  0.00     0.001 A 
HETATM   26  C   UNL     1      39.644 -14.179  -1.364  1.00  0.00     0.000 A 
HETATM   27  C   UNL     1      39.553 -12.804  -1.163  1.00  0.00     0.001 A 
HETATM   28  C   UNL     1      39.631 -12.281   0.130  1.00  0.00     0.014 A 
ENDBRANCH  12  23
TORSDOF 3
ENDMDL
MODEL 3
REMARK VINA RESULT:      -8.0      4.709      6.675
REMARK  3 active torsions:
REMARK  status: ('A' for Active; 'I' for Inactive)
REMARK    1  A    between atoms: C_5  and  C_6 
REMARK    2  A    between atoms: C_10  and  N_11 
REMARK    3  A    between atoms: C_18  and  C_19 
ROOT
HETATM    1  C   UNL     1      40.102 -13.646   0.523  1.00  0.00     0.106 A 
HETATM    2  C   UNL     1      40.037 -13.691  -1.007  1.00  0.00     0.081 A 
HETATM    3  C   UNL     1      39.344 -14.796  -1.583  1.00  0.00     0.100 C 
HETATM    4  N   UNL     1      38.776 -15.693  -2.052  1.00  0.00    -0.191 NA
HETATM    5  C   UNL     1      40.563 -12.718  -1.801  1.00  0.00     0.140 A 
HETATM    6  O   UNL     1      41.208 -11.591  -1.263  1.00  0.00    -0.279 OA
HETATM    7  C   UNL     1      41.201 -11.481   0.059  1.00  0.00     0.175 A 
HETATM    8  C   UNL     1      40.708 -12.365   0.985  1.00  0.00     0.040 A 
HETATM    9  N   UNL     1      41.700 -10.426   0.743  1.00  0.00    -0.256 N 
HETATM   10  H   UNL     1      42.141  -9.590   0.377  1.00  0.00     0.191 HD
HETATM   11  N   UNL     1      41.556 -10.554   2.073  1.00  0.00    -0.172 NA
HETATM   12  C   UNL     1      40.921 -11.733   2.245  1.00  0.00     0.099 A 
ENDROOT
BRANCH   1  13
HETATM   13  C   UNL     1      40.945 -14.782   1.091  1.00  0.00    -0.044 A 
HETATM   14  C   UNL     1      40.392 -15.850   1.819  1.00  0.00     0.009 A 
HETATM   15  C   UNL     1      41.209 -16.832   2.386  1.00  0.00     0.007 A 
HETATM   16  C   UNL     1      42.599 -16.767   2.249  1.00  0.00    -0.062 A 
HETATM   17  C   UNL     1      43.474 -17.791   2.910  1.00  0.00     0.048 C 
HETATM   18  C   UNL     1      43.160 -15.698   1.546  1.00  0.00     0.007 A 
HETATM   19  C   UNL     1      42.345 -14.720   0.969  1.00  0.00     0.009 A 
ENDBRANCH   1  13
BRANCH   5  20
HETATM   20  N   UNL     1      40.532 -12.705  -3.177  1.00  0.00    -0.282 NA
HETATM   21  H   UNL     1      41.012 -11.925  -3.619  1.00  0.00     0.126 HD
HETATM   22  H   UNL     1      39.592 -12.850  -3.539  1.00  0.00     0.126 HD
ENDBRANCH   5  20
BRANCH  12  23
HETATM   23  C   UNL     1      40.565 -12.187   3.591  1.00  0.00    -0.005 A 
HETATM   24  C   UNL     1      39.469 -11.652   4.279  1.00  0.00     0.014 A 
HETATM   25  C   UNL     1      39.157 -12.090   5.569  1.00  0.00     0.001 A 
HETATM   26  C   UNL     1      39.944 -13.060   6.189  1.00  0.00     0.000 A 
HETATM   27  C   UNL     1      41.045 -13.590   5.521  1.00  0.00     0.001 A 
HETATM   28  C   UNL     1      41.355 -13.154   4.231  1.00  0.00     0.014 A 
ENDBRANCH  12  23
TORSDOF 3
ENDMDL
MODEL 4
REMARK VINA RESULT:      -7.8      5.164      7.939
REMARK  3 active torsions:
REMARK  status: ('A' for Active; 'I' for Inactive)
REMARK    1  A    between atoms: C_5  and  C_6 
REMARK    2  A    between atoms: C_10  and  N_11 
REMARK    3  A    between atoms: C_18  and  C_19 
ROOT
HETATM    1  C   UNL     1      41.127 -12.333   0.307  1.00  0.00     0.106 A 
HETATM    2  C   UNL     1      40.885 -11.250  -0.750  1.00  0.00     0.081 A 
HETATM    3  C   UNL     1      41.647 -10.052  -0.621  1.00  0.00     0.100 C 
HETATM    4  N   UNL     1      42.270  -9.078  -0.519  1.00  0.00    -0.191 NA
HETATM    5  C   UNL     1      40.027 -11.413  -1.795  1.00  0.00     0.140 A 
HETATM    6  O   UNL     1      39.299 -12.601  -1.979  1.00  0.00    -0.279 OA
HETATM    7  C   UNL     1      39.556 -13.588  -1.130  1.00  0.00     0.175 A 
HETATM    8  C   UNL     1      40.391 -13.581  -0.041  1.00  0.00     0.040 A 
HETATM    9  N   UNL     1      39.012 -14.824  -1.205  1.00  0.00    -0.256 N 
HETATM   10  H   UNL     1      38.351 -15.180  -1.886  1.00  0.00     0.191 HD
HETATM   11  N   UNL     1      39.447 -15.644  -0.233  1.00  0.00    -0.172 NA
HETATM   12  C   UNL     1      40.322 -14.905   0.482  1.00  0.00     0.099 A 
ENDROOT
BRANCH   1  13
HETATM   13  C   UNL     1      40.657 -11.895   1.689  1.00  0.00    -0.044 A 
HETATM   14  C   UNL     1      41.462 -12.003   2.837  1.00  0.00     0.009 A 
HETATM   15  C   UNL     1      40.966 -11.660   4.097  1.00  0.00     0.007 A 
HETATM   16  C   UNL     1      39.651 -11.209   4.245  1.00  0.00    -0.062 A 
HETATM   17  C   UNL     1      39.105 -10.898   5.608  1.00  0.00     0.048 C 
HETATM   18  C   UNL     1      38.835 -11.118   3.114  1.00  0.00     0.007 A 
HETATM   19  C   UNL     1      39.333 -11.452   1.851  1.00  0.00     0.009 A 
ENDBRANCH   1  13
BRANCH   5  20
HETATM   20  N   UNL     1      39.773 -10.478  -2.772  1.00  0.00    -0.282 NA
HETATM   21  H   UNL     1      38.864 -10.554  -3.225  1.00  0.00     0.126 HD
HETATM   22  H   UNL     1      40.540 -10.398  -3.435  1.00  0.00     0.126 HD
ENDBRANCH   5  20
BRANCH  12  23
HETATM   23  C   UNL     1      41.028 -15.499   1.620  1.00  0.00    -0.005 A 
HETATM   24  C   UNL     1      40.388 -15.716   2.846  1.00  0.00     0.014 A 
HETATM   25  C   UNL     1      41.086 -16.270   3.923  1.00  0.00     0.001 A 
HETATM   26  C   UNL     1      42.433 -16.603   3.789  1.00  0.00     0.000 A 
HETATM   27  C   UNL     1      43.085 -16.379   2.578  1.00  0.00     0.001 A 
HETATM   28  C   UNL     1      42.386 -15.829   1.501  1.00  0.00     0.014 A 
ENDBRANCH  12  23
TORSDOF 3
ENDMDL
MODEL 5
REMARK VINA RESULT:      -7.7     14.152     15.796
REMARK  3 active torsions:
REMARK  status: ('A' for Active; 'I' for Inactive)
REMARK    1  A    between atoms: C_5  and  C_6 
REMARK    2  A    between atoms: C_10  and  N_11 
REMARK    3  A    between atoms: C_18  and  C_19 
ROOT
HETATM    1  C   UNL     1      44.392 -31.229   0.524  1.00  0.00     0.106 A 
HETATM    2  C   UNL     1      42.982 -31.592   1.003  1.00  0.00     0.081 A 
HETATM    3  C   UNL     1      42.405 -32.772   0.449  1.00  0.00     0.100 C 
HETATM    4  N   UNL     1      41.936 -33.735   0.001  1.00  0.00    -0.191 NA
HETATM    5  C   UNL     1      42.310 -30.871   1.942  1.00  0.00     0.140 A 
HETATM    6  O   UNL     1      42.871 -29.732   2.545  1.00  0.00    -0.279 OA
HETATM    7  C   UNL     1      44.124 -29.446   2.214  1.00  0.00     0.175 A 
HETATM    8  C   UNL     1      44.930 -30.076   1.300  1.00  0.00     0.040 A 
HETATM    9  N   UNL     1      44.849 -28.439   2.755  1.00  0.00    -0.256 N 
HETATM   10  H   UNL     1      44.567 -27.771   3.463  1.00  0.00     0.191 HD
HETATM   11  N   UNL     1      46.096 -28.372   2.259  1.00  0.00    -0.172 NA
HETATM   12  C   UNL     1      46.178 -29.391   1.377  1.00  0.00     0.099 A 
ENDROOT
BRANCH   1  13
HETATM   13  C   UNL     1      44.409 -30.838  -0.949  1.00  0.00    -0.044 A 
HETATM   14  C   UNL     1      43.912 -29.608  -1.416  1.00  0.00     0.009 A 
HETATM   15  C   UNL     1      43.877 -29.320  -2.783  1.00  0.00     0.007 A 
HETATM   16  C   UNL     1      44.330 -30.255  -3.719  1.00  0.00    -0.062 A 
HETATM   17  C   UNL     1      44.236 -29.964  -5.188  1.00  0.00     0.048 C 
HETATM   18  C   UNL     1      44.806 -31.489  -3.267  1.00  0.00     0.007 A 
HETATM   19  C   UNL     1      44.850 -31.775  -1.899  1.00  0.00     0.009 A 
ENDBRANCH   1  13
BRANCH   5  20
HETATM   20  N   UNL     1      41.046 -31.151   2.411  1.00  0.00    -0.282 NA
HETATM   21  H   UNL     1      40.605 -31.976   2.012  1.00  0.00     0.126 HD
HETATM   22  H   UNL     1      40.443 -30.332   2.397  1.00  0.00     0.126 HD
ENDBRANCH   5  20
BRANCH  12  23
HETATM   23  C   UNL     1      47.429 -29.643   0.659  1.00  0.00    -0.005 A 
HETATM   24  C   UNL     1      48.509 -30.287   1.275  1.00  0.00     0.014 A 
HETATM   25  C   UNL     1      49.700 -30.504   0.574  1.00  0.00     0.001 A 
HETATM   26  C   UNL     1      49.826 -30.071  -0.745  1.00  0.00     0.000 A 
HETATM   27  C   UNL     1      48.763 -29.418  -1.364  1.00  0.00     0.001 A 
HETATM   28  C   UNL     1      47.573 -29.204  -0.665  1.00  0.00     0.014 A 
ENDBRANCH  12  23
TORSDOF 3
ENDMDL
MODEL 6
REMARK VINA RESULT:      -7.7      3.952      6.732
REMARK  3 active torsions:
REMARK  status: ('A' for Active; 'I' for Inactive)
REMARK    1  A    between atoms: C_5  and  C_6 
REMARK    2  A    between atoms: C_10  and  N_11 
REMARK    3  A    between atoms: C_18  and  C_19 
ROOT
HETATM    1  C   UNL     1      41.499 -12.378   2.947  1.00  0.00     0.106 A 
HETATM    2  C   UNL     1      41.659 -12.001   4.425  1.00  0.00     0.081 A 
HETATM    3  C   UNL     1      42.971 -12.112   4.972  1.00  0.00     0.100 C 
HETATM    4  N   UNL     1      44.040 -12.198   5.417  1.00  0.00    -0.191 NA
HETATM    5  C   UNL     1      40.631 -11.538   5.187  1.00  0.00     0.140 A 
HETATM    6  O   UNL     1      39.337 -11.369   4.664  1.00  0.00    -0.279 OA
HETATM    7  C   UNL     1      39.190 -11.603   3.366  1.00  0.00     0.175 A 
HETATM    8  C   UNL     1      40.123 -12.062   2.471  1.00  0.00     0.040 A 
HETATM    9  N   UNL     1      38.040 -11.413   2.679  1.00  0.00    -0.256 N 
HETATM   10  H   UNL     1      37.147 -11.082   3.026  1.00  0.00     0.191 HD
HETATM   11  N   UNL     1      38.159 -11.710   1.374  1.00  0.00    -0.172 NA
HETATM   12  C   UNL     1      39.446 -12.087   1.217  1.00  0.00     0.099 A 
ENDROOT
BRANCH   1  13
HETATM   13  C   UNL     1      41.735 -13.865   2.711  1.00  0.00    -0.044 A 
HETATM   14  C   UNL     1      40.959 -14.866   3.322  1.00  0.00     0.009 A 
HETATM   15  C   UNL     1      41.257 -16.218   3.137  1.00  0.00     0.007 A 
HETATM   16  C   UNL     1      42.342 -16.606   2.345  1.00  0.00    -0.062 A 
HETATM   17  C   UNL     1      42.693 -18.058   2.198  1.00  0.00     0.048 C 
HETATM   18  C   UNL     1      43.133 -15.619   1.751  1.00  0.00     0.007 A 
HETATM   19  C   UNL     1      42.831 -14.266   1.927  1.00  0.00     0.009 A 
ENDBRANCH   1  13
BRANCH   5  20
HETATM   20  N   UNL     1      40.717 -11.183   6.514  1.00  0.00    -0.282 NA
HETATM   21  H   UNL     1      40.290 -10.292   6.758  1.00  0.00     0.126 HD
HETATM   22  H   UNL     1      41.663 -11.282   6.876  1.00  0.00     0.126 HD
ENDBRANCH   5  20
BRANCH  12  23
HETATM   23  C   UNL     1      39.948 -12.456  -0.109  1.00  0.00    -0.005 A 
HETATM   24  C   UNL     1      40.735 -11.577  -0.864  1.00  0.00     0.014 A 
HETATM   25  C   UNL     1      41.190 -11.944  -2.134  1.00  0.00     0.001 A 
HETATM   26  C   UNL     1      40.855 -13.189  -2.666  1.00  0.00     0.000 A 
HETATM   27  C   UNL     1      40.062 -14.066  -1.930  1.00  0.00     0.001 A 
HETATM   28  C   UNL     1      39.610 -13.700  -0.660  1.00  0.00     0.014 A 
ENDBRANCH  12  23
TORSDOF 3
ENDMDL
MODEL 7
REMARK VINA RESULT:      -7.5      3.658      6.309
REMARK  3 active torsions:
REMARK  status: ('A' for Active; 'I' for Inactive)
REMARK    1  A    between atoms: C_5  and  C_6 
REMARK    2  A    between atoms: C_10  and  N_11 
REMARK    3  A    between atoms: C_18  and  C_19 
ROOT
HETATM    1  C   UNL     1      42.735 -12.429   5.111  1.00  0.00     0.106 A 
HETATM    2  C   UNL     1      43.401 -11.475   6.109  1.00  0.00     0.081 A 
HETATM    3  C   UNL     1      44.825 -11.490   6.151  1.00  0.00     0.100 C 
HETATM    4  N   UNL     1      45.986 -11.500   6.184  1.00  0.00    -0.191 NA
HETATM    5  C   UNL     1      42.696 -10.613   6.893  1.00  0.00     0.140 A 
HETATM    6  O   UNL     1      41.294 -10.537   6.839  1.00  0.00    -0.279 OA
HETATM    7  C   UNL     1      40.698 -11.288   5.921  1.00  0.00     0.175 A 
HETATM    8  C   UNL     1      41.264 -12.192   5.059  1.00  0.00     0.040 A 
HETATM    9  N   UNL     1      39.368 -11.281   5.672  1.00  0.00    -0.256 N 
HETATM   10  H   UNL     1      38.646 -10.732   6.124  1.00  0.00     0.191 HD
HETATM   11  N   UNL     1      39.020 -12.122   4.683  1.00  0.00    -0.172 NA
HETATM   12  C   UNL     1      40.180 -12.676   4.271  1.00  0.00     0.099 A 
ENDROOT
BRANCH   1  13
HETATM   13  C   UNL     1      42.949 -13.890   5.491  1.00  0.00    -0.044 A 
HETATM   14  C   UNL     1      43.393 -14.858   4.572  1.00  0.00     0.009 A 
HETATM   15  C   UNL     1      43.504 -16.200   4.942  1.00  0.00     0.007 A 
HETATM   16  C   UNL     1      43.168 -16.613   6.235  1.00  0.00    -0.062 A 
HETATM   17  C   UNL     1      43.233 -18.065   6.608  1.00  0.00     0.048 C 
HETATM   18  C   UNL     1      42.704 -15.663   7.149  1.00  0.00     0.007 A 
HETATM   19  C   UNL     1      42.601 -14.317   6.784  1.00  0.00     0.009 A 
ENDBRANCH   1  13
BRANCH   5  20
HETATM   20  N   UNL     1      43.240  -9.735   7.803  1.00  0.00    -0.282 NA
HETATM   21  H   UNL     1      44.245  -9.594   7.729  1.00  0.00     0.126 HD
HETATM   22  H   UNL     1      42.936  -9.931   8.753  1.00  0.00     0.126 HD
ENDBRANCH   5  20
BRANCH  12  23
HETATM   23  C   UNL     1      40.184 -13.634   3.163  1.00  0.00    -0.005 A 
HETATM   24  C   UNL     1      40.187 -15.016   3.390  1.00  0.00     0.014 A 
HETATM   25  C   UNL     1      40.206 -15.912   2.317  1.00  0.00     0.001 A 
HETATM   26  C   UNL     1      40.233 -15.436   1.007  1.00  0.00     0.000 A 
HETATM   27  C   UNL     1      40.244 -14.064   0.768  1.00  0.00     0.001 A 
HETATM   28  C   UNL     1      40.221 -13.169   1.840  1.00  0.00     0.014 A 
ENDBRANCH  12  23
TORSDOF 3
ENDMDL
MODEL 8
REMARK VINA RESULT:      -7.3      8.120     10.528
REMARK  3 active torsions:
REMARK  status: ('A' for Active; 'I' for Inactive)
REMARK    1  A    between atoms: C_5  and  C_6 
REMARK    2  A    between atoms: C_10  and  N_11 
REMARK    3  A    between atoms: C_18  and  C_19 
ROOT
HETATM    1  C   UNL     1      41.225  -7.987  11.403  1.00  0.00     0.106 A 
HETATM    2  C   UNL     1      41.464  -7.971  12.917  1.00  0.00     0.081 A 
HETATM    3  C   UNL     1      42.224  -6.880  13.431  1.00  0.00     0.100 C 
HETATM    4  N   UNL     1      42.841  -5.989  13.849  1.00  0.00    -0.191 NA
HETATM    5  C   UNL     1      40.949  -8.909  13.759  1.00  0.00     0.140 A 
HETATM    6  O   UNL     1      40.153  -9.968  13.292  1.00  0.00    -0.279 OA
HETATM    7  C   UNL     1      39.857  -9.958  11.998  1.00  0.00     0.175 A 
HETATM    8  C   UNL     1      40.287  -9.084  11.032  1.00  0.00     0.040 A 
HETATM    9  N   UNL     1      39.038 -10.849  11.392  1.00  0.00    -0.256 N 
HETATM   10  H   UNL     1      38.545 -11.632  11.805  1.00  0.00     0.191 HD
HETATM   11  N   UNL     1      38.892 -10.609  10.078  1.00  0.00    -0.172 NA
HETATM   12  C   UNL     1      39.633  -9.506   9.838  1.00  0.00     0.099 A 
ENDROOT
BRANCH   1  13
HETATM   13  C   UNL     1      42.518  -8.208  10.626  1.00  0.00    -0.044 A 
HETATM   14  C   UNL     1      42.882  -7.424   9.517  1.00  0.00     0.009 A 
HETATM   15  C   UNL     1      44.038  -7.708   8.786  1.00  0.00     0.007 A 
HETATM   16  C   UNL     1      44.856  -8.785   9.139  1.00  0.00    -0.062 A 
HETATM   17  C   UNL     1      46.065  -9.121   8.315  1.00  0.00     0.048 C 
HETATM   18  C   UNL     1      44.492  -9.584  10.226  1.00  0.00     0.007 A 
HETATM   19  C   UNL     1      43.340  -9.296  10.965  1.00  0.00     0.009 A 
ENDBRANCH   1  13
BRANCH   5  20
HETATM   20  N   UNL     1      41.129  -8.942  15.124  1.00  0.00    -0.282 NA
HETATM   21  H   UNL     1      40.627  -9.679  15.613  1.00  0.00     0.126 HD
HETATM   22  H   UNL     1      41.003  -8.027  15.549  1.00  0.00     0.126 HD
ENDBRANCH   5  20
BRANCH  12  23
HETATM   23  C   UNL     1      39.680  -8.930   8.492  1.00  0.00    -0.005 A 
HETATM   24  C   UNL     1      40.323  -9.588   7.436  1.00  0.00     0.014 A 
HETATM   25  C   UNL     1      40.369  -9.012   6.164  1.00  0.00     0.001 A 
HETATM   26  C   UNL     1      39.781  -7.769   5.935  1.00  0.00     0.000 A 
HETATM   27  C   UNL     1      39.149  -7.099   6.980  1.00  0.00     0.001 A 
HETATM   28  C   UNL     1      39.101  -7.676   8.251  1.00  0.00     0.014 A 
ENDBRANCH  12  23
TORSDOF 3
ENDMDL
MODEL 9
REMARK VINA RESULT:      -7.3     11.558     14.467
REMARK  3 active torsions:
REMARK  status: ('A' for Active; 'I' for Inactive)
REMARK    1  A    between atoms: C_5  and  C_6 
REMARK    2  A    between atoms: C_10  and  N_11 
REMARK    3  A    between atoms: C_18  and  C_19 
ROOT
HETATM    1  C   UNL     1      38.945  -5.738  13.183  1.00  0.00     0.106 A 
HETATM    2  C   UNL     1      37.711  -4.867  13.442  1.00  0.00     0.081 A 
HETATM    3  C   UNL     1      37.008  -4.400  12.293  1.00  0.00     0.100 C 
HETATM    4  N   UNL     1      36.433  -4.023  11.358  1.00  0.00    -0.191 NA
HETATM    5  C   UNL     1      37.257  -4.578  14.693  1.00  0.00     0.140 A 
HETATM    6  O   UNL     1      37.897  -5.065  15.845  1.00  0.00    -0.279 OA
HETATM    7  C   UNL     1      38.915  -5.893  15.649  1.00  0.00     0.175 A 
HETATM    8  C   UNL     1      39.480  -6.285  14.462  1.00  0.00     0.040 A 
HETATM    9  N   UNL     1      39.594  -6.521  16.638  1.00  0.00    -0.256 N 
HETATM   10  H   UNL     1      39.445  -6.461  17.638  1.00  0.00     0.191 HD
HETATM   11  N   UNL     1      40.572  -7.317  16.173  1.00  0.00    -0.172 NA
HETATM   12  C   UNL     1      40.502  -7.208  14.829  1.00  0.00     0.099 A 
ENDROOT
BRANCH   1  13
HETATM   13  C   UNL     1      40.068  -4.950  12.518  1.00  0.00    -0.044 A 
HETATM   14  C   UNL     1      40.621  -5.312  11.277  1.00  0.00     0.009 A 
HETATM   15  C   UNL     1      41.699  -4.606  10.738  1.00  0.00     0.007 A 
HETATM   16  C   UNL     1      42.259  -3.526  11.428  1.00  0.00    -0.062 A 
HETATM   17  C   UNL     1      43.454  -2.809  10.872  1.00  0.00     0.048 C 
HETATM   18  C   UNL     1      41.731  -3.171  12.672  1.00  0.00     0.007 A 
HETATM   19  C   UNL     1      40.646  -3.870  13.209  1.00  0.00     0.009 A 
ENDBRANCH   1  13
BRANCH   5  20
HETATM   20  N   UNL     1      36.155  -3.806  14.984  1.00  0.00    -0.282 NA
HETATM   21  H   UNL     1      36.103  -3.461  15.940  1.00  0.00     0.126 HD
HETATM   22  H   UNL     1      35.290  -4.240  14.671  1.00  0.00     0.126 HD
ENDBRANCH   5  20
BRANCH  12  23
HETATM   23  C   UNL     1      41.414  -7.979  13.981  1.00  0.00    -0.005 A 
HETATM   24  C   UNL     1      42.615  -7.432  13.511  1.00  0.00     0.014 A 
HETATM   25  C   UNL     1      43.463  -8.182  12.690  1.00  0.00     0.001 A 
HETATM   26  C   UNL     1      43.115  -9.480  12.322  1.00  0.00     0.000 A 
HETATM   27  C   UNL     1      41.917 -10.030  12.772  1.00  0.00     0.001 A 
HETATM   28  C   UNL     1      41.071  -9.283  13.594  1.00  0.00     0.014 A 
ENDBRANCH  12  23
TORSDOF 3
ENDMDL
MODEL 10
REMARK VINA RESULT:      -7.2      3.504      6.291
REMARK  3 active torsions:
REMARK  status: ('A' for Active; 'I' for Inactive)
REMARK    1  A    between atoms: C_5  and  C_6 
REMARK    2  A    between atoms: C_10  and  N_11 
REMARK    3  A    between atoms: C_18  and  C_19 
ROOT
HETATM    1  C   UNL     1      41.096 -11.946   6.021  1.00  0.00     0.106 A 
HETATM    2  C   UNL     1      40.619 -10.507   6.245  1.00  0.00     0.081 A 
HETATM    3  C   UNL     1      39.219 -10.272   6.109  1.00  0.00     0.100 C 
HETATM    4  N   UNL     1      38.079 -10.080   6.001  1.00  0.00    -0.191 NA
HETATM    5  C   UNL     1      41.457  -9.496   6.602  1.00  0.00     0.140 A 
HETATM    6  O   UNL     1      42.833  -9.705   6.794  1.00  0.00    -0.279 OA
HETATM    7  C   UNL     1      43.259 -10.958   6.694  1.00  0.00     0.175 A 
HETATM    8  C   UNL     1      42.543 -12.077   6.353  1.00  0.00     0.040 A 
HETATM    9  N   UNL     1      44.531 -11.355   6.927  1.00  0.00    -0.256 N 
HETATM   10  H   UNL     1      45.327 -10.790   7.200  1.00  0.00     0.191 HD
HETATM   11  N   UNL     1      44.698 -12.680   6.771  1.00  0.00    -0.172 NA
HETATM   12  C   UNL     1      43.476 -13.151   6.442  1.00  0.00     0.099 A 
ENDROOT
BRANCH   1  13
HETATM   13  C   UNL     1      40.917 -12.386   4.573  1.00  0.00    -0.044 A 
HETATM   14  C   UNL     1      40.083 -13.455   4.199  1.00  0.00     0.009 A 
HETATM   15  C   UNL     1      40.005 -13.874   2.869  1.00  0.00     0.007 A 
HETATM   16  C   UNL     1      40.765 -13.244   1.879  1.00  0.00    -0.062 A 
HETATM   17  C   UNL     1      40.723 -13.736   0.462  1.00  0.00     0.048 C 
HETATM   18  C   UNL     1      41.614 -12.195   2.242  1.00  0.00     0.007 A 
HETATM   19  C   UNL     1      41.686 -11.768   3.571  1.00  0.00     0.009 A 
ENDBRANCH   1  13
BRANCH   5  20
HETATM   20  N   UNL     1      41.084  -8.188   6.818  1.00  0.00    -0.282 NA
HETATM   21  H   UNL     1      40.672  -7.995   7.728  1.00  0.00     0.126 HD
HETATM   22  H   UNL     1      40.535  -7.814   6.047  1.00  0.00     0.126 HD
ENDBRANCH   5  20
BRANCH  12  23
HETATM   23  C   UNL     1      43.275 -14.585   6.227  1.00  0.00    -0.005 A 
HETATM   24  C   UNL     1      43.199 -15.128   4.938  1.00  0.00     0.014 A 
HETATM   25  C   UNL     1      42.991 -16.499   4.756  1.00  0.00     0.001 A 
HETATM   26  C   UNL     1      42.847 -17.338   5.859  1.00  0.00     0.000 A 
HETATM   27  C   UNL     1      42.907 -16.809   7.146  1.00  0.00     0.001 A 
HETATM   28  C   UNL     1      43.118 -15.440   7.328  1.00  0.00     0.014 A 
ENDBRANCH  12  23
TORSDOF 3
ENDMDL
