MODEL 1
REMARK VINA RESULT:      -7.7      0.000      0.000
REMARK  6 active torsions:
REMARK  status: ('A' for Active; 'I' for Inactive)
REMARK    1  A    between atoms: O_2  and  C_3 
REMARK    2  A    between atoms: C_3  and  C_4 
REMARK    3  A    between atoms: C_4  and  N_5 
REMARK       I    between atoms: N_5  and  C_6 
REMARK    4  A    between atoms: C_6  and  C_7 
REMARK    5  A    between atoms: C_12  and  C_13 
REMARK    6  A    between atoms: C_21  and  C_22 
ROOT
HETATM    1  C   UNL     1      40.714 -13.719   1.089  1.00  0.00     0.170 A 
HETATM    2  N   UNL     1      41.734 -14.546   1.430  1.00  0.00    -0.163 NA
HETATM    3  N   UNL     1      41.509 -14.821   2.724  1.00  0.00    -0.238 N 
HETATM    4  C   UNL     1      40.456 -14.130   3.260  1.00  0.00     0.145 A 
HETATM    5  N   UNL     1      40.163 -14.224   4.585  1.00  0.00    -0.365 N 
HETATM    6  C   UNL     1      41.174 -14.718   5.524  1.00  0.00     0.118 C 
HETATM    7  C   UNL     1      41.800 -15.971   4.883  1.00  0.00     0.066 C 
HETATM    8  C   UNL     1      42.409 -15.658   3.500  1.00  0.00     0.221 C 
HETATM    9  C   UNL     1      39.894 -13.433   2.216  1.00  0.00     0.115 A 
HETATM   10 CL   UNL     1      38.536 -12.419   2.292  1.00  0.00    -0.077 Cl
HETATM   11  H   UNL     1      39.449 -13.616   4.985  1.00  0.00     0.162 HD
ENDROOT
BRANCH   1  12
HETATM   12  C   UNL     1      40.574 -13.225  -0.290  1.00  0.00     0.273 C 
HETATM   13  N   UNL     1      40.058 -14.165  -1.156  1.00  0.00    -0.353 N 
HETATM   14  H   UNL     1      39.972 -15.109  -0.787  1.00  0.00     0.162 HD
HETATM   15  O   UNL     1      40.891 -12.095  -0.648  1.00  0.00    -0.266 OA
BRANCH  13  16
HETATM   16  C   UNL     1      39.953 -13.942  -2.583  1.00  0.00     0.149 C 
BRANCH  16  17
HETATM   17  C   UNL     1      38.530 -14.143  -3.105  1.00  0.00     0.186 C 
BRANCH  17  18
HETATM   18  O   UNL     1      37.612 -13.455  -2.248  1.00  0.00    -0.394 OA
HETATM   19  C   UNL     1      37.580 -12.062  -2.532  1.00  0.00     0.201 C 
ENDBRANCH  17  18
ENDBRANCH  16  17
ENDBRANCH  13  16
ENDBRANCH   1  12
BRANCH   8  20
HETATM   20  C   UNL     1      42.726 -16.954   2.785  1.00  0.00     0.409 C 
HETATM   21  F   UNL     1      41.636 -17.501   2.200  1.00  0.00    -0.169 F 
HETATM   22  F   UNL     1      43.692 -16.832   1.851  1.00  0.00    -0.169 F 
HETATM   23  F   UNL     1      43.182 -17.869   3.683  1.00  0.00    -0.169 F 
ENDBRANCH   8  20
BRANCH   6  24
HETATM   24  C   UNL     1      42.168 -13.633   5.942  1.00  0.00    -0.035 A 
HETATM   25  C   UNL     1      41.824 -12.267   5.927  1.00  0.00     0.011 A 
HETATM   26  C   UNL     1      42.728 -11.283   6.342  1.00  0.00     0.024 A 
HETATM   27  C   UNL     1      43.990 -11.649   6.793  1.00  0.00     0.034 A 
HETATM   28 CL   UNL     1      45.105 -10.443   7.303  1.00  0.00    -0.084 Cl
HETATM   29  C   UNL     1      44.350 -12.991   6.843  1.00  0.00     0.024 A 
HETATM   30  C   UNL     1      43.442 -13.975   6.434  1.00  0.00     0.011 A 
ENDBRANCH   6  24
TORSDOF 6
ENDMDL
MODEL 2
REMARK VINA RESULT:      -7.5      4.228      7.134
REMARK  6 active torsions:
REMARK  status: ('A' for Active; 'I' for Inactive)
REMARK    1  A    between atoms: O_2  and  C_3 
REMARK    2  A    between atoms: C_3  and  C_4 
REMARK    3  A    between atoms: C_4  and  N_5 
REMARK       I    between atoms: N_5  and  C_6 
REMARK    4  A    between atoms: C_6  and  C_7 
REMARK    5  A    between atoms: C_12  and  C_13 
REMARK    6  A    between atoms: C_21  and  C_22 
ROOT
HETATM    1  C   UNL     1      42.593 -15.365   5.009  1.00  0.00     0.170 A 
HETATM    2  N   UNL     1      43.093 -14.250   4.420  1.00  0.00    -0.163 NA
HETATM    3  N   UNL     1      42.004 -13.519   4.134  1.00  0.00    -0.238 N 
HETATM    4  C   UNL     1      40.825 -14.154   4.413  1.00  0.00     0.145 A 
HETATM    5  N   UNL     1      39.633 -13.585   4.088  1.00  0.00    -0.365 N 
HETATM    6  C   UNL     1      39.584 -12.510   3.093  1.00  0.00     0.118 C 
HETATM    7  C   UNL     1      40.723 -11.534   3.438  1.00  0.00     0.066 C 
HETATM    8  C   UNL     1      42.095 -12.241   3.448  1.00  0.00     0.221 C 
HETATM    9  C   UNL     1      41.171 -15.341   5.017  1.00  0.00     0.115 A 
HETATM   10 CL   UNL     1      40.107 -16.526   5.600  1.00  0.00    -0.077 Cl
HETATM   11  H   UNL     1      38.773 -14.122   4.200  1.00  0.00     0.162 HD
ENDROOT
BRANCH   1  12
HETATM   12  C   UNL     1      43.491 -16.412   5.521  1.00  0.00     0.273 C 
HETATM   13  N   UNL     1      43.274 -17.646   4.943  1.00  0.00    -0.353 N 
HETATM   14  H   UNL     1      42.448 -17.720   4.354  1.00  0.00     0.162 HD
HETATM   15  O   UNL     1      44.344 -16.223   6.383  1.00  0.00    -0.266 OA
BRANCH  13  16
HETATM   16  C   UNL     1      43.952 -18.847   5.384  1.00  0.00     0.149 C 
BRANCH  16  17
HETATM   17  C   UNL     1      44.227 -19.819   4.236  1.00  0.00     0.186 C 
BRANCH  17  18
HETATM   18  O   UNL     1      43.883 -19.193   2.995  1.00  0.00    -0.394 OA
HETATM   19  C   UNL     1      43.255 -20.109   2.107  1.00  0.00     0.201 C 
ENDBRANCH  17  18
ENDBRANCH  16  17
ENDBRANCH  13  16
ENDBRANCH   1  12
BRANCH   8  20
HETATM   20  C   UNL     1      43.124 -11.333   4.087  1.00  0.00     0.409 C 
HETATM   21  F   UNL     1      43.264 -11.564   5.411  1.00  0.00    -0.169 F 
HETATM   22  F   UNL     1      44.342 -11.411   3.512  1.00  0.00    -0.169 F 
HETATM   23  F   UNL     1      42.728 -10.037   3.960  1.00  0.00    -0.169 F 
ENDBRANCH   8  20
BRANCH   6  24
HETATM   24  C   UNL     1      39.589 -13.038   1.657  1.00  0.00    -0.035 A 
HETATM   25  C   UNL     1      39.971 -14.360   1.353  1.00  0.00     0.011 A 
HETATM   26  C   UNL     1      39.942 -14.844   0.041  1.00  0.00     0.024 A 
HETATM   27  C   UNL     1      39.518 -14.018  -0.992  1.00  0.00     0.034 A 
HETATM   28 CL   UNL     1      39.481 -14.609  -2.606  1.00  0.00    -0.084 Cl
HETATM   29  C   UNL     1      39.111 -12.716  -0.721  1.00  0.00     0.024 A 
HETATM   30  C   UNL     1      39.134 -12.235   0.593  1.00  0.00     0.011 A 
ENDBRANCH   6  24
TORSDOF 6
ENDMDL
MODEL 3
REMARK VINA RESULT:      -7.4      4.096      7.639
REMARK  6 active torsions:
REMARK  status: ('A' for Active; 'I' for Inactive)
REMARK    1  A    between atoms: O_2  and  C_3 
REMARK    2  A    between atoms: C_3  and  C_4 
REMARK    3  A    between atoms: C_4  and  N_5 
REMARK       I    between atoms: N_5  and  C_6 
REMARK    4  A    between atoms: C_6  and  C_7 
REMARK    5  A    between atoms: C_12  and  C_13 
REMARK    6  A    between atoms: C_21  and  C_22 
ROOT
HETATM    1  C   UNL     1      40.123 -11.853   6.203  1.00  0.00     0.170 A 
HETATM    2  N   UNL     1      39.938 -13.196   6.161  1.00  0.00    -0.163 NA
HETATM    3  N   UNL     1      40.923 -13.634   5.361  1.00  0.00    -0.238 N 
HETATM    4  C   UNL     1      41.667 -12.630   4.802  1.00  0.00     0.145 A 
HETATM    5  N   UNL     1      42.638 -12.906   3.891  1.00  0.00    -0.365 N 
HETATM    6  C   UNL     1      42.640 -14.195   3.193  1.00  0.00     0.118 C 
HETATM    7  C   UNL     1      42.391 -15.277   4.260  1.00  0.00     0.066 C 
HETATM    8  C   UNL     1      41.065 -15.038   5.014  1.00  0.00     0.221 C 
HETATM    9  C   UNL     1      41.197 -11.462   5.357  1.00  0.00     0.115 A 
HETATM   10 CL   UNL     1      41.769  -9.895   5.047  1.00  0.00    -0.077 Cl
HETATM   11  H   UNL     1      43.102 -12.140   3.403  1.00  0.00     0.162 HD
ENDROOT
BRANCH   1  12
HETATM   12  C   UNL     1      39.257 -11.000   7.032  1.00  0.00     0.273 C 
HETATM   13  N   UNL     1      39.942 -10.330   8.024  1.00  0.00    -0.353 N 
HETATM   14  H   UNL     1      40.912 -10.607   8.158  1.00  0.00     0.162 HD
HETATM   15  O   UNL     1      38.045 -10.893   6.873  1.00  0.00    -0.266 OA
BRANCH  13  16
HETATM   16  C   UNL     1      39.277  -9.536   9.036  1.00  0.00     0.149 C 
BRANCH  16  17
HETATM   17  C   UNL     1      40.052  -9.495  10.353  1.00  0.00     0.186 C 
BRANCH  17  18
HETATM   18  O   UNL     1      39.436 -10.387  11.290  1.00  0.00    -0.394 OA
HETATM   19  C   UNL     1      39.920 -10.171  12.609  1.00  0.00     0.201 C 
ENDBRANCH  17  18
ENDBRANCH  16  17
ENDBRANCH  13  16
ENDBRANCH   1  12
BRANCH   8  20
HETATM   20  C   UNL     1      41.016 -15.926   6.239  1.00  0.00     0.409 C 
HETATM   21  F   UNL     1      41.696 -15.402   7.284  1.00  0.00    -0.169 F 
HETATM   22  F   UNL     1      39.762 -16.210   6.648  1.00  0.00    -0.169 F 
HETATM   23  F   UNL     1      41.603 -17.122   5.957  1.00  0.00    -0.169 F 
ENDBRANCH   8  20
BRANCH   6  24
HETATM   24  C   UNL     1      41.681 -14.219   2.001  1.00  0.00    -0.035 A 
HETATM   25  C   UNL     1      41.555 -13.120   1.129  1.00  0.00     0.011 A 
HETATM   26  C   UNL     1      40.699 -13.163   0.023  1.00  0.00     0.024 A 
HETATM   27  C   UNL     1      39.963 -14.311  -0.239  1.00  0.00     0.034 A 
HETATM   28 CL   UNL     1      38.909 -14.367  -1.597  1.00  0.00    -0.084 Cl
HETATM   29  C   UNL     1      40.085 -15.421   0.590  1.00  0.00     0.024 A 
HETATM   30  C   UNL     1      40.946 -15.380   1.693  1.00  0.00     0.011 A 
ENDBRANCH   6  24
TORSDOF 6
ENDMDL
MODEL 4
REMARK VINA RESULT:      -7.3      1.590      2.268
REMARK  6 active torsions:
REMARK  status: ('A' for Active; 'I' for Inactive)
REMARK    1  A    between atoms: O_2  and  C_3 
REMARK    2  A    between atoms: C_3  and  C_4 
REMARK    3  A    between atoms: C_4  and  N_5 
REMARK       I    between atoms: N_5  and  C_6 
REMARK    4  A    between atoms: C_6  and  C_7 
REMARK    5  A    between atoms: C_12  and  C_13 
REMARK    6  A    between atoms: C_21  and  C_22 
ROOT
HETATM    1  C   UNL     1      40.730 -13.807   1.071  1.00  0.00     0.170 A 
HETATM    2  N   UNL     1      41.744 -14.639   1.416  1.00  0.00    -0.163 NA
HETATM    3  N   UNL     1      41.523 -14.900   2.714  1.00  0.00    -0.238 N 
HETATM    4  C   UNL     1      40.480 -14.193   3.248  1.00  0.00     0.145 A 
HETATM    5  N   UNL     1      40.192 -14.271   4.575  1.00  0.00    -0.365 N 
HETATM    6  C   UNL     1      41.203 -14.766   5.514  1.00  0.00     0.118 C 
HETATM    7  C   UNL     1      41.814 -16.031   4.883  1.00  0.00     0.066 C 
HETATM    8  C   UNL     1      42.419 -15.737   3.493  1.00  0.00     0.221 C 
HETATM    9  C   UNL     1      39.919 -13.502   2.199  1.00  0.00     0.115 A 
HETATM   10 CL   UNL     1      38.571 -12.474   2.272  1.00  0.00    -0.077 Cl
HETATM   11  H   UNL     1      39.486 -13.652   4.973  1.00  0.00     0.162 HD
ENDROOT
BRANCH   1  12
HETATM   12  C   UNL     1      40.588 -13.325  -0.311  1.00  0.00     0.273 C 
HETATM   13  N   UNL     1      41.155 -12.085  -0.517  1.00  0.00    -0.353 N 
HETATM   14  H   UNL     1      41.468 -11.597   0.319  1.00  0.00     0.162 HD
HETATM   15  O   UNL     1      40.017 -13.949  -1.200  1.00  0.00    -0.266 OA
BRANCH  13  16
HETATM   16  C   UNL     1      41.026 -11.361  -1.763  1.00  0.00     0.149 C 
BRANCH  16  17
HETATM   17  C   UNL     1      41.136  -9.847  -1.577  1.00  0.00     0.186 C 
BRANCH  17  18
HETATM   18  O   UNL     1      42.448  -9.524  -1.105  1.00  0.00    -0.394 OA
HETATM   19  C   UNL     1      42.825  -8.205  -1.478  1.00  0.00     0.201 C 
ENDBRANCH  17  18
ENDBRANCH  16  17
ENDBRANCH  13  16
ENDBRANCH   1  12
BRANCH   8  20
HETATM   20  C   UNL     1      42.720 -17.044   2.790  1.00  0.00     0.409 C 
HETATM   21  F   UNL     1      43.574 -16.887   1.754  1.00  0.00    -0.169 F 
HETATM   22  F   UNL     1      43.217 -17.994   3.609  1.00  0.00    -0.169 F 
HETATM   23  F   UNL     1      41.571 -17.555   2.270  1.00  0.00    -0.169 F 
ENDBRANCH   8  20
BRANCH   6  24
HETATM   24  C   UNL     1      42.209 -13.686   5.917  1.00  0.00    -0.035 A 
HETATM   25  C   UNL     1      41.869 -12.319   5.918  1.00  0.00     0.011 A 
HETATM   26  C   UNL     1      42.784 -11.340   6.318  1.00  0.00     0.024 A 
HETATM   27  C   UNL     1      44.056 -11.712   6.738  1.00  0.00     0.034 A 
HETATM   28 CL   UNL     1      45.185 -10.512   7.230  1.00  0.00    -0.084 Cl
HETATM   29  C   UNL     1      44.413 -13.055   6.771  1.00  0.00     0.024 A 
HETATM   30  C   UNL     1      43.493 -14.034   6.376  1.00  0.00     0.011 A 
ENDBRANCH   6  24
TORSDOF 6
ENDMDL
MODEL 5
REMARK VINA RESULT:      -7.0      3.752      7.756
REMARK  6 active torsions:
REMARK  status: ('A' for Active; 'I' for Inactive)
REMARK    1  A    between atoms: O_2  and  C_3 
REMARK    2  A    between atoms: C_3  and  C_4 
REMARK    3  A    between atoms: C_4  and  N_5 
REMARK       I    between atoms: N_5  and  C_6 
REMARK    4  A    between atoms: C_6  and  C_7 
REMARK    5  A    between atoms: C_12  and  C_13 
REMARK    6  A    between atoms: C_21  and  C_22 
ROOT
HETATM    1  C   UNL     1      42.280 -12.091   5.889  1.00  0.00     0.170 A 
HETATM    2  N   UNL     1      41.293 -13.019   5.940  1.00  0.00    -0.163 NA
HETATM    3  N   UNL     1      41.680 -13.954   5.058  1.00  0.00    -0.238 N 
HETATM    4  C   UNL     1      42.813 -13.622   4.365  1.00  0.00     0.145 A 
HETATM    5  N   UNL     1      43.278 -14.420   3.367  1.00  0.00    -0.365 N 
HETATM    6  C   UNL     1      42.388 -15.404   2.743  1.00  0.00     0.118 C 
HETATM    7  C   UNL     1      41.649 -16.121   3.888  1.00  0.00     0.066 C 
HETATM    8  C   UNL     1      40.869 -15.126   4.773  1.00  0.00     0.221 C 
HETATM    9  C   UNL     1      43.250 -12.436   4.906  1.00  0.00     0.115 A 
HETATM   10 CL   UNL     1      44.634 -11.566   4.451  1.00  0.00    -0.077 Cl
HETATM   11  H   UNL     1      44.055 -14.100   2.789  1.00  0.00     0.162 HD
ENDROOT
BRANCH   1  12
HETATM   12  C   UNL     1      42.248 -10.908   6.763  1.00  0.00     0.273 C 
HETATM   13  N   UNL     1      43.245 -10.908   7.716  1.00  0.00    -0.353 N 
HETATM   14  H   UNL     1      43.782 -11.769   7.796  1.00  0.00     0.162 HD
HETATM   15  O   UNL     1      41.418 -10.010   6.671  1.00  0.00    -0.266 OA
BRANCH  13  16
HETATM   16  C   UNL     1      43.329  -9.911   8.762  1.00  0.00     0.149 C 
BRANCH  16  17
HETATM   17  C   UNL     1      44.636  -9.998   9.552  1.00  0.00     0.186 C 
BRANCH  17  18
HETATM   18  O   UNL     1      44.475 -10.931  10.627  1.00  0.00    -0.394 OA
HETATM   19  C   UNL     1      43.441 -10.526  11.516  1.00  0.00     0.201 C 
ENDBRANCH  17  18
ENDBRANCH  16  17
ENDBRANCH  13  16
ENDBRANCH   1  12
BRANCH   8  20
HETATM   20  C   UNL     1      40.425 -15.822   6.042  1.00  0.00     0.409 C 
HETATM   21  F   UNL     1      39.705 -16.939   5.792  1.00  0.00    -0.169 F 
HETATM   22  F   UNL     1      41.444 -16.149   6.862  1.00  0.00    -0.169 F 
HETATM   23  F   UNL     1      39.615 -14.993   6.756  1.00  0.00    -0.169 F 
ENDBRANCH   8  20
BRANCH   6  24
HETATM   24  C   UNL     1      41.489 -14.786   1.671  1.00  0.00    -0.035 A 
HETATM   25  C   UNL     1      41.656 -13.456   1.239  1.00  0.00     0.011 A 
HETATM   26  C   UNL     1      40.851 -12.908   0.235  1.00  0.00     0.024 A 
HETATM   27  C   UNL     1      39.869 -13.687  -0.366  1.00  0.00     0.034 A 
HETATM   28 CL   UNL     1      38.876 -13.018  -1.600  1.00  0.00    -0.084 Cl
HETATM   29  C   UNL     1      39.696 -15.011   0.021  1.00  0.00     0.024 A 
HETATM   30  C   UNL     1      40.508 -15.559   1.022  1.00  0.00     0.011 A 
ENDBRANCH   6  24
TORSDOF 6
ENDMDL
MODEL 6
REMARK VINA RESULT:      -6.8      3.951      6.925
REMARK  6 active torsions:
REMARK  status: ('A' for Active; 'I' for Inactive)
REMARK    1  A    between atoms: O_2  and  C_3 
REMARK    2  A    between atoms: C_3  and  C_4 
REMARK    3  A    between atoms: C_4  and  N_5 
REMARK       I    between atoms: N_5  and  C_6 
REMARK    4  A    between atoms: C_6  and  C_7 
REMARK    5  A    between atoms: C_12  and  C_13 
REMARK    6  A    between atoms: C_21  and  C_22 
ROOT
HETATM    1  C   UNL     1      41.266 -11.117   4.463  1.00  0.00     0.170 A 
HETATM    2  N   UNL     1      41.692 -11.358   3.198  1.00  0.00    -0.163 NA
HETATM    3  N   UNL     1      41.018 -12.460   2.833  1.00  0.00    -0.238 N 
HETATM    4  C   UNL     1      40.260 -13.000   3.837  1.00  0.00     0.145 A 
HETATM    5  N   UNL     1      39.596 -14.172   3.654  1.00  0.00    -0.365 N 
HETATM    6  C   UNL     1      39.988 -15.073   2.567  1.00  0.00     0.118 C 
HETATM    7  C   UNL     1      40.168 -14.200   1.311  1.00  0.00     0.066 C 
HETATM    8  C   UNL     1      41.214 -13.087   1.537  1.00  0.00     0.221 C 
HETATM    9  C   UNL     1      40.369 -12.132   4.898  1.00  0.00     0.115 A 
HETATM   10 CL   UNL     1      39.616 -12.285   6.411  1.00  0.00    -0.077 Cl
HETATM   11  H   UNL     1      39.131 -14.615   4.447  1.00  0.00     0.162 HD
ENDROOT
BRANCH   1  12
HETATM   12  C   UNL     1      41.746  -9.943   5.208  1.00  0.00     0.273 C 
HETATM   13  N   UNL     1      42.339 -10.266   6.411  1.00  0.00    -0.353 N 
HETATM   14  H   UNL     1      42.250 -11.236   6.703  1.00  0.00     0.162 HD
HETATM   15  O   UNL     1      41.627  -8.786   4.816  1.00  0.00    -0.266 OA
BRANCH  13  16
HETATM   16  C   UNL     1      42.769  -9.266   7.366  1.00  0.00     0.149 C 
BRANCH  16  17
HETATM   17  C   UNL     1      43.597  -9.861   8.505  1.00  0.00     0.186 C 
BRANCH  17  18
HETATM   18  O   UNL     1      44.284 -11.024   8.031  1.00  0.00    -0.394 OA
HETATM   19  C   UNL     1      45.669 -10.767   7.836  1.00  0.00     0.201 C 
ENDBRANCH  17  18
ENDBRANCH  16  17
ENDBRANCH  13  16
ENDBRANCH   1  12
BRANCH   8  20
HETATM   20  C   UNL     1      41.131 -12.082   0.409  1.00  0.00     0.409 C 
HETATM   21  F   UNL     1      42.042 -11.091   0.533  1.00  0.00    -0.169 F 
HETATM   22  F   UNL     1      41.268 -12.633  -0.815  1.00  0.00    -0.169 F 
HETATM   23  F   UNL     1      39.908 -11.485   0.420  1.00  0.00    -0.169 F 
ENDBRANCH   8  20
BRANCH   6  24
HETATM   24  C   UNL     1      41.189 -15.947   2.932  1.00  0.00    -0.035 A 
HETATM   25  C   UNL     1      41.607 -16.113   4.267  1.00  0.00     0.011 A 
HETATM   26  C   UNL     1      42.686 -16.940   4.596  1.00  0.00     0.024 A 
HETATM   27  C   UNL     1      43.361 -17.627   3.595  1.00  0.00     0.034 A 
HETATM   28 CL   UNL     1      44.689 -18.644   3.994  1.00  0.00    -0.084 Cl
HETATM   29  C   UNL     1      42.957 -17.504   2.271  1.00  0.00     0.024 A 
HETATM   30  C   UNL     1      41.872 -16.681   1.944  1.00  0.00     0.011 A 
ENDBRANCH   6  24
TORSDOF 6
ENDMDL
MODEL 7
REMARK VINA RESULT:      -6.7      7.596      9.581
REMARK  6 active torsions:
REMARK  status: ('A' for Active; 'I' for Inactive)
REMARK    1  A    between atoms: O_2  and  C_3 
REMARK    2  A    between atoms: C_3  and  C_4 
REMARK    3  A    between atoms: C_4  and  N_5 
REMARK       I    between atoms: N_5  and  C_6 
REMARK    4  A    between atoms: C_6  and  C_7 
REMARK    5  A    between atoms: C_12  and  C_13 
REMARK    6  A    between atoms: C_21  and  C_22 
ROOT
HETATM    1  C   UNL     1      40.327  -8.256   8.731  1.00  0.00     0.170 A 
HETATM    2  N   UNL     1      41.590  -7.773   8.837  1.00  0.00    -0.163 NA
HETATM    3  N   UNL     1      42.172  -8.583   9.735  1.00  0.00    -0.238 N 
HETATM    4  C   UNL     1      41.317  -9.497  10.290  1.00  0.00     0.145 A 
HETATM    5  N   UNL     1      41.732 -10.323  11.287  1.00  0.00    -0.365 N 
HETATM    6  C   UNL     1      42.934  -9.993  12.057  1.00  0.00     0.118 C 
HETATM    7  C   UNL     1      44.012  -9.574  11.040  1.00  0.00     0.066 C 
HETATM    8  C   UNL     1      43.544  -8.385  10.173  1.00  0.00     0.221 C 
HETATM    9  C   UNL     1      40.119  -9.336   9.633  1.00  0.00     0.115 A 
HETATM   10 CL   UNL     1      38.697 -10.224   9.893  1.00  0.00    -0.077 Cl
HETATM   11  H   UNL     1      41.052 -10.915  11.763  1.00  0.00     0.162 HD
ENDROOT
BRANCH   1  12
HETATM   12  C   UNL     1      39.368  -7.657   7.789  1.00  0.00     0.273 C 
HETATM   13  N   UNL     1      39.830  -7.621   6.490  1.00  0.00    -0.353 N 
HETATM   14  H   UNL     1      40.808  -7.872   6.360  1.00  0.00     0.162 HD
HETATM   15  O   UNL     1      38.269  -7.220   8.115  1.00  0.00    -0.266 OA
BRANCH  13  16
HETATM   16  C   UNL     1      39.111  -6.963   5.421  1.00  0.00     0.149 C 
BRANCH  16  17
HETATM   17  C   UNL     1      38.675  -7.933   4.322  1.00  0.00     0.186 C 
BRANCH  17  18
HETATM   18  O   UNL     1      38.266  -9.169   4.920  1.00  0.00    -0.394 OA
HETATM   19  C   UNL     1      38.772 -10.286   4.202  1.00  0.00     0.201 C 
ENDBRANCH  17  18
ENDBRANCH  16  17
ENDBRANCH  13  16
ENDBRANCH   1  12
BRANCH   8  20
HETATM   20  C   UNL     1      44.488  -8.215   9.002  1.00  0.00     0.409 C 
HETATM   21  F   UNL     1      45.724  -8.698   9.261  1.00  0.00    -0.169 F 
HETATM   22  F   UNL     1      44.041  -8.782   7.862  1.00  0.00    -0.169 F 
HETATM   23  F   UNL     1      44.640  -6.889   8.731  1.00  0.00    -0.169 F 
ENDBRANCH   8  20
BRANCH   6  24
HETATM   24  C   UNL     1      42.659  -8.981  13.171  1.00  0.00    -0.035 A 
HETATM   25  C   UNL     1      43.433  -7.813  13.320  1.00  0.00     0.011 A 
HETATM   26  C   UNL     1      43.155  -6.877  14.321  1.00  0.00     0.024 A 
HETATM   27  C   UNL     1      42.088  -7.086  15.187  1.00  0.00     0.034 A 
HETATM   28 CL   UNL     1      41.743  -5.939  16.420  1.00  0.00    -0.084 Cl
HETATM   29  C   UNL     1      41.291  -8.217  15.050  1.00  0.00     0.024 A 
HETATM   30  C   UNL     1      41.567  -9.149  14.042  1.00  0.00     0.011 A 
ENDBRANCH   6  24
TORSDOF 6
ENDMDL
MODEL 8
REMARK VINA RESULT:      -6.6     16.278     18.316
REMARK  6 active torsions:
REMARK  status: ('A' for Active; 'I' for Inactive)
REMARK    1  A    between atoms: O_2  and  C_3 
REMARK    2  A    between atoms: C_3  and  C_4 
REMARK    3  A    between atoms: C_4  and  N_5 
REMARK       I    between atoms: N_5  and  C_6 
REMARK    4  A    between atoms: C_6  and  C_7 
REMARK    5  A    between atoms: C_12  and  C_13 
REMARK    6  A    between atoms: C_21  and  C_22 
ROOT
HETATM    1  C   UNL     1      44.099 -30.818   1.900  1.00  0.00     0.170 A 
HETATM    2  N   UNL     1      45.352 -31.119   1.477  1.00  0.00    -0.163 NA
HETATM    3  N   UNL     1      45.677 -30.096   0.671  1.00  0.00    -0.238 N 
HETATM    4  C   UNL     1      44.656 -29.206   0.471  1.00  0.00     0.145 A 
HETATM    5  N   UNL     1      44.796 -28.169  -0.397  1.00  0.00    -0.365 N 
HETATM    6  C   UNL     1      45.846 -28.208  -1.419  1.00  0.00     0.118 C 
HETATM    7  C   UNL     1      47.134 -28.672  -0.713  1.00  0.00     0.066 C 
HETATM    8  C   UNL     1      46.947 -30.045  -0.034  1.00  0.00     0.221 C 
HETATM    9  C   UNL     1      43.629 -29.625   1.284  1.00  0.00     0.115 A 
HETATM   10 CL   UNL     1      42.115 -28.882   1.464  1.00  0.00    -0.077 Cl
HETATM   11  H   UNL     1      43.989 -27.586  -0.617  1.00  0.00     0.162 HD
ENDROOT
BRANCH   1  12
HETATM   12  C   UNL     1      43.399 -31.689   2.857  1.00  0.00     0.273 C 
HETATM   13  N   UNL     1      43.492 -31.250   4.161  1.00  0.00    -0.353 N 
HETATM   14  H   UNL     1      44.136 -30.480   4.325  1.00  0.00     0.162 HD
HETATM   15  O   UNL     1      42.796 -32.710   2.541  1.00  0.00    -0.266 OA
BRANCH  13  16
HETATM   16  C   UNL     1      42.988 -32.015   5.282  1.00  0.00     0.149 C 
BRANCH  16  17
HETATM   17  C   UNL     1      41.632 -31.509   5.776  1.00  0.00     0.186 C 
BRANCH  17  18
HETATM   18  O   UNL     1      41.700 -31.281   7.188  1.00  0.00    -0.394 OA
HETATM   19  C   UNL     1      42.930 -31.743   7.731  1.00  0.00     0.201 C 
ENDBRANCH  17  18
ENDBRANCH  16  17
ENDBRANCH  13  16
ENDBRANCH   1  12
BRANCH   8  20
HETATM   20  C   UNL     1      48.114 -30.311   0.893  1.00  0.00     0.409 C 
HETATM   21  F   UNL     1      47.949 -29.741   2.107  1.00  0.00    -0.169 F 
HETATM   22  F   UNL     1      48.372 -31.623   1.072  1.00  0.00    -0.169 F 
HETATM   23  F   UNL     1      49.246 -29.772   0.364  1.00  0.00    -0.169 F 
ENDBRANCH   8  20
BRANCH   6  24
HETATM   24  C   UNL     1      45.442 -29.027  -2.646  1.00  0.00    -0.035 A 
HETATM   25  C   UNL     1      46.328 -29.940  -3.253  1.00  0.00     0.011 A 
HETATM   26  C   UNL     1      45.940 -30.708  -4.355  1.00  0.00     0.024 A 
HETATM   27  C   UNL     1      44.653 -30.587  -4.865  1.00  0.00     0.034 A 
HETATM   28 CL   UNL     1      44.172 -31.528  -6.222  1.00  0.00    -0.084 Cl
HETATM   29  C   UNL     1      43.749 -29.712  -4.273  1.00  0.00     0.024 A 
HETATM   30  C   UNL     1      44.136 -28.949  -3.165  1.00  0.00     0.011 A 
ENDBRANCH   6  24
TORSDOF 6
ENDMDL
MODEL 9
REMARK VINA RESULT:      -6.5      8.384      9.819
REMARK  6 active torsions:
REMARK  status: ('A' for Active; 'I' for Inactive)
REMARK    1  A    between atoms: O_2  and  C_3 
REMARK    2  A    between atoms: C_3  and  C_4 
REMARK    3  A    between atoms: C_4  and  N_5 
REMARK       I    between atoms: N_5  and  C_6 
REMARK    4  A    between atoms: C_6  and  C_7 
REMARK    5  A    between atoms: C_12  and  C_13 
REMARK    6  A    between atoms: C_21  and  C_22 
ROOT
HETATM    1  C   UNL     1      40.873  -8.188   8.395  1.00  0.00     0.170 A 
HETATM    2  N   UNL     1      42.175  -7.898   8.639  1.00  0.00    -0.163 NA
HETATM    3  N   UNL     1      42.520  -8.751   9.616  1.00  0.00    -0.238 N 
HETATM    4  C   UNL     1      41.477  -9.501  10.088  1.00  0.00     0.145 A 
HETATM    5  N   UNL     1      41.643 -10.339  11.145  1.00  0.00    -0.365 N 
HETATM    6  C   UNL     1      42.788 -10.164  12.043  1.00  0.00     0.118 C 
HETATM    7  C   UNL     1      44.025  -9.955  11.150  1.00  0.00     0.066 C 
HETATM    8  C   UNL     1      43.848  -8.745  10.208  1.00  0.00     0.221 C 
HETATM    9  C   UNL     1      40.400  -9.188   9.291  1.00  0.00     0.115 A 
HETATM   10 CL   UNL     1      38.837  -9.839   9.403  1.00  0.00    -0.077 Cl
HETATM   11  H   UNL     1      40.831 -10.802  11.552  1.00  0.00     0.162 HD
ENDROOT
BRANCH   1  12
HETATM   12  C   UNL     1      40.131  -7.489   7.335  1.00  0.00     0.273 C 
HETATM   13  N   UNL     1      40.893  -7.236   6.213  1.00  0.00    -0.353 N 
HETATM   14  H   UNL     1      41.889  -7.425   6.302  1.00  0.00     0.162 HD
HETATM   15  O   UNL     1      38.955  -7.151   7.428  1.00  0.00    -0.266 OA
BRANCH  13  16
HETATM   16  C   UNL     1      40.409  -6.450   5.099  1.00  0.00     0.149 C 
BRANCH  16  17
HETATM   17  C   UNL     1      40.956  -5.021   5.107  1.00  0.00     0.186 C 
BRANCH  17  18
HETATM   18  O   UNL     1      42.386  -5.064   5.054  1.00  0.00    -0.394 OA
HETATM   19  C   UNL     1      42.896  -4.186   4.059  1.00  0.00     0.201 C 
ENDBRANCH  17  18
ENDBRANCH  16  17
ENDBRANCH  13  16
ENDBRANCH   1  12
BRANCH   8  20
HETATM   20  C   UNL     1      44.933  -8.767   9.153  1.00  0.00     0.409 C 
HETATM   21  F   UNL     1      46.130  -9.149   9.651  1.00  0.00    -0.169 F 
HETATM   22  F   UNL     1      44.641  -9.554   8.097  1.00  0.00    -0.169 F 
HETATM   23  F   UNL     1      45.105  -7.512   8.653  1.00  0.00    -0.169 F 
ENDBRANCH   8  20
BRANCH   6  24
HETATM   24  C   UNL     1      42.550  -9.078  13.094  1.00  0.00    -0.035 A 
HETATM   25  C   UNL     1      41.543  -9.201  14.072  1.00  0.00     0.011 A 
HETATM   26  C   UNL     1      41.352  -8.218  15.049  1.00  0.00     0.024 A 
HETATM   27  C   UNL     1      42.174  -7.098  15.074  1.00  0.00     0.034 A 
HETATM   28 CL   UNL     1      41.943  -5.887  16.272  1.00  0.00    -0.084 Cl
HETATM   29  C   UNL     1      43.193  -6.961  14.138  1.00  0.00     0.024 A 
HETATM   30  C   UNL     1      43.387  -7.948  13.164  1.00  0.00     0.011 A 
ENDBRANCH   6  24
TORSDOF 6
ENDMDL
MODEL 10
REMARK VINA RESULT:      -6.5      6.794     10.046
REMARK  6 active torsions:
REMARK  status: ('A' for Active; 'I' for Inactive)
REMARK    1  A    between atoms: O_2  and  C_3 
REMARK    2  A    between atoms: C_3  and  C_4 
REMARK    3  A    between atoms: C_4  and  N_5 
REMARK       I    between atoms: N_5  and  C_6 
REMARK    4  A    between atoms: C_6  and  C_7 
REMARK    5  A    between atoms: C_12  and  C_13 
REMARK    6  A    between atoms: C_21  and  C_22 
ROOT
HETATM    1  C   UNL     1      41.727  -8.837   9.707  1.00  0.00     0.170 A 
HETATM    2  N   UNL     1      42.835  -9.619   9.722  1.00  0.00    -0.163 NA
HETATM    3  N   UNL     1      43.039  -9.918   8.430  1.00  0.00    -0.238 N 
HETATM    4  C   UNL     1      42.057  -9.456   7.595  1.00  0.00     0.145 A 
HETATM    5  N   UNL     1      42.069  -9.762   6.271  1.00  0.00    -0.365 N 
HETATM    6  C   UNL     1      42.865 -10.894   5.789  1.00  0.00     0.118 C 
HETATM    7  C   UNL     1      44.245 -10.785   6.465  1.00  0.00     0.066 C 
HETATM    8  C   UNL     1      44.125 -10.785   8.004  1.00  0.00     0.221 C 
HETATM    9  C   UNL     1      41.209  -8.718   8.387  1.00  0.00     0.115 A 
HETATM   10 CL   UNL     1      39.820  -7.886   7.879  1.00  0.00    -0.077 Cl
HETATM   11  H   UNL     1      41.271  -9.505   5.689  1.00  0.00     0.162 HD
ENDROOT
BRANCH   1  12
HETATM   12  C   UNL     1      41.199  -8.254  10.950  1.00  0.00     0.273 C 
HETATM   13  N   UNL     1      40.863  -9.199  11.895  1.00  0.00    -0.353 N 
HETATM   14  H   UNL     1      40.881 -10.167  11.581  1.00  0.00     0.162 HD
HETATM   15  O   UNL     1      41.058  -7.049  11.136  1.00  0.00    -0.266 OA
BRANCH  13  16
HETATM   16  C   UNL     1      40.208  -8.863  13.142  1.00  0.00     0.149 C 
BRANCH  16  17
HETATM   17  C   UNL     1      41.180  -8.811  14.321  1.00  0.00     0.186 C 
BRANCH  17  18
HETATM   18  O   UNL     1      40.947  -7.614  15.072  1.00  0.00    -0.394 OA
HETATM   19  C   UNL     1      39.938  -6.812  14.471  1.00  0.00     0.201 C 
ENDBRANCH  17  18
ENDBRANCH  16  17
ENDBRANCH  13  16
ENDBRANCH   1  12
BRANCH   8  20
HETATM   20  C   UNL     1      45.447 -10.368   8.611  1.00  0.00     0.409 C 
HETATM   21  F   UNL     1      45.668  -9.039   8.505  1.00  0.00    -0.169 F 
HETATM   22  F   UNL     1      45.579 -10.718   9.907  1.00  0.00    -0.169 F 
HETATM   23  F   UNL     1      46.465 -10.983   7.948  1.00  0.00    -0.169 F 
ENDBRANCH   8  20
BRANCH   6  24
HETATM   24  C   UNL     1      42.152 -12.235   5.971  1.00  0.00    -0.035 A 
HETATM   25  C   UNL     1      40.748 -12.341   5.925  1.00  0.00     0.011 A 
HETATM   26  C   UNL     1      40.105 -13.575   6.061  1.00  0.00     0.024 A 
HETATM   27  C   UNL     1      40.856 -14.731   6.233  1.00  0.00     0.034 A 
HETATM   28 CL   UNL     1      40.070 -16.251   6.402  1.00  0.00    -0.084 Cl
HETATM   29  C   UNL     1      42.244 -14.663   6.259  1.00  0.00     0.024 A 
HETATM   30  C   UNL     1      42.887 -13.427   6.116  1.00  0.00     0.011 A 
ENDBRANCH   6  24
TORSDOF 6
ENDMDL
