MODEL 1
REMARK VINA RESULT:      -8.2      0.000      0.000
REMARK  8 active torsions:
REMARK  status: ('A' for Active; 'I' for Inactive)
REMARK    1  A    between atoms: N_3  and  C_4 
REMARK    2  A    between atoms: C_4  and  C_5 
REMARK    3  A    between atoms: C_5  and  O_6 
REMARK    4  A    between atoms: C_11  and  C_12 
REMARK    5  A    between atoms: C_13  and  C_14 
REMARK    6  A    between atoms: C_22  and  C_23 
REMARK       I    between atoms: C_23  and  N_24 
REMARK    7  A    between atoms: N_24  and  C_25 
REMARK    8  A    between atoms: C_26  and  O_27 
ROOT
HETATM    1  C   UNL     1      43.193 -14.854   7.100  1.00  0.00     0.069 C 
HETATM    2  C   UNL     1      43.272 -14.035   5.832  1.00  0.00     0.026 C 
HETATM    3  N   UNL     1      43.785 -12.729   5.871  1.00  0.00    -0.301 N 
HETATM    4  C   UNL     1      43.972 -11.965   4.714  1.00  0.00     0.323 C 
HETATM    5  O   UNL     1      44.442 -10.829   4.683  1.00  0.00    -0.247 OA
HETATM    6  N   UNL     1      43.607 -12.542   3.536  1.00  0.00    -0.330 N 
HETATM    7  C   UNL     1      42.733 -13.682   3.415  1.00  0.00     0.161 C 
HETATM    8  C   UNL     1      42.829 -14.514   4.650  1.00  0.00     0.059 C 
HETATM    9  H   UNL     1      43.708 -11.926   2.742  1.00  0.00     0.165 HD
ENDROOT
BRANCH   8  10
HETATM   10  C   UNL     1      42.452 -15.942   4.483  1.00  0.00     0.256 C 
HETATM   11  N   UNL     1      43.428 -16.636   3.794  1.00  0.00    -0.321 N 
HETATM   12  H   UNL     1      44.099 -16.077   3.282  1.00  0.00     0.169 HD
HETATM   13  O   UNL     1      41.345 -16.332   4.825  1.00  0.00    -0.267 OA
BRANCH  11  14
HETATM   14  C   UNL     1      43.507 -18.032   3.595  1.00  0.00     0.068 A 
HETATM   15  C   UNL     1      43.861 -18.964   4.583  1.00  0.00     0.095 A 
HETATM   16  C   UNL     1      43.944 -20.325   4.262  1.00  0.00     0.039 A 
HETATM   17  C   UNL     1      43.666 -20.767   2.968  1.00  0.00     0.003 A 
HETATM   18  C   UNL     1      43.336 -19.846   1.980  1.00  0.00     0.002 A 
HETATM   19  C   UNL     1      43.271 -18.485   2.288  1.00  0.00     0.032 A 
BRANCH  15  20
HETATM   20  O   UNL     1      44.317 -18.527   5.801  1.00  0.00    -0.354 OA
HETATM   21  C   UNL     1      43.324 -18.626   6.821  1.00  0.00     0.210 C 
ENDBRANCH  15  20
ENDBRANCH  11  14
ENDBRANCH   8  10
BRANCH   7  22
HETATM   22  C   UNL     1      41.316 -13.219   3.069  1.00  0.00    -0.016 A 
HETATM   23  C   UNL     1      40.558 -13.821   2.033  1.00  0.00     0.056 A 
HETATM   24  C   UNL     1      39.260 -13.344   1.761  1.00  0.00     0.017 A 
HETATM   25  C   UNL     1      38.714 -12.286   2.486  1.00  0.00     0.001 A 
HETATM   26  C   UNL     1      39.457 -11.684   3.493  1.00  0.00     0.001 A 
HETATM   27  C   UNL     1      40.741 -12.143   3.781  1.00  0.00     0.010 A 
BRANCH  23  28
HETATM   28  C   UNL     1      41.109 -14.949   1.188  1.00  0.00     0.418 C 
HETATM   29  F   UNL     1      40.630 -14.907  -0.088  1.00  0.00    -0.166 F 
HETATM   30  F   UNL     1      42.464 -14.924   1.075  1.00  0.00    -0.166 F 
HETATM   31  F   UNL     1      40.798 -16.192   1.653  1.00  0.00    -0.166 F 
ENDBRANCH  23  28
ENDBRANCH   7  22
BRANCH   3  32
HETATM   32  C   UNL     1      44.275 -12.122   7.120  1.00  0.00     0.160 C 
BRANCH  32  33
HETATM   33  C   UNL     1      43.433 -10.942   7.630  1.00  0.00     0.187 C 
BRANCH  33  34
HETATM   34  O   UNL     1      44.256  -9.822   7.950  1.00  0.00    -0.394 OA
HETATM   35  C   UNL     1      45.634 -10.171   7.979  1.00  0.00     0.201 C 
ENDBRANCH  33  34
ENDBRANCH  32  33
ENDBRANCH   3  32
TORSDOF 8
ENDMDL
MODEL 2
REMARK VINA RESULT:      -7.9      3.169      6.123
REMARK  8 active torsions:
REMARK  status: ('A' for Active; 'I' for Inactive)
REMARK    1  A    between atoms: N_3  and  C_4 
REMARK    2  A    between atoms: C_4  and  C_5 
REMARK    3  A    between atoms: C_5  and  O_6 
REMARK    4  A    between atoms: C_11  and  C_12 
REMARK    5  A    between atoms: C_13  and  C_14 
REMARK    6  A    between atoms: C_22  and  C_23 
REMARK       I    between atoms: C_23  and  N_24 
REMARK    7  A    between atoms: N_24  and  C_25 
REMARK    8  A    between atoms: C_26  and  O_27 
ROOT
HETATM    1  C   UNL     1      41.976 -10.665   3.420  1.00  0.00     0.069 C 
HETATM    2  C   UNL     1      41.388 -11.923   4.018  1.00  0.00     0.026 C 
HETATM    3  N   UNL     1      40.811 -11.889   5.297  1.00  0.00    -0.301 N 
HETATM    4  C   UNL     1      40.166 -12.997   5.855  1.00  0.00     0.323 C 
HETATM    5  O   UNL     1      39.619 -13.018   6.956  1.00  0.00    -0.247 OA
HETATM    6  N   UNL     1      40.143 -14.133   5.103  1.00  0.00    -0.330 N 
HETATM    7  C   UNL     1      41.014 -14.395   3.985  1.00  0.00     0.161 C 
HETATM    8  C   UNL     1      41.428 -13.104   3.364  1.00  0.00     0.059 C 
HETATM    9  H   UNL     1      39.718 -14.916   5.578  1.00  0.00     0.165 HD
ENDROOT
BRANCH   8  10
HETATM   10  C   UNL     1      41.844 -13.190   1.940  1.00  0.00     0.256 C 
HETATM   11  N   UNL     1      40.756 -13.074   1.097  1.00  0.00    -0.321 N 
HETATM   12  H   UNL     1      39.845 -13.214   1.517  1.00  0.00     0.169 HD
HETATM   13  O   UNL     1      43.000 -13.462   1.649  1.00  0.00    -0.267 OA
BRANCH  11  14
HETATM   14  C   UNL     1      40.772 -12.937  -0.308  1.00  0.00     0.068 A 
HETATM   15  C   UNL     1      41.202 -11.791  -0.997  1.00  0.00     0.095 A 
HETATM   16  C   UNL     1      41.138 -11.752  -2.396  1.00  0.00     0.039 A 
HETATM   17  C   UNL     1      40.661 -12.848  -3.115  1.00  0.00     0.003 A 
HETATM   18  C   UNL     1      40.213 -13.977  -2.438  1.00  0.00     0.002 A 
HETATM   19  C   UNL     1      40.255 -14.015  -1.042  1.00  0.00     0.032 A 
BRANCH  15  20
HETATM   20  O   UNL     1      41.493 -10.646  -0.301  1.00  0.00    -0.354 OA
HETATM   21  C   UNL     1      41.819  -9.554  -1.162  1.00  0.00     0.210 C 
ENDBRANCH  15  20
ENDBRANCH  11  14
ENDBRANCH   8  10
BRANCH   7  22
HETATM   22  C   UNL     1      42.175 -15.290   4.426  1.00  0.00    -0.016 A 
HETATM   23  C   UNL     1      42.576 -16.427   3.681  1.00  0.00     0.056 A 
HETATM   24  C   UNL     1      43.650 -17.213   4.146  1.00  0.00     0.017 A 
HETATM   25  C   UNL     1      44.317 -16.897   5.327  1.00  0.00     0.001 A 
HETATM   26  C   UNL     1      43.919 -15.792   6.069  1.00  0.00     0.001 A 
HETATM   27  C   UNL     1      42.862 -14.999   5.625  1.00  0.00     0.010 A 
BRANCH  23  28
HETATM   28  C   UNL     1      41.869 -16.843   2.409  1.00  0.00     0.418 C 
HETATM   29  F   UNL     1      42.400 -16.231   1.311  1.00  0.00    -0.166 F 
HETATM   30  F   UNL     1      41.947 -18.177   2.161  1.00  0.00    -0.166 F 
HETATM   31  F   UNL     1      40.541 -16.538   2.389  1.00  0.00    -0.166 F 
ENDBRANCH  23  28
ENDBRANCH   7  22
BRANCH   3  32
HETATM   32  C   UNL     1      40.740 -10.647   6.085  1.00  0.00     0.160 C 
BRANCH  32  33
HETATM   33  C   UNL     1      39.447  -9.840   5.889  1.00  0.00     0.187 C 
BRANCH  33  34
HETATM   34  O   UNL     1      38.668  -9.818   7.084  1.00  0.00    -0.394 OA
HETATM   35  C   UNL     1      39.471  -9.594   8.235  1.00  0.00     0.201 C 
ENDBRANCH  33  34
ENDBRANCH  32  33
ENDBRANCH   3  32
TORSDOF 8
ENDMDL
MODEL 3
REMARK VINA RESULT:      -7.9      3.112      5.378
REMARK  8 active torsions:
REMARK  status: ('A' for Active; 'I' for Inactive)
REMARK    1  A    between atoms: N_3  and  C_4 
REMARK    2  A    between atoms: C_4  and  C_5 
REMARK    3  A    between atoms: C_5  and  O_6 
REMARK    4  A    between atoms: C_11  and  C_12 
REMARK    5  A    between atoms: C_13  and  C_14 
REMARK    6  A    between atoms: C_22  and  C_23 
REMARK       I    between atoms: C_23  and  N_24 
REMARK    7  A    between atoms: N_24  and  C_25 
REMARK    8  A    between atoms: C_26  and  O_27 
ROOT
HETATM    1  C   UNL     1      40.205 -14.720  -0.224  1.00  0.00     0.069 C 
HETATM    2  C   UNL     1      39.952 -13.829   0.970  1.00  0.00     0.026 C 
HETATM    3  N   UNL     1      39.473 -12.523   0.782  1.00  0.00    -0.301 N 
HETATM    4  C   UNL     1      39.129 -11.692   1.855  1.00  0.00     0.323 C 
HETATM    5  O   UNL     1      38.679 -10.553   1.752  1.00  0.00    -0.247 OA
HETATM    6  N   UNL     1      39.306 -12.204   3.104  1.00  0.00    -0.330 N 
HETATM    7  C   UNL     1      40.133 -13.343   3.417  1.00  0.00     0.161 C 
HETATM    8  C   UNL     1      40.207 -14.243   2.230  1.00  0.00     0.059 C 
HETATM    9  H   UNL     1      39.098 -11.542   3.839  1.00  0.00     0.165 HD
ENDROOT
BRANCH   8  10
HETATM   10  C   UNL     1      40.531 -15.662   2.531  1.00  0.00     0.256 C 
HETATM   11  N   UNL     1      41.891 -15.890   2.447  1.00  0.00    -0.321 N 
HETATM   12  H   UNL     1      42.434 -15.189   1.958  1.00  0.00     0.169 HD
HETATM   13  O   UNL     1      39.635 -16.480   2.689  1.00  0.00    -0.267 OA
BRANCH  11  14
HETATM   14  C   UNL     1      42.589 -17.057   2.828  1.00  0.00     0.068 A 
HETATM   15  C   UNL     1      43.367 -17.183   3.989  1.00  0.00     0.095 A 
HETATM   16  C   UNL     1      44.048 -18.380   4.248  1.00  0.00     0.039 A 
HETATM   17  C   UNL     1      43.951 -19.455   3.366  1.00  0.00     0.003 A 
HETATM   18  C   UNL     1      43.199 -19.330   2.203  1.00  0.00     0.002 A 
HETATM   19  C   UNL     1      42.534 -18.132   1.929  1.00  0.00     0.032 A 
BRANCH  15  20
HETATM   20  O   UNL     1      43.622 -16.079   4.763  1.00  0.00    -0.354 OA
HETATM   21  C   UNL     1      44.246 -16.415   6.002  1.00  0.00     0.210 C 
ENDBRANCH  15  20
ENDBRANCH  11  14
ENDBRANCH   8  10
BRANCH   7  22
HETATM   22  C   UNL     1      41.491 -12.872   3.944  1.00  0.00    -0.016 A 
HETATM   23  C   UNL     1      41.973 -13.246   5.224  1.00  0.00     0.056 A 
HETATM   24  C   UNL     1      43.230 -12.774   5.652  1.00  0.00     0.017 A 
HETATM   25  C   UNL     1      44.001 -11.940   4.844  1.00  0.00     0.001 A 
HETATM   26  C   UNL     1      43.528 -11.561   3.595  1.00  0.00     0.001 A 
HETATM   27  C   UNL     1      42.289 -12.019   3.151  1.00  0.00     0.010 A 
BRANCH  23  28
HETATM   28  C   UNL     1      41.167 -14.119   6.161  1.00  0.00     0.418 C 
HETATM   29  F   UNL     1      40.071 -13.466   6.646  1.00  0.00    -0.166 F 
HETATM   30  F   UNL     1      40.692 -15.248   5.570  1.00  0.00    -0.166 F 
HETATM   31  F   UNL     1      41.858 -14.537   7.259  1.00  0.00    -0.166 F 
ENDBRANCH  23  28
ENDBRANCH   7  22
BRANCH   3  32
HETATM   32  C   UNL     1      39.184 -11.985  -0.558  1.00  0.00     0.160 C 
BRANCH  32  33
HETATM   33  C   UNL     1      40.263 -11.042  -1.113  1.00  0.00     0.187 C 
BRANCH  33  34
HETATM   34  O   UNL     1      41.323 -11.775  -1.723  1.00  0.00    -0.394 OA
HETATM   35  C   UNL     1      40.938 -12.316  -2.979  1.00  0.00     0.201 C 
ENDBRANCH  33  34
ENDBRANCH  32  33
ENDBRANCH   3  32
TORSDOF 8
ENDMDL
MODEL 4
REMARK VINA RESULT:      -7.6     15.251     16.942
REMARK  8 active torsions:
REMARK  status: ('A' for Active; 'I' for Inactive)
REMARK    1  A    between atoms: N_3  and  C_4 
REMARK    2  A    between atoms: C_4  and  C_5 
REMARK    3  A    between atoms: C_5  and  O_6 
REMARK    4  A    between atoms: C_11  and  C_12 
REMARK    5  A    between atoms: C_13  and  C_14 
REMARK    6  A    between atoms: C_22  and  C_23 
REMARK       I    between atoms: C_23  and  N_24 
REMARK    7  A    between atoms: N_24  and  C_25 
REMARK    8  A    between atoms: C_26  and  O_27 
ROOT
HETATM    1  C   UNL     1      45.824 -30.777   3.159  1.00  0.00     0.069 C 
HETATM    2  C   UNL     1      44.944 -30.147   2.104  1.00  0.00     0.026 C 
HETATM    3  N   UNL     1      43.552 -30.117   2.277  1.00  0.00    -0.301 N 
HETATM    4  C   UNL     1      42.702 -29.460   1.381  1.00  0.00     0.323 C 
HETATM    5  O   UNL     1      41.481 -29.375   1.495  1.00  0.00    -0.247 OA
HETATM    6  N   UNL     1      43.290 -28.866   0.305  1.00  0.00    -0.330 N 
HETATM    7  C   UNL     1      44.619 -29.159  -0.171  1.00  0.00     0.161 C 
HETATM    8  C   UNL     1      45.460 -29.634   0.966  1.00  0.00     0.059 C 
HETATM    9  H   UNL     1      42.626 -28.459  -0.338  1.00  0.00     0.165 HD
ENDROOT
BRANCH   8  10
HETATM   10  C   UNL     1      46.925 -29.454   0.789  1.00  0.00     0.256 C 
HETATM   11  N   UNL     1      47.499 -30.577   0.224  1.00  0.00    -0.321 N 
HETATM   12  H   UNL     1      46.947 -31.426   0.253  1.00  0.00     0.169 HD
HETATM   13  O   UNL     1      47.483 -28.463   1.236  1.00  0.00    -0.267 OA
BRANCH  11  14
HETATM   14  C   UNL     1      48.821 -30.716  -0.249  1.00  0.00     0.068 A 
HETATM   15  C   UNL     1      49.911 -31.138   0.529  1.00  0.00     0.095 A 
HETATM   16  C   UNL     1      51.191 -31.203  -0.038  1.00  0.00     0.039 A 
HETATM   17  C   UNL     1      51.392 -30.863  -1.376  1.00  0.00     0.003 A 
HETATM   18  C   UNL     1      50.320 -30.425  -2.146  1.00  0.00     0.002 A 
HETATM   19  C   UNL     1      49.046 -30.338  -1.581  1.00  0.00     0.032 A 
BRANCH  15  20
HETATM   20  O   UNL     1      49.763 -31.292   1.884  1.00  0.00    -0.354 OA
HETATM   21  C   UNL     1      50.315 -30.200   2.619  1.00  0.00     0.210 C 
ENDBRANCH  15  20
ENDBRANCH  11  14
ENDBRANCH   8  10
BRANCH   7  22
HETATM   22  C   UNL     1      44.547 -30.125  -1.356  1.00  0.00    -0.016 A 
HETATM   23  C   UNL     1      44.954 -29.749  -2.661  1.00  0.00     0.056 A 
HETATM   24  C   UNL     1      44.857 -30.686  -3.710  1.00  0.00     0.017 A 
HETATM   25  C   UNL     1      44.360 -31.968  -3.489  1.00  0.00     0.001 A 
HETATM   26  C   UNL     1      43.947 -32.338  -2.215  1.00  0.00     0.001 A 
HETATM   27  C   UNL     1      44.038 -31.428  -1.163  1.00  0.00     0.010 A 
BRANCH  23  28
HETATM   28  C   UNL     1      45.469 -28.360  -2.971  1.00  0.00     0.418 C 
HETATM   29  F   UNL     1      45.464 -28.106  -4.311  1.00  0.00    -0.166 F 
HETATM   30  F   UNL     1      44.726 -27.372  -2.405  1.00  0.00    -0.166 F 
HETATM   31  F   UNL     1      46.750 -28.142  -2.563  1.00  0.00    -0.166 F 
ENDBRANCH  23  28
ENDBRANCH   7  22
BRANCH   3  32
HETATM   32  C   UNL     1      42.905 -30.668   3.480  1.00  0.00     0.160 C 
BRANCH  32  33
HETATM   33  C   UNL     1      42.349 -32.090   3.310  1.00  0.00     0.187 C 
BRANCH  33  34
HETATM   34  O   UNL     1      40.925 -32.099   3.390  1.00  0.00    -0.394 OA
HETATM   35  C   UNL     1      40.451 -31.282   4.451  1.00  0.00     0.201 C 
ENDBRANCH  33  34
ENDBRANCH  32  33
ENDBRANCH   3  32
TORSDOF 8
ENDMDL
MODEL 5
REMARK VINA RESULT:      -7.5      3.032      7.115
REMARK  8 active torsions:
REMARK  status: ('A' for Active; 'I' for Inactive)
REMARK    1  A    between atoms: N_3  and  C_4 
REMARK    2  A    between atoms: C_4  and  C_5 
REMARK    3  A    between atoms: C_5  and  O_6 
REMARK    4  A    between atoms: C_11  and  C_12 
REMARK    5  A    between atoms: C_13  and  C_14 
REMARK    6  A    between atoms: C_22  and  C_23 
REMARK       I    between atoms: C_23  and  N_24 
REMARK    7  A    between atoms: N_24  and  C_25 
REMARK    8  A    between atoms: C_26  and  O_27 
ROOT
HETATM    1  C   UNL     1      44.072 -14.113   6.394  1.00  0.00     0.069 C 
HETATM    2  C   UNL     1      42.563 -14.110   6.312  1.00  0.00     0.026 C 
HETATM    3  N   UNL     1      41.852 -15.314   6.430  1.00  0.00    -0.301 N 
HETATM    4  C   UNL     1      40.453 -15.356   6.460  1.00  0.00     0.323 C 
HETATM    5  O   UNL     1      39.778 -16.375   6.590  1.00  0.00    -0.247 OA
HETATM    6  N   UNL     1      39.805 -14.164   6.342  1.00  0.00    -0.330 N 
HETATM    7  C   UNL     1      40.398 -12.952   5.835  1.00  0.00     0.161 C 
HETATM    8  C   UNL     1      41.868 -12.974   6.091  1.00  0.00     0.059 C 
HETATM    9  H   UNL     1      38.800 -14.260   6.310  1.00  0.00     0.165 HD
ENDROOT
BRANCH   8  10
HETATM   10  C   UNL     1      42.522 -11.640   6.144  1.00  0.00     0.256 C 
HETATM   11  N   UNL     1      42.415 -11.085   7.405  1.00  0.00    -0.321 N 
HETATM   12  H   UNL     1      41.720 -11.492   8.018  1.00  0.00     0.169 HD
HETATM   13  O   UNL     1      42.954 -11.124   5.124  1.00  0.00    -0.267 OA
BRANCH  11  14
HETATM   14  C   UNL     1      43.054  -9.920   7.883  1.00  0.00     0.068 A 
HETATM   15  C   UNL     1      44.412  -9.833   8.226  1.00  0.00     0.095 A 
HETATM   16  C   UNL     1      44.931  -8.632   8.728  1.00  0.00     0.039 A 
HETATM   17  C   UNL     1      44.111  -7.515   8.881  1.00  0.00     0.003 A 
HETATM   18  C   UNL     1      42.759  -7.600   8.564  1.00  0.00     0.002 A 
HETATM   19  C   UNL     1      42.231  -8.800   8.082  1.00  0.00     0.032 A 
BRANCH  15  20
HETATM   20  O   UNL     1      45.182 -10.968   8.259  1.00  0.00    -0.354 OA
HETATM   21  C   UNL     1      46.094 -11.040   7.163  1.00  0.00     0.210 C 
ENDBRANCH  15  20
ENDBRANCH  11  14
ENDBRANCH   8  10
BRANCH   7  22
HETATM   22  C   UNL     1      40.012 -12.756   4.367  1.00  0.00    -0.016 A 
HETATM   23  C   UNL     1      39.335 -11.595   3.914  1.00  0.00     0.056 A 
HETATM   24  C   UNL     1      39.003 -11.479   2.549  1.00  0.00     0.017 A 
HETATM   25  C   UNL     1      39.319 -12.488   1.641  1.00  0.00     0.001 A 
HETATM   26  C   UNL     1      39.969 -13.633   2.082  1.00  0.00     0.001 A 
HETATM   27  C   UNL     1      40.310 -13.766   3.427  1.00  0.00     0.010 A 
BRANCH  23  28
HETATM   28  C   UNL     1      38.934 -10.482   4.857  1.00  0.00     0.418 C 
HETATM   29  F   UNL     1      38.125  -9.568   4.248  1.00  0.00    -0.166 F 
HETATM   30  F   UNL     1      38.243 -10.919   5.943  1.00  0.00    -0.166 F 
HETATM   31  F   UNL     1      39.985  -9.768   5.349  1.00  0.00    -0.166 F 
ENDBRANCH  23  28
ENDBRANCH   7  22
BRANCH   3  32
HETATM   32  C   UNL     1      42.532 -16.601   6.655  1.00  0.00     0.160 C 
BRANCH  32  33
HETATM   33  C   UNL     1      43.053 -17.279   5.379  1.00  0.00     0.187 C 
BRANCH  33  34
HETATM   34  O   UNL     1      42.324 -16.847   4.232  1.00  0.00    -0.394 OA
HETATM   35  C   UNL     1      43.181 -16.320   3.228  1.00  0.00     0.201 C 
ENDBRANCH  33  34
ENDBRANCH  32  33
ENDBRANCH   3  32
TORSDOF 8
ENDMDL
MODEL 6
REMARK VINA RESULT:      -7.5     15.071     16.943
REMARK  8 active torsions:
REMARK  status: ('A' for Active; 'I' for Inactive)
REMARK    1  A    between atoms: N_3  and  C_4 
REMARK    2  A    between atoms: C_4  and  C_5 
REMARK    3  A    between atoms: C_5  and  O_6 
REMARK    4  A    between atoms: C_11  and  C_12 
REMARK    5  A    between atoms: C_13  and  C_14 
REMARK    6  A    between atoms: C_22  and  C_23 
REMARK       I    between atoms: C_23  and  N_24 
REMARK    7  A    between atoms: N_24  and  C_25 
REMARK    8  A    between atoms: C_26  and  O_27 
ROOT
HETATM    1  C   UNL     1      44.491 -31.965   3.389  1.00  0.00     0.069 C 
HETATM    2  C   UNL     1      44.210 -30.900   2.354  1.00  0.00     0.026 C 
HETATM    3  N   UNL     1      42.943 -30.300   2.291  1.00  0.00    -0.301 N 
HETATM    4  C   UNL     1      42.660 -29.242   1.419  1.00  0.00     0.323 C 
HETATM    5  O   UNL     1      41.580 -28.660   1.340  1.00  0.00    -0.247 OA
HETATM    6  N   UNL     1      43.674 -28.833   0.608  1.00  0.00    -0.330 N 
HETATM    7  C   UNL     1      44.855 -29.605   0.314  1.00  0.00     0.161 C 
HETATM    8  C   UNL     1      45.143 -30.525   1.453  1.00  0.00     0.059 C 
HETATM    9  H   UNL     1      43.398 -28.109  -0.040  1.00  0.00     0.165 HD
ENDROOT
BRANCH   8  10
HETATM   10  C   UNL     1      46.558 -30.966   1.569  1.00  0.00     0.256 C 
HETATM   11  N   UNL     1      47.299 -30.069   2.313  1.00  0.00    -0.321 N 
HETATM   12  H   UNL     1      46.892 -29.151   2.445  1.00  0.00     0.169 HD
HETATM   13  O   UNL     1      46.954 -31.939   0.943  1.00  0.00    -0.267 OA
BRANCH  11  14
HETATM   14  C   UNL     1      48.621 -30.230   2.780  1.00  0.00     0.068 A 
HETATM   15  C   UNL     1      49.774 -30.052   2.000  1.00  0.00     0.095 A 
HETATM   16  C   UNL     1      51.039 -30.277   2.560  1.00  0.00     0.039 A 
HETATM   17  C   UNL     1      51.165 -30.667   3.893  1.00  0.00     0.003 A 
HETATM   18  C   UNL     1      50.025 -30.866   4.665  1.00  0.00     0.002 A 
HETATM   19  C   UNL     1      48.761 -30.663   4.108  1.00  0.00     0.032 A 
BRANCH  15  20
HETATM   20  O   UNL     1      49.659 -29.855   0.648  1.00  0.00    -0.354 OA
HETATM   21  C   UNL     1      50.523 -30.709  -0.103  1.00  0.00     0.210 C 
ENDBRANCH  15  20
ENDBRANCH  11  14
ENDBRANCH   8  10
BRANCH   7  22
HETATM   22  C   UNL     1      44.700 -30.301  -1.041  1.00  0.00    -0.016 A 
HETATM   23  C   UNL     1      45.051 -29.665  -2.259  1.00  0.00     0.056 A 
HETATM   24  C   UNL     1      44.878 -30.359  -3.474  1.00  0.00     0.017 A 
HETATM   25  C   UNL     1      44.362 -31.652  -3.498  1.00  0.00     0.001 A 
HETATM   26  C   UNL     1      44.004 -32.275  -2.309  1.00  0.00     0.001 A 
HETATM   27  C   UNL     1      44.170 -31.608  -1.097  1.00  0.00     0.010 A 
BRANCH  23  28
HETATM   28  C   UNL     1      45.583 -28.248  -2.300  1.00  0.00     0.418 C 
HETATM   29  F   UNL     1      45.641 -27.766  -3.575  1.00  0.00    -0.166 F 
HETATM   30  F   UNL     1      44.817 -27.365  -1.606  1.00  0.00    -0.166 F 
HETATM   31  F   UNL     1      46.844 -28.117  -1.802  1.00  0.00    -0.166 F 
ENDBRANCH  23  28
ENDBRANCH   7  22
BRANCH   3  32
HETATM   32  C   UNL     1      41.863 -30.662   3.224  1.00  0.00     0.160 C 
BRANCH  32  33
HETATM   33  C   UNL     1      40.824 -31.638   2.650  1.00  0.00     0.187 C 
BRANCH  33  34
HETATM   34  O   UNL     1      39.910 -32.068   3.658  1.00  0.00    -0.394 OA
HETATM   35  C   UNL     1      40.171 -31.446   4.908  1.00  0.00     0.201 C 
ENDBRANCH  33  34
ENDBRANCH  32  33
ENDBRANCH   3  32
TORSDOF 8
ENDMDL
MODEL 7
REMARK VINA RESULT:      -7.3     15.190     16.983
REMARK  8 active torsions:
REMARK  status: ('A' for Active; 'I' for Inactive)
REMARK    1  A    between atoms: N_3  and  C_4 
REMARK    2  A    between atoms: C_4  and  C_5 
REMARK    3  A    between atoms: C_5  and  O_6 
REMARK    4  A    between atoms: C_11  and  C_12 
REMARK    5  A    between atoms: C_13  and  C_14 
REMARK    6  A    between atoms: C_22  and  C_23 
REMARK       I    between atoms: C_23  and  N_24 
REMARK    7  A    between atoms: N_24  and  C_25 
REMARK    8  A    between atoms: C_26  and  O_27 
ROOT
HETATM    1  C   UNL     1      44.341 -32.334   3.096  1.00  0.00     0.069 C 
HETATM    2  C   UNL     1      44.246 -31.122   2.198  1.00  0.00     0.026 C 
HETATM    3  N   UNL     1      43.014 -30.472   2.025  1.00  0.00    -0.301 N 
HETATM    4  C   UNL     1      42.890 -29.291   1.285  1.00  0.00     0.323 C 
HETATM    5  O   UNL     1      41.846 -28.663   1.123  1.00  0.00    -0.247 OA
HETATM    6  N   UNL     1      44.028 -28.807   0.713  1.00  0.00    -0.330 N 
HETATM    7  C   UNL     1      45.230 -29.573   0.499  1.00  0.00     0.161 C 
HETATM    8  C   UNL     1      45.317 -30.656   1.520  1.00  0.00     0.059 C 
HETATM    9  H   UNL     1      43.869 -27.988   0.143  1.00  0.00     0.165 HD
ENDROOT
BRANCH   8  10
HETATM   10  C   UNL     1      46.688 -31.162   1.792  1.00  0.00     0.256 C 
HETATM   11  N   UNL     1      47.368 -30.319   2.649  1.00  0.00    -0.321 N 
HETATM   12  H   UNL     1      46.986 -29.388   2.760  1.00  0.00     0.169 HD
HETATM   13  O   UNL     1      47.118 -32.134   1.188  1.00  0.00    -0.267 OA
BRANCH  11  14
HETATM   14  C   UNL     1      48.616 -30.550   3.266  1.00  0.00     0.068 A 
HETATM   15  C   UNL     1      48.799 -31.258   4.465  1.00  0.00     0.095 A 
HETATM   16  C   UNL     1      50.084 -31.394   5.008  1.00  0.00     0.039 A 
HETATM   17  C   UNL     1      51.189 -30.842   4.360  1.00  0.00     0.003 A 
HETATM   18  C   UNL     1      51.012 -30.122   3.183  1.00  0.00     0.002 A 
HETATM   19  C   UNL     1      49.732 -29.965   2.648  1.00  0.00     0.032 A 
BRANCH  15  20
HETATM   20  O   UNL     1      47.709 -31.640   5.205  1.00  0.00    -0.354 OA
HETATM   21  C   UNL     1      47.475 -33.047   5.142  1.00  0.00     0.210 C 
ENDBRANCH  15  20
ENDBRANCH  11  14
ENDBRANCH   8  10
BRANCH   7  22
HETATM   22  C   UNL     1      45.286 -30.061  -0.951  1.00  0.00    -0.016 A 
HETATM   23  C   UNL     1      46.336 -29.693  -1.830  1.00  0.00     0.056 A 
HETATM   24  C   UNL     1      46.325 -30.172  -3.156  1.00  0.00     0.017 A 
HETATM   25  C   UNL     1      45.298 -30.992  -3.618  1.00  0.00     0.001 A 
HETATM   26  C   UNL     1      44.261 -31.346  -2.765  1.00  0.00     0.001 A 
HETATM   27  C   UNL     1      44.253 -30.885  -1.450  1.00  0.00     0.010 A 
BRANCH  23  28
HETATM   28  C   UNL     1      47.460 -28.776  -1.398  1.00  0.00     0.418 C 
HETATM   29  F   UNL     1      48.392 -28.618  -2.381  1.00  0.00    -0.166 F 
HETATM   30  F   UNL     1      47.040 -27.522  -1.082  1.00  0.00    -0.166 F 
HETATM   31  F   UNL     1      48.149 -29.222  -0.310  1.00  0.00    -0.166 F 
ENDBRANCH  23  28
ENDBRANCH   7  22
BRANCH   3  32
HETATM   32  C   UNL     1      41.793 -30.924   2.712  1.00  0.00     0.160 C 
BRANCH  32  33
HETATM   33  C   UNL     1      41.522 -30.227   4.055  1.00  0.00     0.187 C 
BRANCH  33  34
HETATM   34  O   UNL     1      41.168 -31.173   5.063  1.00  0.00    -0.394 OA
HETATM   35  C   UNL     1      40.010 -31.915   4.707  1.00  0.00     0.201 C 
ENDBRANCH  33  34
ENDBRANCH  32  33
ENDBRANCH   3  32
TORSDOF 8
ENDMDL
MODEL 8
REMARK VINA RESULT:      -7.1      2.085      2.678
REMARK  8 active torsions:
REMARK  status: ('A' for Active; 'I' for Inactive)
REMARK    1  A    between atoms: N_3  and  C_4 
REMARK    2  A    between atoms: C_4  and  C_5 
REMARK    3  A    between atoms: C_5  and  O_6 
REMARK    4  A    between atoms: C_11  and  C_12 
REMARK    5  A    between atoms: C_13  and  C_14 
REMARK    6  A    between atoms: C_22  and  C_23 
REMARK       I    between atoms: C_23  and  N_24 
REMARK    7  A    between atoms: N_24  and  C_25 
REMARK    8  A    between atoms: C_26  and  O_27 
ROOT
HETATM    1  C   UNL     1      40.845 -13.069   6.113  1.00  0.00     0.069 C 
HETATM    2  C   UNL     1      41.064 -12.162   4.924  1.00  0.00     0.026 C 
HETATM    3  N   UNL     1      41.207 -10.779   5.114  1.00  0.00    -0.301 N 
HETATM    4  C   UNL     1      41.509  -9.908   4.061  1.00  0.00     0.323 C 
HETATM    5  O   UNL     1      41.674  -8.694   4.171  1.00  0.00    -0.247 OA
HETATM    6  N   UNL     1      41.634 -10.465   2.824  1.00  0.00    -0.330 N 
HETATM    7  C   UNL     1      41.135 -11.766   2.455  1.00  0.00     0.161 C 
HETATM    8  C   UNL     1      41.092 -12.642   3.662  1.00  0.00     0.059 C 
HETATM    9  H   UNL     1      41.793  -9.784   2.095  1.00  0.00     0.165 HD
ENDROOT
BRANCH   8  10
HETATM   10  C   UNL     1      41.139 -14.102   3.388  1.00  0.00     0.256 C 
HETATM   11  N   UNL     1      42.433 -14.581   3.466  1.00  0.00    -0.321 N 
HETATM   12  H   UNL     1      43.171 -13.888   3.427  1.00  0.00     0.169 HD
HETATM   13  O   UNL     1      40.135 -14.694   3.019  1.00  0.00    -0.267 OA
BRANCH  11  14
HETATM   14  C   UNL     1      42.850 -15.929   3.437  1.00  0.00     0.068 A 
HETATM   15  C   UNL     1      43.251 -16.668   4.562  1.00  0.00     0.095 A 
HETATM   16  C   UNL     1      43.683 -17.993   4.410  1.00  0.00     0.039 A 
HETATM   17  C   UNL     1      43.708 -18.590   3.150  1.00  0.00     0.003 A 
HETATM   18  C   UNL     1      43.333 -17.856   2.029  1.00  0.00     0.002 A 
HETATM   19  C   UNL     1      42.921 -16.529   2.171  1.00  0.00     0.032 A 
BRANCH  15  20
HETATM   20  O   UNL     1      43.410 -16.040   5.770  1.00  0.00    -0.354 OA
HETATM   21  C   UNL     1      44.660 -16.351   6.386  1.00  0.00     0.210 C 
ENDBRANCH  15  20
ENDBRANCH  11  14
ENDBRANCH   8  10
BRANCH   7  22
HETATM   22  C   UNL     1      39.798 -11.625   1.725  1.00  0.00    -0.016 A 
HETATM   23  C   UNL     1      39.608 -12.097   0.402  1.00  0.00     0.056 A 
HETATM   24  C   UNL     1      38.352 -11.931  -0.217  1.00  0.00     0.017 A 
HETATM   25  C   UNL     1      37.300 -11.303   0.445  1.00  0.00     0.001 A 
HETATM   26  C   UNL     1      37.484 -10.826   1.737  1.00  0.00     0.001 A 
HETATM   27  C   UNL     1      38.716 -10.984   2.368  1.00  0.00     0.010 A 
BRANCH  23  28
HETATM   28  C   UNL     1      40.723 -12.756  -0.383  1.00  0.00     0.418 C 
HETATM   29  F   UNL     1      40.275 -13.271  -1.564  1.00  0.00    -0.166 F 
HETATM   30  F   UNL     1      41.728 -11.900  -0.710  1.00  0.00    -0.166 F 
HETATM   31  F   UNL     1      41.317 -13.795   0.267  1.00  0.00    -0.166 F 
ENDBRANCH  23  28
ENDBRANCH   7  22
BRANCH   3  32
HETATM   32  C   UNL     1      41.172 -10.169   6.454  1.00  0.00     0.160 C 
BRANCH  32  33
HETATM   33  C   UNL     1      42.551  -9.809   7.027  1.00  0.00     0.187 C 
BRANCH  33  34
HETATM   34  O   UNL     1      43.289 -10.981   7.366  1.00  0.00    -0.394 OA
HETATM   35  C   UNL     1      44.498 -11.077   6.625  1.00  0.00     0.201 C 
ENDBRANCH  33  34
ENDBRANCH  32  33
ENDBRANCH   3  32
TORSDOF 8
ENDMDL
MODEL 9
REMARK VINA RESULT:      -6.6      7.855     12.043
REMARK  8 active torsions:
REMARK  status: ('A' for Active; 'I' for Inactive)
REMARK    1  A    between atoms: N_3  and  C_4 
REMARK    2  A    between atoms: C_4  and  C_5 
REMARK    3  A    between atoms: C_5  and  O_6 
REMARK    4  A    between atoms: C_11  and  C_12 
REMARK    5  A    between atoms: C_13  and  C_14 
REMARK    6  A    between atoms: C_22  and  C_23 
REMARK       I    between atoms: C_23  and  N_24 
REMARK    7  A    between atoms: N_24  and  C_25 
REMARK    8  A    between atoms: C_26  and  O_27 
ROOT
HETATM    1  C   UNL     1      43.076 -10.294  12.198  1.00  0.00     0.069 C 
HETATM    2  C   UNL     1      42.386  -9.570  11.065  1.00  0.00     0.026 C 
HETATM    3  N   UNL     1      42.889  -9.669   9.758  1.00  0.00    -0.301 N 
HETATM    4  C   UNL     1      42.233  -9.101   8.660  1.00  0.00     0.323 C 
HETATM    5  O   UNL     1      42.609  -9.179   7.493  1.00  0.00    -0.247 OA
HETATM    6  N   UNL     1      41.085  -8.416   8.922  1.00  0.00    -0.330 N 
HETATM    7  C   UNL     1      40.698  -7.928  10.222  1.00  0.00     0.161 C 
HETATM    8  C   UNL     1      41.304  -8.790  11.278  1.00  0.00     0.059 C 
HETATM    9  H   UNL     1      40.687  -7.979   8.104  1.00  0.00     0.165 HD
ENDROOT
BRANCH   8  10
HETATM   10  C   UNL     1      40.598  -8.781  12.586  1.00  0.00     0.256 C 
HETATM   11  N   UNL     1      41.144  -7.841  13.438  1.00  0.00    -0.321 N 
HETATM   12  H   UNL     1      42.063  -7.493  13.194  1.00  0.00     0.169 HD
HETATM   13  O   UNL     1      39.745  -9.622  12.833  1.00  0.00    -0.267 OA
BRANCH  11  14
HETATM   14  C   UNL     1      40.639  -7.425  14.689  1.00  0.00     0.068 A 
HETATM   15  C   UNL     1      39.657  -6.438  14.869  1.00  0.00     0.095 A 
HETATM   16  C   UNL     1      39.258  -6.077  16.163  1.00  0.00     0.039 A 
HETATM   17  C   UNL     1      39.821  -6.698  17.278  1.00  0.00     0.003 A 
HETATM   18  C   UNL     1      40.809  -7.661  17.107  1.00  0.00     0.002 A 
HETATM   19  C   UNL     1      41.226  -8.011  15.821  1.00  0.00     0.032 A 
BRANCH  15  20
HETATM   20  O   UNL     1      39.236  -5.691  13.799  1.00  0.00    -0.354 OA
HETATM   21  C   UNL     1      37.884  -5.253  13.939  1.00  0.00     0.210 C 
ENDBRANCH  15  20
ENDBRANCH  11  14
ENDBRANCH   8  10
BRANCH   7  22
HETATM   22  C   UNL     1      41.039  -6.441  10.343  1.00  0.00    -0.016 A 
HETATM   23  C   UNL     1      40.040  -5.435  10.336  1.00  0.00     0.056 A 
HETATM   24  C   UNL     1      40.421  -4.082  10.446  1.00  0.00     0.017 A 
HETATM   25  C   UNL     1      41.762  -3.717  10.550  1.00  0.00     0.001 A 
HETATM   26  C   UNL     1      42.746  -4.697  10.544  1.00  0.00     0.001 A 
HETATM   27  C   UNL     1      42.390  -6.041  10.440  1.00  0.00     0.010 A 
BRANCH  23  28
HETATM   28  C   UNL     1      38.570  -5.766  10.190  1.00  0.00     0.418 C 
HETATM   29  F   UNL     1      38.272  -6.206   8.933  1.00  0.00    -0.166 F 
HETATM   30  F   UNL     1      38.153  -6.748  11.033  1.00  0.00    -0.166 F 
HETATM   31  F   UNL     1      37.740  -4.708  10.412  1.00  0.00    -0.166 F 
ENDBRANCH  23  28
ENDBRANCH   7  22
BRANCH   3  32
HETATM   32  C   UNL     1      44.073 -10.484   9.440  1.00  0.00     0.160 C 
BRANCH  32  33
HETATM   33  C   UNL     1      45.403  -9.714   9.465  1.00  0.00     0.187 C 
BRANCH  33  34
HETATM   34  O   UNL     1      45.949  -9.587   8.154  1.00  0.00    -0.394 OA
HETATM   35  C   UNL     1      45.881 -10.810   7.433  1.00  0.00     0.201 C 
ENDBRANCH  33  34
ENDBRANCH  32  33
ENDBRANCH   3  32
TORSDOF 8
ENDMDL
MODEL 10
REMARK VINA RESULT:      -6.5      3.806      6.525
REMARK  8 active torsions:
REMARK  status: ('A' for Active; 'I' for Inactive)
REMARK    1  A    between atoms: N_3  and  C_4 
REMARK    2  A    between atoms: C_4  and  C_5 
REMARK    3  A    between atoms: C_5  and  O_6 
REMARK    4  A    between atoms: C_11  and  C_12 
REMARK    5  A    between atoms: C_13  and  C_14 
REMARK    6  A    between atoms: C_22  and  C_23 
REMARK       I    between atoms: C_23  and  N_24 
REMARK    7  A    between atoms: N_24  and  C_25 
REMARK    8  A    between atoms: C_26  and  O_27 
ROOT
HETATM    1  C   UNL     1      40.273  -8.806   3.028  1.00  0.00     0.069 C 
HETATM    2  C   UNL     1      40.029  -9.807   4.135  1.00  0.00     0.026 C 
HETATM    3  N   UNL     1      39.530  -9.376   5.373  1.00  0.00    -0.301 N 
HETATM    4  C   UNL     1      39.193 -10.270   6.395  1.00  0.00     0.323 C 
HETATM    5  O   UNL     1      38.726  -9.954   7.488  1.00  0.00    -0.247 OA
HETATM    6  N   UNL     1      39.399 -11.593   6.141  1.00  0.00    -0.330 N 
HETATM    7  C   UNL     1      40.247 -12.106   5.094  1.00  0.00     0.161 C 
HETATM    8  C   UNL     1      40.312 -11.118   3.979  1.00  0.00     0.059 C 
HETATM    9  H   UNL     1      39.196 -12.186   6.933  1.00  0.00     0.165 HD
ENDROOT
BRANCH   8  10
HETATM   10  C   UNL     1      40.661 -11.685   2.650  1.00  0.00     0.256 C 
HETATM   11  N   UNL     1      39.548 -12.222   2.031  1.00  0.00    -0.321 N 
HETATM   12  H   UNL     1      38.748 -12.402   2.625  1.00  0.00     0.169 HD
HETATM   13  O   UNL     1      41.828 -11.744   2.290  1.00  0.00    -0.267 OA
BRANCH  11  14
HETATM   14  C   UNL     1      39.449 -12.690   0.703  1.00  0.00     0.068 A 
HETATM   15  C   UNL     1      39.910 -13.938   0.257  1.00  0.00     0.095 A 
HETATM   16  C   UNL     1      39.793 -14.283  -1.097  1.00  0.00     0.039 A 
HETATM   17  C   UNL     1      39.210 -13.400  -2.005  1.00  0.00     0.003 A 
HETATM   18  C   UNL     1      38.771 -12.154  -1.574  1.00  0.00     0.002 A 
HETATM   19  C   UNL     1      38.903 -11.795  -0.230  1.00  0.00     0.032 A 
BRANCH  15  20
HETATM   20  O   UNL     1      40.650 -14.732   1.095  1.00  0.00    -0.354 OA
HETATM   21  C   UNL     1      39.965 -15.932   1.454  1.00  0.00     0.210 C 
ENDBRANCH  15  20
ENDBRANCH  11  14
ENDBRANCH   8  10
BRANCH   7  22
HETATM   22  C   UNL     1      41.608 -12.503   5.673  1.00  0.00    -0.016 A 
HETATM   23  C   UNL     1      41.916 -13.842   6.022  1.00  0.00     0.056 A 
HETATM   24  C   UNL     1      43.187 -14.140   6.555  1.00  0.00     0.017 A 
HETATM   25  C   UNL     1      44.138 -13.142   6.753  1.00  0.00     0.001 A 
HETATM   26  C   UNL     1      43.836 -11.826   6.426  1.00  0.00     0.001 A 
HETATM   27  C   UNL     1      42.587 -11.510   5.894  1.00  0.00     0.010 A 
BRANCH  23  28
HETATM   28  C   UNL     1      40.913 -14.964   5.863  1.00  0.00     0.418 C 
HETATM   29  F   UNL     1      39.812 -14.774   6.646  1.00  0.00    -0.166 F 
HETATM   30  F   UNL     1      40.445 -15.092   4.593  1.00  0.00    -0.166 F 
HETATM   31  F   UNL     1      41.397 -16.191   6.205  1.00  0.00    -0.166 F 
ENDBRANCH  23  28
ENDBRANCH   7  22
BRANCH   3  32
HETATM   32  C   UNL     1      39.210  -7.962   5.634  1.00  0.00     0.160 C 
BRANCH  32  33
HETATM   33  C   UNL     1      37.766  -7.561   5.293  1.00  0.00     0.187 C 
BRANCH  33  34
HETATM   34  O   UNL     1      37.082  -7.073   6.445  1.00  0.00    -0.394 OA
HETATM   35  C   UNL     1      36.644  -5.732   6.272  1.00  0.00     0.201 C 
ENDBRANCH  33  34
ENDBRANCH  32  33
ENDBRANCH   3  32
TORSDOF 8
ENDMDL
