MODEL 1
REMARK VINA RESULT:      -9.5      0.000      0.000
REMARK  9 active torsions:
REMARK  status: ('A' for Active; 'I' for Inactive)
REMARK    1  A    between atoms: C_2  and  N_3 
REMARK    2  A    between atoms: C_2  and  C_11 
REMARK    3  A    between atoms: N_3  and  C_4 
REMARK    4  A    between atoms: N_12  and  C_13 
REMARK    5  A    between atoms: C_19  and  S_20 
REMARK    6  A    between atoms: S_20  and  C_21 
REMARK    7  A    between atoms: C_21  and  C_22 
REMARK       I    between atoms: C_22  and  N_23 
REMARK    8  A    between atoms: N_23  and  C_24 
REMARK    9  A    between atoms: C_26  and  N_27 
REMARK       I    between atoms: N_27  and  C_28 
ROOT
HETATM    1  C   UNL     1      41.399 -14.267   6.293  1.00  0.00     0.158 A 
HETATM    2  N   UNL     1      41.767 -12.922   6.291  1.00  0.00    -0.274 N 
HETATM    3  C   UNL     1      40.555 -12.252   6.334  1.00  0.00     0.196 A 
HETATM    4  N   UNL     1      39.559 -13.107   6.253  1.00  0.00    -0.122 NA
HETATM    5  N   UNL     1      40.083 -14.364   6.219  1.00  0.00    -0.131 NA
ENDROOT
BRANCH   3   6
HETATM    6  S   UNL     1      40.344 -10.530   6.294  1.00  0.00    -0.080 SA
BRANCH   6   7
HETATM    7  C   UNL     1      40.605 -10.171   4.532  1.00  0.00     0.185 C 
BRANCH   7   8
HETATM    8  C   UNL     1      39.932 -11.229   3.670  1.00  0.00     0.231 C 
HETATM    9  N   UNL     1      40.813 -12.182   3.185  1.00  0.00    -0.326 N 
HETATM   10  H   UNL     1      41.800 -12.032   3.400  1.00  0.00     0.169 HD
HETATM   11  O   UNL     1      38.723 -11.184   3.459  1.00  0.00    -0.272 OA
BRANCH   9  12
HETATM   12  C   UNL     1      40.526 -13.271   2.336  1.00  0.00     0.036 A 
HETATM   13  C   UNL     1      40.631 -13.044   0.951  1.00  0.00     0.059 A 
HETATM   14  C   UNL     1      40.358 -14.057   0.029  1.00  0.00     0.036 A 
HETATM   15  C   UNL     1      39.950 -15.306   0.513  1.00  0.00     0.029 A 
HETATM   16  C   UNL     1      39.847 -15.544   1.883  1.00  0.00     0.004 A 
HETATM   17  C   UNL     1      40.140 -14.530   2.793  1.00  0.00     0.029 A 
BRANCH  14  18
HETATM   18  N   UNL     1      40.421 -13.929  -1.371  1.00  0.00    -0.327 N 
HETATM   19  C   UNL     1      39.501 -13.683  -2.344  1.00  0.00     0.218 C 
HETATM   20  C   UNL     1      38.081 -13.325  -2.023  1.00  0.00     0.117 C 
HETATM   21  O   UNL     1      39.876 -13.736  -3.521  1.00  0.00    -0.274 OA
HETATM   22  H   UNL     1      41.340 -14.037  -1.783  1.00  0.00     0.169 HD
ENDBRANCH  14  18
ENDBRANCH   9  12
ENDBRANCH   7   8
ENDBRANCH   6   7
ENDBRANCH   3   6
BRANCH   2  23
HETATM   23  C   UNL     1      43.078 -12.383   6.228  1.00  0.00     0.043 A 
HETATM   24  C   UNL     1      43.672 -12.142   4.981  1.00  0.00     0.030 A 
HETATM   25  C   UNL     1      44.952 -11.591   4.910  1.00  0.00     0.002 A 
HETATM   26  C   UNL     1      45.642 -11.275   6.079  1.00  0.00     0.000 A 
HETATM   27  C   UNL     1      45.054 -11.510   7.321  1.00  0.00     0.002 A 
HETATM   28  C   UNL     1      43.773 -12.061   7.399  1.00  0.00     0.030 A 
ENDBRANCH   2  23
BRANCH   1  29
HETATM   29  C   UNL     1      42.348 -15.412   6.568  1.00  0.00     0.150 C 
HETATM   30  C   UNL     1      43.026 -15.230   7.935  1.00  0.00     0.040 C 
BRANCH  29  31
HETATM   31  N   UNL     1      43.383 -15.506   5.530  1.00  0.00    -0.379 N 
HETATM   32  H   UNL     1      44.273 -15.135   5.856  1.00  0.00     0.160 HD
BRANCH  31  33
HETATM   33  C   UNL     1      43.543 -16.629   4.720  1.00  0.00     0.028 A 
HETATM   34  C   UNL     1      44.027 -17.861   5.175  1.00  0.00     0.030 A 
HETATM   35  C   UNL     1      44.101 -18.973   4.325  1.00  0.00     0.021 A 
HETATM   36  C   UNL     1      43.660 -18.871   3.010  1.00  0.00     0.011 A 
HETATM   37 BR   UNL     1      43.760 -20.369   1.864  1.00  0.00    -0.051 Br
HETATM   38  C   UNL     1      43.133 -17.674   2.544  1.00  0.00     0.021 A 
HETATM   39  C   UNL     1      43.065 -16.570   3.401  1.00  0.00     0.030 A 
ENDBRANCH  31  33
ENDBRANCH  29  31
ENDBRANCH   1  29
TORSDOF 9
ENDMDL
MODEL 2
REMARK VINA RESULT:      -9.0      1.772      3.459
REMARK  9 active torsions:
REMARK  status: ('A' for Active; 'I' for Inactive)
REMARK    1  A    between atoms: C_2  and  N_3 
REMARK    2  A    between atoms: C_2  and  C_11 
REMARK    3  A    between atoms: N_3  and  C_4 
REMARK    4  A    between atoms: N_12  and  C_13 
REMARK    5  A    between atoms: C_19  and  S_20 
REMARK    6  A    between atoms: S_20  and  C_21 
REMARK    7  A    between atoms: C_21  and  C_22 
REMARK       I    between atoms: C_22  and  N_23 
REMARK    8  A    between atoms: N_23  and  C_24 
REMARK    9  A    between atoms: C_26  and  N_27 
REMARK       I    between atoms: N_27  and  C_28 
ROOT
HETATM    1  C   UNL     1      42.456 -13.766   5.744  1.00  0.00     0.158 A 
HETATM    2  N   UNL     1      42.133 -13.184   4.518  1.00  0.00    -0.274 N 
HETATM    3  C   UNL     1      42.506 -11.859   4.677  1.00  0.00     0.196 A 
HETATM    4  N   UNL     1      42.904 -11.643   5.912  1.00  0.00    -0.122 NA
HETATM    5  N   UNL     1      42.866 -12.829   6.582  1.00  0.00    -0.131 NA
ENDROOT
BRANCH   3   6
HETATM    6  S   UNL     1      42.299 -10.598   3.504  1.00  0.00    -0.080 SA
BRANCH   6   7
HETATM    7  C   UNL     1      40.661  -9.950   3.949  1.00  0.00     0.185 C 
BRANCH   7   8
HETATM    8  C   UNL     1      39.594 -10.526   3.031  1.00  0.00     0.231 C 
HETATM    9  N   UNL     1      39.796 -10.218   1.695  1.00  0.00    -0.326 N 
HETATM   10  H   UNL     1      40.581  -9.597   1.491  1.00  0.00     0.169 HD
HETATM   11  O   UNL     1      38.668 -11.189   3.491  1.00  0.00    -0.272 OA
BRANCH   9  12
HETATM   12  C   UNL     1      38.983 -10.564   0.596  1.00  0.00     0.036 A 
HETATM   13  C   UNL     1      39.017 -11.906   0.175  1.00  0.00     0.059 A 
HETATM   14  C   UNL     1      38.254 -12.344  -0.910  1.00  0.00     0.036 A 
HETATM   15  C   UNL     1      37.466 -11.408  -1.591  1.00  0.00     0.029 A 
HETATM   16  C   UNL     1      37.420 -10.077  -1.180  1.00  0.00     0.004 A 
HETATM   17  C   UNL     1      38.173  -9.657  -0.085  1.00  0.00     0.029 A 
BRANCH  14  18
HETATM   18  N   UNL     1      38.228 -13.657  -1.416  1.00  0.00    -0.327 N 
HETATM   19  C   UNL     1      39.036 -14.370  -2.248  1.00  0.00     0.218 C 
HETATM   20  C   UNL     1      40.351 -13.835  -2.729  1.00  0.00     0.117 C 
HETATM   21  O   UNL     1      38.667 -15.500  -2.584  1.00  0.00    -0.274 OA
HETATM   22  H   UNL     1      37.449 -14.231  -1.114  1.00  0.00     0.169 HD
ENDBRANCH  14  18
ENDBRANCH   9  12
ENDBRANCH   7   8
ENDBRANCH   6   7
ENDBRANCH   3   6
BRANCH   2  23
HETATM   23  C   UNL     1      41.535 -13.810   3.394  1.00  0.00     0.043 A 
HETATM   24  C   UNL     1      42.200 -13.803   2.159  1.00  0.00     0.030 A 
HETATM   25  C   UNL     1      41.629 -14.437   1.054  1.00  0.00     0.002 A 
HETATM   26  C   UNL     1      40.399 -15.080   1.176  1.00  0.00     0.000 A 
HETATM   27  C   UNL     1      39.737 -15.092   2.402  1.00  0.00     0.002 A 
HETATM   28  C   UNL     1      40.302 -14.461   3.513  1.00  0.00     0.030 A 
ENDBRANCH   2  23
BRANCH   1  29
HETATM   29  C   UNL     1      42.537 -15.256   5.988  1.00  0.00     0.150 C 
HETATM   30  C   UNL     1      42.446 -15.559   7.491  1.00  0.00     0.040 C 
BRANCH  29  31
HETATM   31  N   UNL     1      43.790 -15.814   5.462  1.00  0.00    -0.379 N 
HETATM   32  H   UNL     1      44.522 -15.819   6.170  1.00  0.00     0.160 HD
BRANCH  31  33
HETATM   33  C   UNL     1      43.834 -16.944   4.649  1.00  0.00     0.028 A 
HETATM   34  C   UNL     1      44.246 -18.209   5.087  1.00  0.00     0.030 A 
HETATM   35  C   UNL     1      44.204 -19.323   4.238  1.00  0.00     0.021 A 
HETATM   36  C   UNL     1      43.716 -19.189   2.943  1.00  0.00     0.011 A 
HETATM   37 BR   UNL     1      43.658 -20.690   1.797  1.00  0.00    -0.051 Br
HETATM   38  C   UNL     1      43.257 -17.956   2.496  1.00  0.00     0.021 A 
HETATM   39  C   UNL     1      43.306 -16.851   3.352  1.00  0.00     0.030 A 
ENDBRANCH  31  33
ENDBRANCH  29  31
ENDBRANCH   1  29
TORSDOF 9
ENDMDL
MODEL 3
REMARK VINA RESULT:      -8.8      4.760      7.658
REMARK  9 active torsions:
REMARK  status: ('A' for Active; 'I' for Inactive)
REMARK    1  A    between atoms: C_2  and  N_3 
REMARK    2  A    between atoms: C_2  and  C_11 
REMARK    3  A    between atoms: N_3  and  C_4 
REMARK    4  A    between atoms: N_12  and  C_13 
REMARK    5  A    between atoms: C_19  and  S_20 
REMARK    6  A    between atoms: S_20  and  C_21 
REMARK    7  A    between atoms: C_21  and  C_22 
REMARK       I    between atoms: C_22  and  N_23 
REMARK    8  A    between atoms: N_23  and  C_24 
REMARK    9  A    between atoms: C_26  and  N_27 
REMARK       I    between atoms: N_27  and  C_28 
ROOT
HETATM    1  C   UNL     1      44.134 -10.169   7.431  1.00  0.00     0.158 A 
HETATM    2  N   UNL     1      42.770  -9.899   7.328  1.00  0.00    -0.274 N 
HETATM    3  C   UNL     1      42.299 -10.907   6.502  1.00  0.00     0.196 A 
HETATM    4  N   UNL     1      43.299 -11.638   6.060  1.00  0.00    -0.122 NA
HETATM    5  N   UNL     1      44.445 -11.175   6.631  1.00  0.00    -0.131 NA
ENDROOT
BRANCH   3   6
HETATM    6  S   UNL     1      40.665 -11.084   5.945  1.00  0.00    -0.080 SA
BRANCH   6   7
HETATM    7  C   UNL     1      40.890 -11.085   4.142  1.00  0.00     0.185 C 
BRANCH   7   8
HETATM    8  C   UNL     1      40.950 -12.511   3.616  1.00  0.00     0.231 C 
HETATM    9  N   UNL     1      42.228 -13.045   3.623  1.00  0.00    -0.326 N 
HETATM   10  H   UNL     1      42.977 -12.413   3.909  1.00  0.00     0.169 HD
HETATM   11  O   UNL     1      39.929 -13.077   3.235  1.00  0.00    -0.272 OA
BRANCH   9  12
HETATM   12  C   UNL     1      42.634 -14.319   3.173  1.00  0.00     0.036 A 
HETATM   13  C   UNL     1      42.647 -15.356   4.124  1.00  0.00     0.059 A 
HETATM   14  C   UNL     1      43.044 -16.650   3.778  1.00  0.00     0.036 A 
HETATM   15  C   UNL     1      43.454 -16.891   2.461  1.00  0.00     0.029 A 
HETATM   16  C   UNL     1      43.440 -15.872   1.509  1.00  0.00     0.004 A 
HETATM   17  C   UNL     1      43.026 -14.590   1.863  1.00  0.00     0.029 A 
BRANCH  14  18
HETATM   18  N   UNL     1      43.104 -17.750   4.653  1.00  0.00    -0.327 N 
HETATM   19  C   UNL     1      43.568 -17.930   5.921  1.00  0.00     0.218 C 
HETATM   20  C   UNL     1      44.042 -16.785   6.763  1.00  0.00     0.117 C 
HETATM   21  O   UNL     1      43.565 -19.078   6.379  1.00  0.00    -0.274 OA
HETATM   22  H   UNL     1      42.726 -18.620   4.296  1.00  0.00     0.169 HD
ENDBRANCH  14  18
ENDBRANCH   9  12
ENDBRANCH   7   8
ENDBRANCH   6   7
ENDBRANCH   3   6
BRANCH   2  23
HETATM   23  C   UNL     1      42.053  -8.823   7.914  1.00  0.00     0.043 A 
HETATM   24  C   UNL     1      41.177  -9.071   8.980  1.00  0.00     0.030 A 
HETATM   25  C   UNL     1      40.486  -8.014   9.577  1.00  0.00     0.002 A 
HETATM   26  C   UNL     1      40.669  -6.712   9.117  1.00  0.00     0.000 A 
HETATM   27  C   UNL     1      41.542  -6.461   8.060  1.00  0.00     0.002 A 
HETATM   28  C   UNL     1      42.237  -7.513   7.458  1.00  0.00     0.030 A 
ENDBRANCH   2  23
BRANCH   1  29
HETATM   29  C   UNL     1      45.051  -9.554   8.464  1.00  0.00     0.150 C 
HETATM   30  C   UNL     1      46.499  -9.535   7.951  1.00  0.00     0.040 C 
BRANCH  29  31
HETATM   31  N   UNL     1      45.002 -10.297   9.730  1.00  0.00    -0.379 N 
HETATM   32  H   UNL     1      45.923 -10.639   9.998  1.00  0.00     0.160 HD
BRANCH  31  33
HETATM   33  C   UNL     1      44.255  -9.874  10.827  1.00  0.00     0.028 A 
HETATM   34  C   UNL     1      44.027  -8.531  11.150  1.00  0.00     0.030 A 
HETATM   35  C   UNL     1      43.210  -8.170  12.230  1.00  0.00     0.021 A 
HETATM   36  C   UNL     1      42.584  -9.155  12.985  1.00  0.00     0.011 A 
HETATM   37 BR   UNL     1      41.482  -8.671  14.440  1.00  0.00    -0.051 Br
HETATM   38  C   UNL     1      42.755 -10.495  12.660  1.00  0.00     0.021 A 
HETATM   39  C   UNL     1      43.574 -10.844  11.580  1.00  0.00     0.030 A 
ENDBRANCH  31  33
ENDBRANCH  29  31
ENDBRANCH   1  29
TORSDOF 9
ENDMDL
MODEL 4
REMARK VINA RESULT:      -8.6      3.714      7.760
REMARK  9 active torsions:
REMARK  status: ('A' for Active; 'I' for Inactive)
REMARK    1  A    between atoms: C_2  and  N_3 
REMARK    2  A    between atoms: C_2  and  C_11 
REMARK    3  A    between atoms: N_3  and  C_4 
REMARK    4  A    between atoms: N_12  and  C_13 
REMARK    5  A    between atoms: C_19  and  S_20 
REMARK    6  A    between atoms: S_20  and  C_21 
REMARK    7  A    between atoms: C_21  and  C_22 
REMARK       I    between atoms: C_22  and  N_23 
REMARK    8  A    between atoms: N_23  and  C_24 
REMARK    9  A    between atoms: C_26  and  N_27 
REMARK       I    between atoms: N_27  and  C_28 
ROOT
HETATM    1  C   UNL     1      40.736 -11.955   2.990  1.00  0.00     0.158 A 
HETATM    2  N   UNL     1      41.083 -11.484   4.256  1.00  0.00    -0.274 N 
HETATM    3  C   UNL     1      40.044 -10.628   4.582  1.00  0.00     0.196 A 
HETATM    4  N   UNL     1      39.217 -10.507   3.566  1.00  0.00    -0.122 NA
HETATM    5  N   UNL     1      39.652 -11.326   2.569  1.00  0.00    -0.131 NA
ENDROOT
BRANCH   3   6
HETATM    6  S   UNL     1      39.927  -9.678   6.030  1.00  0.00    -0.080 SA
BRANCH   6   7
HETATM    7  C   UNL     1      41.080  -8.321   5.672  1.00  0.00     0.185 C 
BRANCH   7   8
HETATM    8  C   UNL     1      42.023  -8.102   6.845  1.00  0.00     0.231 C 
HETATM    9  N   UNL     1      42.287  -9.260   7.560  1.00  0.00    -0.326 N 
HETATM   10  H   UNL     1      41.778 -10.095   7.266  1.00  0.00     0.169 HD
HETATM   11  O   UNL     1      42.469  -6.984   7.086  1.00  0.00    -0.272 OA
BRANCH   9  12
HETATM   12  C   UNL     1      43.085  -9.400   8.714  1.00  0.00     0.036 A 
HETATM   13  C   UNL     1      42.416  -9.442   9.950  1.00  0.00     0.059 A 
HETATM   14  C   UNL     1      43.120  -9.569  11.151  1.00  0.00     0.036 A 
HETATM   15  C   UNL     1      44.518  -9.629  11.099  1.00  0.00     0.029 A 
HETATM   16  C   UNL     1      45.192  -9.592   9.879  1.00  0.00     0.004 A 
HETATM   17  C   UNL     1      44.476  -9.484   8.688  1.00  0.00     0.029 A 
BRANCH  14  18
HETATM   18  N   UNL     1      42.548  -9.608  12.435  1.00  0.00    -0.327 N 
HETATM   19  C   UNL     1      42.544  -8.758  13.499  1.00  0.00     0.218 C 
HETATM   20  C   UNL     1      43.126  -7.379  13.416  1.00  0.00     0.117 C 
HETATM   21  O   UNL     1      42.017  -9.146  14.547  1.00  0.00    -0.274 OA
HETATM   22  H   UNL     1      42.010 -10.438  12.654  1.00  0.00     0.169 HD
ENDBRANCH  14  18
ENDBRANCH   9  12
ENDBRANCH   7   8
ENDBRANCH   6   7
ENDBRANCH   3   6
BRANCH   2  23
HETATM   23  C   UNL     1      42.245 -11.797   5.007  1.00  0.00     0.043 A 
HETATM   24  C   UNL     1      43.452 -11.143   4.725  1.00  0.00     0.030 A 
HETATM   25  C   UNL     1      44.595 -11.428   5.475  1.00  0.00     0.002 A 
HETATM   26  C   UNL     1      44.537 -12.361   6.508  1.00  0.00     0.000 A 
HETATM   27  C   UNL     1      43.338 -13.012   6.794  1.00  0.00     0.002 A 
HETATM   28  C   UNL     1      42.191 -12.731   6.048  1.00  0.00     0.030 A 
ENDBRANCH   2  23
BRANCH   1  29
HETATM   29  C   UNL     1      41.373 -13.150   2.318  1.00  0.00     0.150 C 
HETATM   30  C   UNL     1      41.161 -13.086   0.798  1.00  0.00     0.040 C 
BRANCH  29  31
HETATM   31  N   UNL     1      40.812 -14.408   2.827  1.00  0.00    -0.379 N 
HETATM   32  H   UNL     1      39.952 -14.657   2.342  1.00  0.00     0.160 HD
BRANCH  31  33
HETATM   33  C   UNL     1      41.595 -15.523   3.119  1.00  0.00     0.028 A 
HETATM   34  C   UNL     1      42.290 -16.266   2.157  1.00  0.00     0.030 A 
HETATM   35  C   UNL     1      43.115 -17.338   2.522  1.00  0.00     0.021 A 
HETATM   36  C   UNL     1      43.280 -17.661   3.865  1.00  0.00     0.011 A 
HETATM   37 BR   UNL     1      44.393 -19.105   4.358  1.00  0.00    -0.051 Br
HETATM   38  C   UNL     1      42.639 -16.912   4.843  1.00  0.00     0.021 A 
HETATM   39  C   UNL     1      41.816 -15.845   4.468  1.00  0.00     0.030 A 
ENDBRANCH  31  33
ENDBRANCH  29  31
ENDBRANCH   1  29
TORSDOF 9
ENDMDL
MODEL 5
REMARK VINA RESULT:      -8.4      3.156      6.839
REMARK  9 active torsions:
REMARK  status: ('A' for Active; 'I' for Inactive)
REMARK    1  A    between atoms: C_2  and  N_3 
REMARK    2  A    between atoms: C_2  and  C_11 
REMARK    3  A    between atoms: N_3  and  C_4 
REMARK    4  A    between atoms: N_12  and  C_13 
REMARK    5  A    between atoms: C_19  and  S_20 
REMARK    6  A    between atoms: S_20  and  C_21 
REMARK    7  A    between atoms: C_21  and  C_22 
REMARK       I    between atoms: C_22  and  N_23 
REMARK    8  A    between atoms: N_23  and  C_24 
REMARK    9  A    between atoms: C_26  and  N_27 
REMARK       I    between atoms: N_27  and  C_28 
ROOT
HETATM    1  C   UNL     1      39.667 -12.325   1.502  1.00  0.00     0.158 A 
HETATM    2  N   UNL     1      40.117 -11.639   2.630  1.00  0.00    -0.274 N 
HETATM    3  C   UNL     1      39.128 -10.695   2.854  1.00  0.00     0.196 A 
HETATM    4  N   UNL     1      38.234 -10.733   1.891  1.00  0.00    -0.122 NA
HETATM    5  N   UNL     1      38.573 -11.743   1.041  1.00  0.00    -0.131 NA
ENDROOT
BRANCH   3   6
HETATM    6  S   UNL     1      39.143  -9.485   4.099  1.00  0.00    -0.080 SA
BRANCH   6   7
HETATM    7  C   UNL     1      38.214 -10.313   5.423  1.00  0.00     0.185 C 
BRANCH   7   8
HETATM    8  C   UNL     1      39.079 -10.458   6.667  1.00  0.00     0.231 C 
HETATM    9  N   UNL     1      39.854  -9.339   6.928  1.00  0.00    -0.326 N 
HETATM   10  H   UNL     1      39.810  -8.590   6.236  1.00  0.00     0.169 HD
HETATM   11  O   UNL     1      39.050 -11.492   7.329  1.00  0.00    -0.272 OA
BRANCH   9  12
HETATM   12  C   UNL     1      40.784  -9.158   7.974  1.00  0.00     0.036 A 
HETATM   13  C   UNL     1      42.127  -8.965   7.605  1.00  0.00     0.059 A 
HETATM   14  C   UNL     1      43.124  -8.786   8.568  1.00  0.00     0.036 A 
HETATM   15  C   UNL     1      42.758  -8.827   9.920  1.00  0.00     0.029 A 
HETATM   16  C   UNL     1      41.429  -9.013  10.296  1.00  0.00     0.004 A 
HETATM   17  C   UNL     1      40.443  -9.173   9.325  1.00  0.00     0.029 A 
BRANCH  14  18
HETATM   18  N   UNL     1      44.493  -8.599   8.305  1.00  0.00    -0.327 N 
HETATM   19  C   UNL     1      45.537  -9.439   8.064  1.00  0.00     0.218 C 
HETATM   20  C   UNL     1      45.344 -10.914   7.883  1.00  0.00     0.117 C 
HETATM   21  O   UNL     1      46.666  -8.945   7.970  1.00  0.00    -0.274 OA
HETATM   22  H   UNL     1      44.811  -7.636   8.281  1.00  0.00     0.169 HD
ENDBRANCH  14  18
ENDBRANCH   9  12
ENDBRANCH   7   8
ENDBRANCH   6   7
ENDBRANCH   3   6
BRANCH   2  23
HETATM   23  C   UNL     1      41.322 -11.852   3.348  1.00  0.00     0.043 A 
HETATM   24  C   UNL     1      42.546 -11.464   2.784  1.00  0.00     0.030 A 
HETATM   25  C   UNL     1      43.733 -11.649   3.495  1.00  0.00     0.002 A 
HETATM   26  C   UNL     1      43.705 -12.216   4.767  1.00  0.00     0.000 A 
HETATM   27  C   UNL     1      42.490 -12.599   5.333  1.00  0.00     0.002 A 
HETATM   28  C   UNL     1      41.298 -12.416   4.629  1.00  0.00     0.030 A 
ENDBRANCH   2  23
BRANCH   1  29
HETATM   29  C   UNL     1      40.221 -13.650   1.030  1.00  0.00     0.150 C 
HETATM   30  C   UNL     1      39.648 -14.009  -0.350  1.00  0.00     0.040 C 
BRANCH  29  31
HETATM   31  N   UNL     1      39.902 -14.727   1.976  1.00  0.00    -0.379 N 
HETATM   32  H   UNL     1      39.240 -15.390   1.577  1.00  0.00     0.160 HD
BRANCH  31  33
HETATM   33  C   UNL     1      40.865 -15.353   2.764  1.00  0.00     0.028 A 
HETATM   34  C   UNL     1      42.226 -15.409   2.442  1.00  0.00     0.030 A 
HETATM   35  C   UNL     1      43.156 -15.995   3.310  1.00  0.00     0.021 A 
HETATM   36  C   UNL     1      42.737 -16.507   4.533  1.00  0.00     0.011 A 
HETATM   37 BR   UNL     1      43.989 -17.297   5.705  1.00  0.00    -0.051 Br
HETATM   38  C   UNL     1      41.399 -16.424   4.899  1.00  0.00     0.021 A 
HETATM   39  C   UNL     1      40.479 -15.838   4.024  1.00  0.00     0.030 A 
ENDBRANCH  31  33
ENDBRANCH  29  31
ENDBRANCH   1  29
TORSDOF 9
ENDMDL
MODEL 6
REMARK VINA RESULT:      -8.4      2.868      6.577
REMARK  9 active torsions:
REMARK  status: ('A' for Active; 'I' for Inactive)
REMARK    1  A    between atoms: C_2  and  N_3 
REMARK    2  A    between atoms: C_2  and  C_11 
REMARK    3  A    between atoms: N_3  and  C_4 
REMARK    4  A    between atoms: N_12  and  C_13 
REMARK    5  A    between atoms: C_19  and  S_20 
REMARK    6  A    between atoms: S_20  and  C_21 
REMARK    7  A    between atoms: C_21  and  C_22 
REMARK       I    between atoms: C_22  and  N_23 
REMARK    8  A    between atoms: N_23  and  C_24 
REMARK    9  A    between atoms: C_26  and  N_27 
REMARK       I    between atoms: N_27  and  C_28 
ROOT
HETATM    1  C   UNL     1      41.302 -13.411   1.321  1.00  0.00     0.158 A 
HETATM    2  N   UNL     1      41.224 -12.572   2.432  1.00  0.00    -0.274 N 
HETATM    3  C   UNL     1      40.621 -11.428   1.936  1.00  0.00     0.196 A 
HETATM    4  N   UNL     1      40.459 -11.526   0.634  1.00  0.00    -0.122 NA
HETATM    5  N   UNL     1      40.890 -12.758   0.247  1.00  0.00    -0.131 NA
ENDROOT
BRANCH   3   6
HETATM    6  S   UNL     1      40.300  -9.978   2.834  1.00  0.00    -0.080 SA
BRANCH   6   7
HETATM    7  C   UNL     1      38.804 -10.442   3.756  1.00  0.00     0.185 C 
BRANCH   7   8
HETATM    8  C   UNL     1      38.972 -10.124   5.234  1.00  0.00     0.231 C 
HETATM    9  N   UNL     1      40.162  -9.475   5.523  1.00  0.00    -0.326 N 
HETATM   10  H   UNL     1      40.806  -9.348   4.741  1.00  0.00     0.169 HD
HETATM   11  O   UNL     1      38.103 -10.440   6.042  1.00  0.00    -0.272 OA
BRANCH   9  12
HETATM   12  C   UNL     1      40.640  -9.071   6.787  1.00  0.00     0.036 A 
HETATM   13  C   UNL     1      41.717  -9.800   7.323  1.00  0.00     0.059 A 
HETATM   14  C   UNL     1      42.255  -9.483   8.573  1.00  0.00     0.036 A 
HETATM   15  C   UNL     1      41.680  -8.432   9.298  1.00  0.00     0.029 A 
HETATM   16  C   UNL     1      40.616  -7.699   8.774  1.00  0.00     0.004 A 
HETATM   17  C   UNL     1      40.101  -8.015   7.519  1.00  0.00     0.029 A 
BRANCH  14  18
HETATM   18  N   UNL     1      43.319 -10.156   9.202  1.00  0.00    -0.327 N 
HETATM   19  C   UNL     1      44.669  -9.981   9.229  1.00  0.00     0.218 C 
HETATM   20  C   UNL     1      45.328  -8.787   8.607  1.00  0.00     0.117 C 
HETATM   21  O   UNL     1      45.350 -10.832   9.812  1.00  0.00    -0.274 OA
HETATM   22  H   UNL     1      43.062 -10.954   9.772  1.00  0.00     0.169 HD
ENDBRANCH  14  18
ENDBRANCH   9  12
ENDBRANCH   7   8
ENDBRANCH   6   7
ENDBRANCH   3   6
BRANCH   2  23
HETATM   23  C   UNL     1      41.687 -12.833   3.748  1.00  0.00     0.043 A 
HETATM   24  C   UNL     1      42.999 -12.489   4.104  1.00  0.00     0.030 A 
HETATM   25  C   UNL     1      43.454 -12.721   5.403  1.00  0.00     0.002 A 
HETATM   26  C   UNL     1      42.606 -13.292   6.349  1.00  0.00     0.000 A 
HETATM   27  C   UNL     1      41.300 -13.633   6.000  1.00  0.00     0.002 A 
HETATM   28  C   UNL     1      40.837 -13.403   4.702  1.00  0.00     0.030 A 
ENDBRANCH   2  23
BRANCH   1  29
HETATM   29  C   UNL     1      41.593 -14.893   1.388  1.00  0.00     0.150 C 
HETATM   30  C   UNL     1      40.443 -15.635   2.085  1.00  0.00     0.040 C 
BRANCH  29  31
HETATM   31  N   UNL     1      42.843 -15.158   2.114  1.00  0.00    -0.379 N 
HETATM   32  H   UNL     1      43.127 -14.355   2.672  1.00  0.00     0.160 HD
BRANCH  31  33
HETATM   33  C   UNL     1      43.104 -16.366   2.755  1.00  0.00     0.028 A 
HETATM   34  C   UNL     1      43.305 -17.581   2.088  1.00  0.00     0.030 A 
HETATM   35  C   UNL     1      43.632 -18.750   2.787  1.00  0.00     0.021 A 
HETATM   36  C   UNL     1      43.793 -18.711   4.168  1.00  0.00     0.011 A 
HETATM   37 BR   UNL     1      44.233 -20.286   5.112  1.00  0.00    -0.051 Br
HETATM   38  C   UNL     1      43.645 -17.510   4.851  1.00  0.00     0.021 A 
HETATM   39  C   UNL     1      43.317 -16.349   4.143  1.00  0.00     0.030 A 
ENDBRANCH  31  33
ENDBRANCH  29  31
ENDBRANCH   1  29
TORSDOF 9
ENDMDL
MODEL 7
REMARK VINA RESULT:      -8.3      2.673      6.762
REMARK  9 active torsions:
REMARK  status: ('A' for Active; 'I' for Inactive)
REMARK    1  A    between atoms: C_2  and  N_3 
REMARK    2  A    between atoms: C_2  and  C_11 
REMARK    3  A    between atoms: N_3  and  C_4 
REMARK    4  A    between atoms: N_12  and  C_13 
REMARK    5  A    between atoms: C_19  and  S_20 
REMARK    6  A    between atoms: S_20  and  C_21 
REMARK    7  A    between atoms: C_21  and  C_22 
REMARK       I    between atoms: C_22  and  N_23 
REMARK    8  A    between atoms: N_23  and  C_24 
REMARK    9  A    between atoms: C_26  and  N_27 
REMARK       I    between atoms: N_27  and  C_28 
ROOT
HETATM    1  C   UNL     1      39.850 -13.761   1.462  1.00  0.00     0.158 A 
HETATM    2  N   UNL     1      39.705 -12.455   0.995  1.00  0.00    -0.274 N 
HETATM    3  C   UNL     1      39.368 -11.738   2.131  1.00  0.00     0.196 A 
HETATM    4  N   UNL     1      39.211 -12.550   3.154  1.00  0.00    -0.122 NA
HETATM    5  N   UNL     1      39.503 -13.813   2.737  1.00  0.00    -0.131 NA
ENDROOT
BRANCH   3   6
HETATM    6  S   UNL     1      38.996 -10.043   2.189  1.00  0.00    -0.080 SA
BRANCH   6   7
HETATM    7  C   UNL     1      40.651  -9.311   2.348  1.00  0.00     0.185 C 
BRANCH   7   8
HETATM    8  C   UNL     1      41.626 -10.325   2.926  1.00  0.00     0.231 C 
HETATM    9  N   UNL     1      41.412 -10.587   4.270  1.00  0.00    -0.326 N 
HETATM   10  H   UNL     1      40.686 -10.033   4.725  1.00  0.00     0.169 HD
HETATM   11  O   UNL     1      42.498 -10.824   2.219  1.00  0.00    -0.272 OA
BRANCH   9  12
HETATM   12  C   UNL     1      42.152 -11.443   5.112  1.00  0.00     0.036 A 
HETATM   13  C   UNL     1      43.442 -11.018   5.477  1.00  0.00     0.059 A 
HETATM   14  C   UNL     1      44.256 -11.801   6.300  1.00  0.00     0.036 A 
HETATM   15  C   UNL     1      43.767 -13.039   6.737  1.00  0.00     0.029 A 
HETATM   16  C   UNL     1      42.488 -13.468   6.385  1.00  0.00     0.004 A 
HETATM   17  C   UNL     1      41.680 -12.669   5.578  1.00  0.00     0.029 A 
BRANCH  14  18
HETATM   18  N   UNL     1      45.561 -11.474   6.711  1.00  0.00    -0.327 N 
HETATM   19  C   UNL     1      46.079 -10.634   7.650  1.00  0.00     0.218 C 
HETATM   20  C   UNL     1      45.209  -9.910   8.633  1.00  0.00     0.117 C 
HETATM   21  O   UNL     1      47.306 -10.499   7.691  1.00  0.00    -0.274 OA
HETATM   22  H   UNL     1      46.311 -11.952   6.224  1.00  0.00     0.169 HD
ENDBRANCH  14  18
ENDBRANCH   9  12
ENDBRANCH   7   8
ENDBRANCH   6   7
ENDBRANCH   3   6
BRANCH   2  23
HETATM   23  C   UNL     1      39.845 -11.993  -0.339  1.00  0.00     0.043 A 
HETATM   24  C   UNL     1      38.744 -12.028  -1.206  1.00  0.00     0.030 A 
HETATM   25  C   UNL     1      38.868 -11.554  -2.513  1.00  0.00     0.002 A 
HETATM   26  C   UNL     1      40.085 -11.041  -2.958  1.00  0.00     0.000 A 
HETATM   27  C   UNL     1      41.181 -11.001  -2.098  1.00  0.00     0.002 A 
HETATM   28  C   UNL     1      41.065 -11.473  -0.788  1.00  0.00     0.030 A 
ENDBRANCH   2  23
BRANCH   1  29
HETATM   29  C   UNL     1      40.514 -14.878   0.688  1.00  0.00     0.150 C 
HETATM   30  C   UNL     1      39.795 -16.210   0.948  1.00  0.00     0.040 C 
BRANCH  29  31
HETATM   31  N   UNL     1      41.928 -15.016   1.061  1.00  0.00    -0.379 N 
HETATM   32  H   UNL     1      42.368 -14.108   1.198  1.00  0.00     0.160 HD
BRANCH  31  33
HETATM   33  C   UNL     1      42.381 -15.965   1.975  1.00  0.00     0.028 A 
HETATM   34  C   UNL     1      42.872 -17.226   1.616  1.00  0.00     0.030 A 
HETATM   35  C   UNL     1      43.376 -18.112   2.578  1.00  0.00     0.021 A 
HETATM   36  C   UNL     1      43.423 -17.730   3.915  1.00  0.00     0.011 A 
HETATM   37 BR   UNL     1      44.103 -18.922   5.213  1.00  0.00    -0.051 Br
HETATM   38  C   UNL     1      42.985 -16.468   4.293  1.00  0.00     0.021 A 
HETATM   39  C   UNL     1      42.483 -15.592   3.325  1.00  0.00     0.030 A 
ENDBRANCH  31  33
ENDBRANCH  29  31
ENDBRANCH   1  29
TORSDOF 9
ENDMDL
MODEL 8
REMARK VINA RESULT:      -8.3      4.692      8.459
REMARK  9 active torsions:
REMARK  status: ('A' for Active; 'I' for Inactive)
REMARK    1  A    between atoms: C_2  and  N_3 
REMARK    2  A    between atoms: C_2  and  C_11 
REMARK    3  A    between atoms: N_3  and  C_4 
REMARK    4  A    between atoms: N_12  and  C_13 
REMARK    5  A    between atoms: C_19  and  S_20 
REMARK    6  A    between atoms: S_20  and  C_21 
REMARK    7  A    between atoms: C_21  and  C_22 
REMARK       I    between atoms: C_22  and  N_23 
REMARK    8  A    between atoms: N_23  and  C_24 
REMARK    9  A    between atoms: C_26  and  N_27 
REMARK       I    between atoms: N_27  and  C_28 
ROOT
HETATM    1  C   UNL     1      42.543 -13.507   5.451  1.00  0.00     0.158 A 
HETATM    2  N   UNL     1      42.179 -12.209   5.807  1.00  0.00    -0.274 N 
HETATM    3  C   UNL     1      43.212 -11.794   6.630  1.00  0.00     0.196 A 
HETATM    4  N   UNL     1      44.052 -12.783   6.842  1.00  0.00    -0.122 NA
HETATM    5  N   UNL     1      43.633 -13.855   6.114  1.00  0.00    -0.131 NA
ENDROOT
BRANCH   3   6
HETATM    6  S   UNL     1      43.307 -10.265   7.448  1.00  0.00    -0.080 SA
BRANCH   6   7
HETATM    7  C   UNL     1      44.129 -10.732   9.000  1.00  0.00     0.185 C 
BRANCH   7   8
HETATM    8  C   UNL     1      43.690  -9.812  10.129  1.00  0.00     0.231 C 
HETATM    9  N   UNL     1      42.670 -10.342  10.903  1.00  0.00    -0.326 N 
HETATM   10  H   UNL     1      42.291 -11.238  10.593  1.00  0.00     0.169 HD
HETATM   11  O   UNL     1      44.225  -8.718  10.285  1.00  0.00    -0.272 OA
BRANCH   9  12
HETATM   12  C   UNL     1      42.014  -9.741  11.997  1.00  0.00     0.036 A 
HETATM   13  C   UNL     1      40.721  -9.238  11.768  1.00  0.00     0.059 A 
HETATM   14  C   UNL     1      39.994  -8.617  12.786  1.00  0.00     0.036 A 
HETATM   15  C   UNL     1      40.594  -8.482  14.045  1.00  0.00     0.029 A 
HETATM   16  C   UNL     1      41.873  -8.981  14.285  1.00  0.00     0.004 A 
HETATM   17  C   UNL     1      42.580  -9.614  13.265  1.00  0.00     0.029 A 
BRANCH  14  18
HETATM   18  N   UNL     1      38.704  -8.071  12.657  1.00  0.00    -0.327 N 
HETATM   19  C   UNL     1      38.222  -6.824  12.396  1.00  0.00     0.218 C 
HETATM   20  C   UNL     1      39.123  -5.687  12.019  1.00  0.00     0.117 C 
HETATM   21  O   UNL     1      36.999  -6.654  12.452  1.00  0.00    -0.274 OA
HETATM   22  H   UNL     1      37.935  -8.721  12.776  1.00  0.00     0.169 HD
ENDBRANCH  14  18
ENDBRANCH   9  12
ENDBRANCH   7   8
ENDBRANCH   6   7
ENDBRANCH   3   6
BRANCH   2  23
HETATM   23  C   UNL     1      41.006 -11.505   5.428  1.00  0.00     0.043 A 
HETATM   24  C   UNL     1      40.989 -10.774   4.232  1.00  0.00     0.030 A 
HETATM   25  C   UNL     1      39.832 -10.098   3.842  1.00  0.00     0.002 A 
HETATM   26  C   UNL     1      38.690 -10.151   4.638  1.00  0.00     0.000 A 
HETATM   27  C   UNL     1      38.701 -10.879   5.826  1.00  0.00     0.002 A 
HETATM   28  C   UNL     1      39.855 -11.559   6.223  1.00  0.00     0.030 A 
ENDBRANCH   2  23
BRANCH   1  29
HETATM   29  C   UNL     1      41.917 -14.291   4.320  1.00  0.00     0.150 C 
HETATM   30  C   UNL     1      40.974 -15.370   4.874  1.00  0.00     0.040 C 
BRANCH  29  31
HETATM   31  N   UNL     1      42.942 -14.935   3.487  1.00  0.00    -0.379 N 
HETATM   32  H   UNL     1      43.831 -14.440   3.540  1.00  0.00     0.160 HD
BRANCH  31  33
HETATM   33  C   UNL     1      43.110 -16.316   3.425  1.00  0.00     0.028 A 
HETATM   34  C   UNL     1      42.726 -17.105   2.334  1.00  0.00     0.030 A 
HETATM   35  C   UNL     1      42.984 -18.482   2.304  1.00  0.00     0.021 A 
HETATM   36  C   UNL     1      43.661 -19.084   3.359  1.00  0.00     0.011 A 
HETATM   37 BR   UNL     1      44.009 -20.940   3.320  1.00  0.00    -0.051 Br
HETATM   38  C   UNL     1      44.094 -18.318   4.434  1.00  0.00     0.021 A 
HETATM   39  C   UNL     1      43.830 -16.945   4.454  1.00  0.00     0.030 A 
ENDBRANCH  31  33
ENDBRANCH  29  31
ENDBRANCH   1  29
TORSDOF 9
ENDMDL
MODEL 9
REMARK VINA RESULT:      -8.1      3.626      7.324
REMARK  9 active torsions:
REMARK  status: ('A' for Active; 'I' for Inactive)
REMARK    1  A    between atoms: C_2  and  N_3 
REMARK    2  A    between atoms: C_2  and  C_11 
REMARK    3  A    between atoms: N_3  and  C_4 
REMARK    4  A    between atoms: N_12  and  C_13 
REMARK    5  A    between atoms: C_19  and  S_20 
REMARK    6  A    between atoms: S_20  and  C_21 
REMARK    7  A    between atoms: C_21  and  C_22 
REMARK       I    between atoms: C_22  and  N_23 
REMARK    8  A    between atoms: N_23  and  C_24 
REMARK    9  A    between atoms: C_26  and  N_27 
REMARK       I    between atoms: N_27  and  C_28 
ROOT
HETATM    1  C   UNL     1      41.702 -13.534   3.300  1.00  0.00     0.158 A 
HETATM    2  N   UNL     1      41.741 -12.674   4.398  1.00  0.00    -0.274 N 
HETATM    3  C   UNL     1      40.459 -12.152   4.449  1.00  0.00     0.196 A 
HETATM    4  N   UNL     1      39.756 -12.566   3.418  1.00  0.00    -0.122 NA
HETATM    5  N   UNL     1      40.532 -13.422   2.695  1.00  0.00    -0.131 NA
ENDROOT
BRANCH   3   6
HETATM    6  S   UNL     1      39.892 -10.961   5.577  1.00  0.00    -0.080 SA
BRANCH   6   7
HETATM    7  C   UNL     1      40.750  -9.469   4.996  1.00  0.00     0.185 C 
BRANCH   7   8
HETATM    8  C   UNL     1      41.422  -8.756   6.159  1.00  0.00     0.231 C 
HETATM    9  N   UNL     1      41.698  -9.593   7.229  1.00  0.00    -0.326 N 
HETATM   10  H   UNL     1      41.366 -10.554   7.144  1.00  0.00     0.169 HD
HETATM   11  O   UNL     1      41.666  -7.554   6.096  1.00  0.00    -0.272 OA
BRANCH   9  12
HETATM   12  C   UNL     1      42.281  -9.249   8.467  1.00  0.00     0.036 A 
HETATM   13  C   UNL     1      41.409  -8.820   9.484  1.00  0.00     0.059 A 
HETATM   14  C   UNL     1      41.891  -8.449  10.742  1.00  0.00     0.036 A 
HETATM   15  C   UNL     1      43.273  -8.489  10.963  1.00  0.00     0.029 A 
HETATM   16  C   UNL     1      44.146  -8.917   9.964  1.00  0.00     0.004 A 
HETATM   17  C   UNL     1      43.650  -9.301   8.720  1.00  0.00     0.029 A 
BRANCH  14  18
HETATM   18  N   UNL     1      41.107  -7.996  11.818  1.00  0.00    -0.327 N 
HETATM   19  C   UNL     1      40.410  -8.614  12.813  1.00  0.00     0.218 C 
HETATM   20  C   UNL     1      40.484 -10.095  13.031  1.00  0.00     0.117 C 
HETATM   21  O   UNL     1      39.724  -7.910  13.561  1.00  0.00    -0.274 OA
HETATM   22  H   UNL     1      41.018  -6.990  11.908  1.00  0.00     0.169 HD
ENDBRANCH  14  18
ENDBRANCH   9  12
ENDBRANCH   7   8
ENDBRANCH   6   7
ENDBRANCH   3   6
BRANCH   2  23
HETATM   23  C   UNL     1      42.850 -12.391   5.236  1.00  0.00     0.043 A 
HETATM   24  C   UNL     1      42.956 -13.018   6.486  1.00  0.00     0.030 A 
HETATM   25  C   UNL     1      44.056 -12.762   7.306  1.00  0.00     0.002 A 
HETATM   26  C   UNL     1      45.053 -11.885   6.884  1.00  0.00     0.000 A 
HETATM   27  C   UNL     1      44.954 -11.262   5.641  1.00  0.00     0.002 A 
HETATM   28  C   UNL     1      43.856 -11.514   4.814  1.00  0.00     0.030 A 
ENDBRANCH   2  23
BRANCH   1  29
HETATM   29  C   UNL     1      42.748 -14.584   2.999  1.00  0.00     0.150 C 
HETATM   30  C   UNL     1      43.586 -14.170   1.780  1.00  0.00     0.040 C 
BRANCH  29  31
HETATM   31  N   UNL     1      42.130 -15.890   2.734  1.00  0.00    -0.379 N 
HETATM   32  H   UNL     1      41.830 -15.971   1.764  1.00  0.00     0.160 HD
BRANCH  31  33
HETATM   33  C   UNL     1      42.645 -17.086   3.229  1.00  0.00     0.028 A 
HETATM   34  C   UNL     1      42.994 -18.180   2.429  1.00  0.00     0.030 A 
HETATM   35  C   UNL     1      43.571 -19.331   2.980  1.00  0.00     0.021 A 
HETATM   36  C   UNL     1      43.835 -19.389   4.344  1.00  0.00     0.011 A 
HETATM   37 BR   UNL     1      44.613 -20.940   5.090  1.00  0.00    -0.051 Br
HETATM   38  C   UNL     1      43.541 -18.301   5.156  1.00  0.00     0.021 A 
HETATM   39  C   UNL     1      42.964 -17.157   4.595  1.00  0.00     0.030 A 
ENDBRANCH  31  33
ENDBRANCH  29  31
ENDBRANCH   1  29
TORSDOF 9
ENDMDL
MODEL 10
REMARK VINA RESULT:      -8.1      5.433      8.007
REMARK  9 active torsions:
REMARK  status: ('A' for Active; 'I' for Inactive)
REMARK    1  A    between atoms: C_2  and  N_3 
REMARK    2  A    between atoms: C_2  and  C_11 
REMARK    3  A    between atoms: N_3  and  C_4 
REMARK    4  A    between atoms: N_12  and  C_13 
REMARK    5  A    between atoms: C_19  and  S_20 
REMARK    6  A    between atoms: S_20  and  C_21 
REMARK    7  A    between atoms: C_21  and  C_22 
REMARK       I    between atoms: C_22  and  N_23 
REMARK    8  A    between atoms: N_23  and  C_24 
REMARK    9  A    between atoms: C_26  and  N_27 
REMARK       I    between atoms: N_27  and  C_28 
ROOT
HETATM    1  C   UNL     1      43.579 -10.077   8.568  1.00  0.00     0.158 A 
HETATM    2  N   UNL     1      42.500  -9.461   7.936  1.00  0.00    -0.274 N 
HETATM    3  C   UNL     1      42.244 -10.283   6.850  1.00  0.00     0.196 A 
HETATM    4  N   UNL     1      43.152 -11.232   6.773  1.00  0.00    -0.122 NA
HETATM    5  N   UNL     1      43.990 -11.101   7.839  1.00  0.00    -0.131 NA
ENDROOT
BRANCH   3   6
HETATM    6  S   UNL     1      41.038 -10.012   5.632  1.00  0.00    -0.080 SA
BRANCH   6   7
HETATM    7  C   UNL     1      42.041 -10.010   4.118  1.00  0.00     0.185 C 
BRANCH   7   8
HETATM    8  C   UNL     1      41.937 -11.352   3.410  1.00  0.00     0.231 C 
HETATM    9  N   UNL     1      41.442 -12.362   4.221  1.00  0.00    -0.326 N 
HETATM   10  H   UNL     1      41.272 -12.112   5.196  1.00  0.00     0.169 HD
HETATM   11  O   UNL     1      42.277 -11.466   2.236  1.00  0.00    -0.272 OA
BRANCH   9  12
HETATM   12  C   UNL     1      41.253 -13.720   3.891  1.00  0.00     0.036 A 
HETATM   13  C   UNL     1      42.132 -14.647   4.479  1.00  0.00     0.059 A 
HETATM   14  C   UNL     1      42.032 -16.014   4.207  1.00  0.00     0.036 A 
HETATM   15  C   UNL     1      41.045 -16.443   3.310  1.00  0.00     0.029 A 
HETATM   16  C   UNL     1      40.165 -15.534   2.725  1.00  0.00     0.004 A 
HETATM   17  C   UNL     1      40.265 -14.176   3.019  1.00  0.00     0.029 A 
BRANCH  14  18
HETATM   18  N   UNL     1      42.867 -17.017   4.731  1.00  0.00    -0.327 N 
HETATM   19  C   UNL     1      43.606 -18.021   4.182  1.00  0.00     0.218 C 
HETATM   20  C   UNL     1      43.779 -18.160   2.700  1.00  0.00     0.117 C 
HETATM   21  O   UNL     1      44.163 -18.814   4.949  1.00  0.00    -0.274 OA
HETATM   22  H   UNL     1      42.968 -17.025   5.740  1.00  0.00     0.169 HD
ENDBRANCH  14  18
ENDBRANCH   9  12
ENDBRANCH   7   8
ENDBRANCH   6   7
ENDBRANCH   3   6
BRANCH   2  23
HETATM   23  C   UNL     1      41.848  -8.258   8.312  1.00  0.00     0.043 A 
HETATM   24  C   UNL     1      42.330  -7.029   7.839  1.00  0.00     0.030 A 
HETATM   25  C   UNL     1      41.680  -5.843   8.187  1.00  0.00     0.002 A 
HETATM   26  C   UNL     1      40.550  -5.878   9.000  1.00  0.00     0.000 A 
HETATM   27  C   UNL     1      40.066  -7.098   9.469  1.00  0.00     0.002 A 
HETATM   28  C   UNL     1      40.710  -8.289   9.126  1.00  0.00     0.030 A 
ENDBRANCH   2  23
BRANCH   1  29
HETATM   29  C   UNL     1      44.045  -9.757   9.971  1.00  0.00     0.150 C 
HETATM   30  C   UNL     1      45.463 -10.302  10.202  1.00  0.00     0.040 C 
BRANCH  29  31
HETATM   31  N   UNL     1      43.142 -10.332  10.976  1.00  0.00    -0.379 N 
HETATM   32  H   UNL     1      43.440 -11.265  11.256  1.00  0.00     0.160 HD
BRANCH  31  33
HETATM   33  C   UNL     1      42.632  -9.598  12.045  1.00  0.00     0.028 A 
HETATM   34  C   UNL     1      41.506  -9.973  12.786  1.00  0.00     0.030 A 
HETATM   35  C   UNL     1      41.082  -9.226  13.894  1.00  0.00     0.021 A 
HETATM   36  C   UNL     1      41.804  -8.107  14.293  1.00  0.00     0.011 A 
HETATM   37 BR   UNL     1      41.234  -7.099  15.786  1.00  0.00    -0.051 Br
HETATM   38  C   UNL     1      42.952  -7.738  13.603  1.00  0.00     0.021 A 
HETATM   39  C   UNL     1      43.365  -8.489  12.498  1.00  0.00     0.030 A 
ENDBRANCH  31  33
ENDBRANCH  29  31
ENDBRANCH   1  29
TORSDOF 9
ENDMDL
