MODEL 1
REMARK VINA RESULT:      -8.6      0.000      0.000
REMARK  7 active torsions:
REMARK  status: ('A' for Active; 'I' for Inactive)
REMARK    1  A    between atoms: O_2  and  C_3 
REMARK    2  A    between atoms: C_6  and  C_7 
REMARK    3  A    between atoms: N_8  and  N_9 
REMARK       I    between atoms: N_9  and  C_10 
REMARK    4  A    between atoms: C_10  and  C_11 
REMARK       I    between atoms: C_11  and  N_12 
REMARK    5  A    between atoms: N_12  and  C_13 
REMARK    6  A    between atoms: C_14  and  C_15 
REMARK       I    between atoms: C_15  and  N_16 
REMARK    7  A    between atoms: N_16  and  C_17 
ROOT
HETATM    1  C   UNL     1      43.945 -11.476   6.923  1.00  0.00     0.315 C 
HETATM    2  N   UNL     1      42.796 -10.878   6.446  1.00  0.00    -0.318 N 
HETATM    3  O   UNL     1      44.622 -12.360   6.422  1.00  0.00    -0.262 OA
HETATM    4  H   UNL     1      42.290 -10.369   7.172  1.00  0.00     0.169 HD
ENDROOT
BRANCH   2   5
HETATM    5  C   UNL     1      42.092 -11.222   5.275  1.00  0.00     0.051 A 
HETATM    6  C   UNL     1      41.184 -12.285   5.123  1.00  0.00     0.058 A 
HETATM    7  C   UNL     1      40.481 -12.426   3.910  1.00  0.00     0.019 A 
HETATM    8  C   UNL     1      40.706 -11.561   2.841  1.00  0.00     0.001 A 
HETATM    9  C   UNL     1      41.651 -10.550   2.966  1.00  0.00     0.002 A 
HETATM   10  C   UNL     1      42.342 -10.387   4.169  1.00  0.00     0.030 A 
BRANCH   6  11
HETATM   11  C   UNL     1      41.018 -13.431   6.059  1.00  0.00     0.254 C 
HETATM   12  N   UNL     1      42.123 -14.249   6.208  1.00  0.00    -0.352 N 
HETATM   13  H   UNL     1      42.953 -14.023   5.676  1.00  0.00     0.163 HD
HETATM   14  O   UNL     1      39.911 -13.692   6.516  1.00  0.00    -0.268 OA
BRANCH  12  15
HETATM   15  C   UNL     1      41.998 -15.590   6.771  1.00  0.00     0.084 C 
HETATM   16  C   UNL     1      41.657 -16.610   5.676  1.00  0.00     0.025 C 
HETATM   17  C   UNL     1      42.853 -16.943   4.784  1.00  0.00     0.002 C 
HETATM   18  C   UNL     1      44.050 -17.404   5.608  1.00  0.00     0.000 C 
HETATM   19  C   UNL     1      44.429 -16.372   6.663  1.00  0.00     0.002 C 
HETATM   20  C   UNL     1      43.243 -16.021   7.561  1.00  0.00     0.025 C 
ENDBRANCH  12  15
ENDBRANCH   6  11
ENDBRANCH   2   5
BRANCH   1  21
HETATM   21  C   UNL     1      44.303 -10.962   8.328  1.00  0.00     0.329 C 
HETATM   22  N   UNL     1      43.220 -10.426   8.994  1.00  0.00    -0.239 N 
HETATM   23  H   UNL     1      42.321 -10.402   8.517  1.00  0.00     0.192 HD
HETATM   24  O   UNL     1      45.466 -11.052   8.705  1.00  0.00    -0.261 OA
BRANCH  22  25
HETATM   25  N   UNL     1      43.380  -9.879  10.231  1.00  0.00    -0.183 NA
HETATM   26  C   UNL     1      42.288  -9.589  10.863  1.00  0.00     0.150 C 
BRANCH  26  27
HETATM   27  C   UNL     1      42.311  -8.974  12.207  1.00  0.00    -0.017 A 
HETATM   28  C   UNL     1      43.225  -7.965  12.518  1.00  0.00     0.016 A 
HETATM   29  C   UNL     1      43.216  -7.394  13.793  1.00  0.00     0.037 A 
HETATM   30  C   UNL     1      42.295  -7.813  14.756  1.00  0.00     0.068 A 
HETATM   31  C   UNL     1      41.392  -8.832  14.444  1.00  0.00     0.037 A 
HETATM   32  C   UNL     1      41.398  -9.413  13.169  1.00  0.00     0.016 A 
BRANCH  30  33
HETATM   33  O   UNL     1      42.387  -7.168  15.959  1.00  0.00    -0.356 OA
HETATM   34  C   UNL     1      41.323  -7.381  16.878  1.00  0.00     0.210 C 
ENDBRANCH  30  33
ENDBRANCH  26  27
ENDBRANCH  22  25
ENDBRANCH   1  21
TORSDOF 7
ENDMDL
MODEL 2
REMARK VINA RESULT:      -8.3      1.321      4.002
REMARK  7 active torsions:
REMARK  status: ('A' for Active; 'I' for Inactive)
REMARK    1  A    between atoms: O_2  and  C_3 
REMARK    2  A    between atoms: C_6  and  C_7 
REMARK    3  A    between atoms: N_8  and  N_9 
REMARK       I    between atoms: N_9  and  C_10 
REMARK    4  A    between atoms: C_10  and  C_11 
REMARK       I    between atoms: C_11  and  N_12 
REMARK    5  A    between atoms: N_12  and  C_13 
REMARK    6  A    between atoms: C_14  and  C_15 
REMARK       I    between atoms: C_15  and  N_16 
REMARK    7  A    between atoms: N_16  and  C_17 
ROOT
HETATM    1  C   UNL     1      44.292 -11.856   7.132  1.00  0.00     0.315 C 
HETATM    2  N   UNL     1      43.534 -12.988   7.362  1.00  0.00    -0.318 N 
HETATM    3  O   UNL     1      44.912 -11.532   6.132  1.00  0.00    -0.262 OA
HETATM    4  H   UNL     1      43.350 -13.139   8.354  1.00  0.00     0.169 HD
ENDROOT
BRANCH   2   5
HETATM    5  C   UNL     1      43.368 -14.081   6.488  1.00  0.00     0.051 A 
HETATM    6  C   UNL     1      42.499 -14.150   5.386  1.00  0.00     0.058 A 
HETATM    7  C   UNL     1      42.534 -15.281   4.546  1.00  0.00     0.019 A 
HETATM    8  C   UNL     1      43.381 -16.354   4.818  1.00  0.00     0.001 A 
HETATM    9  C   UNL     1      44.193 -16.316   5.943  1.00  0.00     0.002 A 
HETATM   10  C   UNL     1      44.182 -15.193   6.774  1.00  0.00     0.030 A 
BRANCH   6  11
HETATM   11  C   UNL     1      41.370 -13.220   5.106  1.00  0.00     0.254 C 
HETATM   12  N   UNL     1      40.842 -13.284   3.829  1.00  0.00    -0.352 N 
HETATM   13  H   UNL     1      41.255 -13.942   3.181  1.00  0.00     0.163 HD
HETATM   14  O   UNL     1      41.070 -12.357   5.923  1.00  0.00    -0.268 OA
BRANCH  12  15
HETATM   15  C   UNL     1      40.018 -12.203   3.299  1.00  0.00     0.084 C 
HETATM   16  C   UNL     1      40.892 -11.028   2.838  1.00  0.00     0.025 C 
HETATM   17  C   UNL     1      41.618 -11.311   1.523  1.00  0.00     0.002 C 
HETATM   18  C   UNL     1      40.643 -11.729   0.428  1.00  0.00     0.000 C 
HETATM   19  C   UNL     1      39.808 -12.929   0.857  1.00  0.00     0.002 C 
HETATM   20  C   UNL     1      39.080 -12.668   2.174  1.00  0.00     0.025 C 
ENDBRANCH  12  15
ENDBRANCH   6  11
ENDBRANCH   2   5
BRANCH   1  21
HETATM   21  C   UNL     1      44.390 -10.982   8.393  1.00  0.00     0.329 C 
HETATM   22  N   UNL     1      43.181 -10.420   8.751  1.00  0.00    -0.239 N 
HETATM   23  H   UNL     1      42.368 -10.610   8.169  1.00  0.00     0.192 HD
HETATM   24  O   UNL     1      45.484 -10.852   8.931  1.00  0.00    -0.261 OA
BRANCH  22  25
HETATM   25  N   UNL     1      43.109  -9.576   9.817  1.00  0.00    -0.183 NA
HETATM   26  C   UNL     1      42.780 -10.120  10.944  1.00  0.00     0.150 C 
BRANCH  26  27
HETATM   27  C   UNL     1      42.646  -9.322  12.181  1.00  0.00    -0.017 A 
HETATM   28  C   UNL     1      41.718  -9.671  13.164  1.00  0.00     0.016 A 
HETATM   29  C   UNL     1      41.622  -8.905  14.328  1.00  0.00     0.037 A 
HETATM   30  C   UNL     1      42.453  -7.800  14.525  1.00  0.00     0.068 A 
HETATM   31  C   UNL     1      43.370  -7.446  13.532  1.00  0.00     0.037 A 
HETATM   32  C   UNL     1      43.469  -8.207  12.360  1.00  0.00     0.016 A 
BRANCH  30  33
HETATM   33  O   UNL     1      42.264  -7.142  15.708  1.00  0.00    -0.356 OA
HETATM   34  C   UNL     1      41.257  -7.659  16.570  1.00  0.00     0.210 C 
ENDBRANCH  30  33
ENDBRANCH  26  27
ENDBRANCH  22  25
ENDBRANCH   1  21
TORSDOF 7
ENDMDL
MODEL 3
REMARK VINA RESULT:      -8.3      2.056      2.421
REMARK  7 active torsions:
REMARK  status: ('A' for Active; 'I' for Inactive)
REMARK    1  A    between atoms: O_2  and  C_3 
REMARK    2  A    between atoms: C_6  and  C_7 
REMARK    3  A    between atoms: N_8  and  N_9 
REMARK       I    between atoms: N_9  and  C_10 
REMARK    4  A    between atoms: C_10  and  C_11 
REMARK       I    between atoms: C_11  and  N_12 
REMARK    5  A    between atoms: N_12  and  C_13 
REMARK    6  A    between atoms: C_14  and  C_15 
REMARK       I    between atoms: C_15  and  N_16 
REMARK    7  A    between atoms: N_16  and  C_17 
ROOT
HETATM    1  C   UNL     1      39.442 -10.294   7.588  1.00  0.00     0.315 C 
HETATM    2  N   UNL     1      40.743 -10.459   7.156  1.00  0.00    -0.318 N 
HETATM    3  O   UNL     1      38.397 -10.560   7.015  1.00  0.00    -0.262 OA
HETATM    4  H   UNL     1      41.409  -9.915   7.707  1.00  0.00     0.169 HD
ENDROOT
BRANCH   2   5
HETATM    5  C   UNL     1      41.157 -10.916   5.890  1.00  0.00     0.051 A 
HETATM    6  C   UNL     1      41.105 -12.239   5.418  1.00  0.00     0.058 A 
HETATM    7  C   UNL     1      41.458 -12.512   4.081  1.00  0.00     0.019 A 
HETATM    8  C   UNL     1      41.908 -11.500   3.234  1.00  0.00     0.001 A 
HETATM    9  C   UNL     1      42.023 -10.203   3.718  1.00  0.00     0.002 A 
HETATM   10  C   UNL     1      41.657  -9.916   5.036  1.00  0.00     0.030 A 
BRANCH   6  11
HETATM   11  C   UNL     1      40.896 -13.456   6.251  1.00  0.00     0.254 C 
HETATM   12  N   UNL     1      42.034 -14.188   6.539  1.00  0.00    -0.352 N 
HETATM   13  H   UNL     1      42.914 -13.857   6.167  1.00  0.00     0.163 HD
HETATM   14  O   UNL     1      39.759 -13.838   6.502  1.00  0.00    -0.268 OA
BRANCH  12  15
HETATM   15  C   UNL     1      41.944 -15.569   7.002  1.00  0.00     0.084 C 
HETATM   16  C   UNL     1      41.538 -16.502   5.853  1.00  0.00     0.025 C 
HETATM   17  C   UNL     1      42.678 -16.757   4.867  1.00  0.00     0.002 C 
HETATM   18  C   UNL     1      43.923 -17.275   5.578  1.00  0.00     0.000 C 
HETATM   19  C   UNL     1      44.365 -16.326   6.686  1.00  0.00     0.002 C 
HETATM   20  C   UNL     1      43.236 -16.053   7.678  1.00  0.00     0.025 C 
ENDBRANCH  12  15
ENDBRANCH   6  11
ENDBRANCH   2   5
BRANCH   1  21
HETATM   21  C   UNL     1      39.389  -9.587   8.953  1.00  0.00     0.329 C 
HETATM   22  N   UNL     1      40.440  -9.935   9.778  1.00  0.00    -0.239 N 
HETATM   23  H   UNL     1      41.121 -10.610   9.436  1.00  0.00     0.192 HD
HETATM   24  O   UNL     1      38.454  -8.829   9.184  1.00  0.00    -0.261 OA
BRANCH  22  25
HETATM   25  N   UNL     1      40.511  -9.435  11.042  1.00  0.00    -0.183 NA
HETATM   26  C   UNL     1      41.679  -9.022  11.418  1.00  0.00     0.150 C 
BRANCH  26  27
HETATM   27  C   UNL     1      41.907  -8.470  12.771  1.00  0.00    -0.017 A 
HETATM   28  C   UNL     1      42.973  -7.603  13.021  1.00  0.00     0.016 A 
HETATM   29  C   UNL     1      43.157  -7.088  14.307  1.00  0.00     0.037 A 
HETATM   30  C   UNL     1      42.279  -7.421  15.341  1.00  0.00     0.068 A 
HETATM   31  C   UNL     1      41.224  -8.300  15.088  1.00  0.00     0.037 A 
HETATM   32  C   UNL     1      41.035  -8.824  13.803  1.00  0.00     0.016 A 
BRANCH  30  33
HETATM   33  O   UNL     1      42.567  -6.843  16.547  1.00  0.00    -0.356 OA
HETATM   34  C   UNL     1      41.572  -5.987  17.096  1.00  0.00     0.210 C 
ENDBRANCH  30  33
ENDBRANCH  26  27
ENDBRANCH  22  25
ENDBRANCH   1  21
TORSDOF 7
ENDMDL
MODEL 4
REMARK VINA RESULT:      -8.3      3.097      9.941
REMARK  7 active torsions:
REMARK  status: ('A' for Active; 'I' for Inactive)
REMARK    1  A    between atoms: O_2  and  C_3 
REMARK    2  A    between atoms: C_6  and  C_7 
REMARK    3  A    between atoms: N_8  and  N_9 
REMARK       I    between atoms: N_9  and  C_10 
REMARK    4  A    between atoms: C_10  and  C_11 
REMARK       I    between atoms: C_11  and  N_12 
REMARK    5  A    between atoms: N_12  and  C_13 
REMARK    6  A    between atoms: C_14  and  C_15 
REMARK       I    between atoms: C_15  and  N_16 
REMARK    7  A    between atoms: N_16  and  C_17 
ROOT
HETATM    1  C   UNL     1      44.637 -11.118   8.422  1.00  0.00     0.315 C 
HETATM    2  N   UNL     1      43.445 -10.771   9.026  1.00  0.00    -0.318 N 
HETATM    3  O   UNL     1      45.778 -10.818   8.736  1.00  0.00    -0.262 OA
HETATM    4  H   UNL     1      42.640 -10.925   8.417  1.00  0.00     0.169 HD
ENDROOT
BRANCH   2   5
HETATM    5  C   UNL     1      43.279  -9.909  10.128  1.00  0.00     0.051 A 
HETATM    6  C   UNL     1      43.054  -8.523  10.082  1.00  0.00     0.058 A 
HETATM    7  C   UNL     1      42.800  -7.822  11.279  1.00  0.00     0.019 A 
HETATM    8  C   UNL     1      42.818  -8.472  12.512  1.00  0.00     0.001 A 
HETATM    9  C   UNL     1      43.105  -9.830  12.565  1.00  0.00     0.002 A 
HETATM   10  C   UNL     1      43.340 -10.540  11.385  1.00  0.00     0.030 A 
BRANCH   6  11
HETATM   11  C   UNL     1      43.251  -7.645   8.895  1.00  0.00     0.254 C 
HETATM   12  N   UNL     1      42.131  -6.958   8.464  1.00  0.00    -0.352 N 
HETATM   13  H   UNL     1      41.267  -7.100   8.970  1.00  0.00     0.163 HD
HETATM   14  O   UNL     1      44.306  -7.686   8.272  1.00  0.00    -0.268 OA
BRANCH  12  15
HETATM   15  C   UNL     1      42.071  -6.379   7.126  1.00  0.00     0.084 C 
HETATM   16  C   UNL     1      41.526  -7.400   6.116  1.00  0.00     0.025 C 
HETATM   17  C   UNL     1      40.019  -7.614   6.245  1.00  0.00     0.002 C 
HETATM   18  C   UNL     1      39.260  -6.295   6.153  1.00  0.00     0.000 C 
HETATM   19  C   UNL     1      39.758  -5.294   7.189  1.00  0.00     0.002 C 
HETATM   20  C   UNL     1      41.265  -5.072   7.080  1.00  0.00     0.025 C 
ENDBRANCH  12  15
ENDBRANCH   6  11
ENDBRANCH   2   5
BRANCH   1  21
HETATM   21  C   UNL     1      44.400 -11.916   7.130  1.00  0.00     0.329 C 
HETATM   22  N   UNL     1      43.507 -12.955   7.298  1.00  0.00    -0.239 N 
HETATM   23  H   UNL     1      43.111 -13.109   8.223  1.00  0.00     0.192 HD
HETATM   24  O   UNL     1      45.010 -11.587   6.118  1.00  0.00    -0.261 OA
BRANCH  22  25
HETATM   25  N   UNL     1      43.229 -13.792   6.260  1.00  0.00    -0.183 NA
HETATM   26  C   UNL     1      43.805 -14.951   6.303  1.00  0.00     0.150 C 
BRANCH  26  27
HETATM   27  C   UNL     1      43.607 -15.953   5.235  1.00  0.00    -0.017 A 
HETATM   28  C   UNL     1      42.818 -15.666   4.119  1.00  0.00     0.016 A 
HETATM   29  C   UNL     1      42.657 -16.628   3.119  1.00  0.00     0.037 A 
HETATM   30  C   UNL     1      43.288 -17.871   3.218  1.00  0.00     0.068 A 
HETATM   31  C   UNL     1      44.064 -18.158   4.343  1.00  0.00     0.037 A 
HETATM   32  C   UNL     1      44.226 -17.200   5.351  1.00  0.00     0.016 A 
BRANCH  30  33
HETATM   33  O   UNL     1      43.056 -18.718   2.169  1.00  0.00    -0.356 OA
HETATM   34  C   UNL     1      43.554 -20.044   2.300  1.00  0.00     0.210 C 
ENDBRANCH  30  33
ENDBRANCH  26  27
ENDBRANCH  22  25
ENDBRANCH   1  21
TORSDOF 7
ENDMDL
MODEL 5
REMARK VINA RESULT:      -8.2      2.565      9.868
REMARK  7 active torsions:
REMARK  status: ('A' for Active; 'I' for Inactive)
REMARK    1  A    between atoms: O_2  and  C_3 
REMARK    2  A    between atoms: C_6  and  C_7 
REMARK    3  A    between atoms: N_8  and  N_9 
REMARK       I    between atoms: N_9  and  C_10 
REMARK    4  A    between atoms: C_10  and  C_11 
REMARK       I    between atoms: C_11  and  N_12 
REMARK    5  A    between atoms: N_12  and  C_13 
REMARK    6  A    between atoms: C_14  and  C_15 
REMARK       I    between atoms: C_15  and  N_16 
REMARK    7  A    between atoms: N_16  and  C_17 
ROOT
HETATM    1  C   UNL     1      43.598 -10.372   7.694  1.00  0.00     0.315 C 
HETATM    2  N   UNL     1      42.253 -10.479   7.987  1.00  0.00    -0.318 N 
HETATM    3  O   UNL     1      44.324  -9.392   7.745  1.00  0.00    -0.262 OA
HETATM    4  H   UNL     1      41.838 -11.331   7.607  1.00  0.00     0.169 HD
ENDROOT
BRANCH   2   5
HETATM    5  C   UNL     1      41.385  -9.430   8.349  1.00  0.00     0.051 A 
HETATM    6  C   UNL     1      41.282  -8.826   9.614  1.00  0.00     0.058 A 
HETATM    7  C   UNL     1      40.436  -7.710   9.781  1.00  0.00     0.019 A 
HETATM    8  C   UNL     1      39.663  -7.228   8.727  1.00  0.00     0.001 A 
HETATM    9  C   UNL     1      39.714  -7.865   7.494  1.00  0.00     0.002 A 
HETATM   10  C   UNL     1      40.562  -8.959   7.309  1.00  0.00     0.030 A 
BRANCH   6  11
HETATM   11  C   UNL     1      41.834  -9.366  10.887  1.00  0.00     0.254 C 
HETATM   12  N   UNL     1      41.382  -8.756  12.043  1.00  0.00    -0.352 N 
HETATM   13  H   UNL     1      40.725  -7.994  11.948  1.00  0.00     0.163 HD
HETATM   14  O   UNL     1      42.748 -10.182  10.860  1.00  0.00    -0.268 OA
BRANCH  12  15
HETATM   15  C   UNL     1      42.100  -8.909  13.305  1.00  0.00     0.084 C 
HETATM   16  C   UNL     1      43.240  -7.885  13.409  1.00  0.00     0.025 C 
HETATM   17  C   UNL     1      42.740  -6.471  13.700  1.00  0.00     0.002 C 
HETATM   18  C   UNL     1      41.860  -6.437  14.944  1.00  0.00     0.000 C 
HETATM   19  C   UNL     1      40.694  -7.411  14.826  1.00  0.00     0.002 C 
HETATM   20  C   UNL     1      41.174  -8.831  14.528  1.00  0.00     0.025 C 
ENDBRANCH  12  15
ENDBRANCH   6  11
ENDBRANCH   2   5
BRANCH   1  21
HETATM   21  C   UNL     1      44.160 -11.695   7.148  1.00  0.00     0.329 C 
HETATM   22  N   UNL     1      43.190 -12.663   6.983  1.00  0.00    -0.239 N 
HETATM   23  H   UNL     1      42.231 -12.435   7.240  1.00  0.00     0.192 HD
HETATM   24  O   UNL     1      45.365 -11.776   6.935  1.00  0.00    -0.261 OA
BRANCH  22  25
HETATM   25  N   UNL     1      43.533 -13.909   6.557  1.00  0.00    -0.183 NA
HETATM   26  C   UNL     1      42.989 -14.293   5.446  1.00  0.00     0.150 C 
BRANCH  26  27
HETATM   27  C   UNL     1      43.257 -15.628   4.873  1.00  0.00    -0.017 A 
HETATM   28  C   UNL     1      43.974 -16.587   5.593  1.00  0.00     0.016 A 
HETATM   29  C   UNL     1      44.203 -17.845   5.032  1.00  0.00     0.037 A 
HETATM   30  C   UNL     1      43.711 -18.159   3.762  1.00  0.00     0.068 A 
HETATM   31  C   UNL     1      43.008 -17.192   3.040  1.00  0.00     0.037 A 
HETATM   32  C   UNL     1      42.779 -15.927   3.595  1.00  0.00     0.016 A 
BRANCH  30  33
HETATM   33  O   UNL     1      43.997 -19.426   3.332  1.00  0.00    -0.356 OA
HETATM   34  C   UNL     1      43.365 -19.848   2.130  1.00  0.00     0.210 C 
ENDBRANCH  30  33
ENDBRANCH  26  27
ENDBRANCH  22  25
ENDBRANCH   1  21
TORSDOF 7
ENDMDL
MODEL 6
REMARK VINA RESULT:      -8.2      2.785      8.784
REMARK  7 active torsions:
REMARK  status: ('A' for Active; 'I' for Inactive)
REMARK    1  A    between atoms: O_2  and  C_3 
REMARK    2  A    between atoms: C_6  and  C_7 
REMARK    3  A    between atoms: N_8  and  N_9 
REMARK       I    between atoms: N_9  and  C_10 
REMARK    4  A    between atoms: C_10  and  C_11 
REMARK       I    between atoms: C_11  and  N_12 
REMARK    5  A    between atoms: N_12  and  C_13 
REMARK    6  A    between atoms: C_14  and  C_15 
REMARK       I    between atoms: C_15  and  N_16 
REMARK    7  A    between atoms: N_16  and  C_17 
ROOT
HETATM    1  C   UNL     1      45.236  -9.507   8.440  1.00  0.00     0.315 C 
HETATM    2  N   UNL     1      44.211  -9.785   9.322  1.00  0.00    -0.318 N 
HETATM    3  O   UNL     1      45.820  -8.453   8.242  1.00  0.00    -0.262 OA
HETATM    4  H   UNL     1      43.730 -10.658   9.099  1.00  0.00     0.169 HD
ENDROOT
BRANCH   2   5
HETATM    5  C   UNL     1      43.547  -8.866  10.158  1.00  0.00     0.051 A 
HETATM    6  C   UNL     1      42.542  -7.960   9.777  1.00  0.00     0.058 A 
HETATM    7  C   UNL     1      41.902  -7.181  10.763  1.00  0.00     0.019 A 
HETATM    8  C   UNL     1      42.283  -7.258  12.102  1.00  0.00     0.001 A 
HETATM    9  C   UNL     1      43.320  -8.105  12.470  1.00  0.00     0.002 A 
HETATM   10  C   UNL     1      43.950  -8.896  11.506  1.00  0.00     0.030 A 
BRANCH   6  11
HETATM   11  C   UNL     1      42.199  -7.574   8.381  1.00  0.00     0.254 C 
HETATM   12  N   UNL     1      41.311  -8.410   7.728  1.00  0.00    -0.352 N 
HETATM   13  H   UNL     1      40.966  -9.216   8.231  1.00  0.00     0.163 HD
HETATM   14  O   UNL     1      42.810  -6.665   7.829  1.00  0.00    -0.268 OA
BRANCH  12  15
HETATM   15  C   UNL     1      41.181  -8.383   6.275  1.00  0.00     0.084 C 
HETATM   16  C   UNL     1      41.862  -9.607   5.646  1.00  0.00     0.025 C 
HETATM   17  C   UNL     1      41.060 -10.894   5.836  1.00  0.00     0.002 C 
HETATM   18  C   UNL     1      39.632 -10.740   5.325  1.00  0.00     0.000 C 
HETATM   19  C   UNL     1      38.930  -9.559   5.985  1.00  0.00     0.002 C 
HETATM   20  C   UNL     1      39.721  -8.264   5.811  1.00  0.00     0.025 C 
ENDBRANCH  12  15
ENDBRANCH   6  11
ENDBRANCH   2   5
BRANCH   1  21
HETATM   21  C   UNL     1      45.565 -10.724   7.561  1.00  0.00     0.329 C 
HETATM   22  N   UNL     1      44.468 -11.528   7.325  1.00  0.00    -0.239 N 
HETATM   23  H   UNL     1      43.578 -11.268   7.746  1.00  0.00     0.192 HD
HETATM   24  O   UNL     1      46.721 -10.877   7.181  1.00  0.00    -0.261 OA
BRANCH  22  25
HETATM   25  N   UNL     1      44.603 -12.676   6.606  1.00  0.00    -0.183 NA
HETATM   26  C   UNL     1      43.599 -13.491   6.655  1.00  0.00     0.150 C 
BRANCH  26  27
HETATM   27  C   UNL     1      43.614 -14.783   5.937  1.00  0.00    -0.017 A 
HETATM   28  C   UNL     1      44.277 -15.891   6.468  1.00  0.00     0.016 A 
HETATM   29  C   UNL     1      44.265 -17.103   5.773  1.00  0.00     0.037 A 
HETATM   30  C   UNL     1      43.586 -17.221   4.558  1.00  0.00     0.068 A 
HETATM   31  C   UNL     1      42.935 -16.106   4.025  1.00  0.00     0.037 A 
HETATM   32  C   UNL     1      42.947 -14.887   4.713  1.00  0.00     0.016 A 
BRANCH  30  33
HETATM   33  O   UNL     1      43.645 -18.462   3.985  1.00  0.00    -0.356 OA
HETATM   34  C   UNL     1      44.270 -19.487   4.749  1.00  0.00     0.210 C 
ENDBRANCH  30  33
ENDBRANCH  26  27
ENDBRANCH  22  25
ENDBRANCH   1  21
TORSDOF 7
ENDMDL
MODEL 7
REMARK VINA RESULT:      -8.1      2.698      9.696
REMARK  7 active torsions:
REMARK  status: ('A' for Active; 'I' for Inactive)
REMARK    1  A    between atoms: O_2  and  C_3 
REMARK    2  A    between atoms: C_6  and  C_7 
REMARK    3  A    between atoms: N_8  and  N_9 
REMARK       I    between atoms: N_9  and  C_10 
REMARK    4  A    between atoms: C_10  and  C_11 
REMARK       I    between atoms: C_11  and  N_12 
REMARK    5  A    between atoms: N_12  and  C_13 
REMARK    6  A    between atoms: C_14  and  C_15 
REMARK       I    between atoms: C_15  and  N_16 
REMARK    7  A    between atoms: N_16  and  C_17 
ROOT
HETATM    1  C   UNL     1      40.188 -11.212   6.447  1.00  0.00     0.315 C 
HETATM    2  N   UNL     1      41.314 -10.457   6.188  1.00  0.00    -0.318 N 
HETATM    3  O   UNL     1      39.170 -10.902   7.046  1.00  0.00    -0.262 OA
HETATM    4  H   UNL     1      42.113 -11.030   5.912  1.00  0.00     0.169 HD
ENDROOT
BRANCH   2   5
HETATM    5  C   UNL     1      41.570  -9.147   6.638  1.00  0.00     0.051 A 
HETATM    6  C   UNL     1      42.274  -8.780   7.798  1.00  0.00     0.058 A 
HETATM    7  C   UNL     1      42.537  -7.418   8.047  1.00  0.00     0.019 A 
HETATM    8  C   UNL     1      42.067  -6.425   7.189  1.00  0.00     0.001 A 
HETATM    9  C   UNL     1      41.315  -6.781   6.078  1.00  0.00     0.002 A 
HETATM   10  C   UNL     1      41.064  -8.129   5.808  1.00  0.00     0.030 A 
BRANCH   6  11
HETATM   11  C   UNL     1      42.618  -9.682   8.932  1.00  0.00     0.254 C 
HETATM   12  N   UNL     1      41.940  -9.446  10.114  1.00  0.00    -0.352 N 
HETATM   13  H   UNL     1      41.273  -8.686  10.131  1.00  0.00     0.163 HD
HETATM   14  O   UNL     1      43.562 -10.459   8.832  1.00  0.00    -0.268 OA
BRANCH  12  15
HETATM   15  C   UNL     1      42.430  -9.976  11.382  1.00  0.00     0.084 C 
HETATM   16  C   UNL     1      43.615  -9.146  11.897  1.00  0.00     0.025 C 
HETATM   17  C   UNL     1      43.187  -7.793  12.464  1.00  0.00     0.002 C 
HETATM   18  C   UNL     1      42.122  -7.953  13.543  1.00  0.00     0.000 C 
HETATM   19  C   UNL     1      40.918  -8.730  13.024  1.00  0.00     0.002 C 
HETATM   20  C   UNL     1      41.327 -10.084  12.446  1.00  0.00     0.025 C 
ENDBRANCH  12  15
ENDBRANCH   6  11
ENDBRANCH   2   5
BRANCH   1  21
HETATM   21  C   UNL     1      40.359 -12.660   5.958  1.00  0.00     0.329 C 
HETATM   22  N   UNL     1      41.369 -12.796   5.028  1.00  0.00    -0.239 N 
HETATM   23  H   UNL     1      41.882 -11.963   4.745  1.00  0.00     0.192 HD
HETATM   24  O   UNL     1      39.606 -13.520   6.401  1.00  0.00    -0.261 OA
BRANCH  22  25
HETATM   25  N   UNL     1      41.614 -14.007   4.456  1.00  0.00    -0.183 NA
HETATM   26  C   UNL     1      42.663 -14.631   4.890  1.00  0.00     0.150 C 
BRANCH  26  27
HETATM   27  C   UNL     1      43.060 -15.948   4.348  1.00  0.00    -0.017 A 
HETATM   28  C   UNL     1      42.610 -16.373   3.096  1.00  0.00     0.016 A 
HETATM   29  C   UNL     1      43.011 -17.617   2.603  1.00  0.00     0.037 A 
HETATM   30  C   UNL     1      43.866 -18.436   3.345  1.00  0.00     0.068 A 
HETATM   31  C   UNL     1      44.302 -18.012   4.603  1.00  0.00     0.037 A 
HETATM   32  C   UNL     1      43.900 -16.768   5.105  1.00  0.00     0.016 A 
BRANCH  30  33
HETATM   33  O   UNL     1      44.188 -19.623   2.746  1.00  0.00    -0.356 OA
HETATM   34  C   UNL     1      43.177 -20.230   1.951  1.00  0.00     0.210 C 
ENDBRANCH  30  33
ENDBRANCH  26  27
ENDBRANCH  22  25
ENDBRANCH   1  21
TORSDOF 7
ENDMDL
MODEL 8
REMARK VINA RESULT:      -8.0     19.373     21.244
REMARK  7 active torsions:
REMARK  status: ('A' for Active; 'I' for Inactive)
REMARK    1  A    between atoms: O_2  and  C_3 
REMARK    2  A    between atoms: C_6  and  C_7 
REMARK    3  A    between atoms: N_8  and  N_9 
REMARK       I    between atoms: N_9  and  C_10 
REMARK    4  A    between atoms: C_10  and  C_11 
REMARK       I    between atoms: C_11  and  N_12 
REMARK    5  A    between atoms: N_12  and  C_13 
REMARK    6  A    between atoms: C_14  and  C_15 
REMARK       I    between atoms: C_15  and  N_16 
REMARK    7  A    between atoms: N_16  and  C_17 
ROOT
HETATM    1  C   UNL     1      43.578 -30.266   0.573  1.00  0.00     0.315 C 
HETATM    2  N   UNL     1      44.145 -29.009   0.506  1.00  0.00    -0.318 N 
HETATM    3  O   UNL     1      43.939 -31.306   0.045  1.00  0.00    -0.262 OA
HETATM    4  H   UNL     1      43.505 -28.275   0.812  1.00  0.00     0.169 HD
ENDROOT
BRANCH   2   5
HETATM    5  C   UNL     1      45.258 -28.628  -0.269  1.00  0.00     0.051 A 
HETATM    6  C   UNL     1      46.590 -28.523   0.168  1.00  0.00     0.058 A 
HETATM    7  C   UNL     1      47.605 -28.235  -0.766  1.00  0.00     0.019 A 
HETATM    8  C   UNL     1      47.305 -28.002  -2.107  1.00  0.00     0.001 A 
HETATM    9  C   UNL     1      45.982 -28.040  -2.529  1.00  0.00     0.002 A 
HETATM   10  C   UNL     1      44.968 -28.344  -1.617  1.00  0.00     0.030 A 
BRANCH   6  11
HETATM   11  C   UNL     1      47.042 -28.490   1.586  1.00  0.00     0.254 C 
HETATM   12  N   UNL     1      48.265 -29.082   1.841  1.00  0.00    -0.352 N 
HETATM   13  H   UNL     1      48.759 -29.497   1.062  1.00  0.00     0.163 HD
HETATM   14  O   UNL     1      46.278 -28.103   2.464  1.00  0.00    -0.268 OA
BRANCH  12  15
HETATM   15  C   UNL     1      48.653 -29.461   3.196  1.00  0.00     0.084 C 
HETATM   16  C   UNL     1      48.069 -30.832   3.565  1.00  0.00     0.025 C 
HETATM   17  C   UNL     1      48.797 -31.989   2.882  1.00  0.00     0.002 C 
HETATM   18  C   UNL     1      50.296 -31.941   3.155  1.00  0.00     0.000 C 
HETATM   19  C   UNL     1      50.894 -30.602   2.741  1.00  0.00     0.002 C 
HETATM   20  C   UNL     1      50.174 -29.432   3.409  1.00  0.00     0.025 C 
ENDBRANCH  12  15
ENDBRANCH   6  11
ENDBRANCH   2   5
BRANCH   1  21
HETATM   21  C   UNL     1      42.262 -30.245   1.368  1.00  0.00     0.329 C 
HETATM   22  N   UNL     1      41.853 -31.504   1.760  1.00  0.00    -0.239 N 
HETATM   23  H   UNL     1      42.421 -32.304   1.490  1.00  0.00     0.192 HD
HETATM   24  O   UNL     1      41.709 -29.167   1.557  1.00  0.00    -0.261 OA
BRANCH  22  25
HETATM   25  N   UNL     1      40.677 -31.663   2.428  1.00  0.00    -0.183 NA
HETATM   26  C   UNL     1      40.626 -32.668   3.243  1.00  0.00     0.150 C 
BRANCH  26  27
HETATM   27  C   UNL     1      39.407 -32.972   4.022  1.00  0.00    -0.017 A 
HETATM   28  C   UNL     1      39.432 -32.977   5.418  1.00  0.00     0.016 A 
HETATM   29  C   UNL     1      38.262 -33.256   6.129  1.00  0.00     0.037 A 
HETATM   30  C   UNL     1      37.065 -33.518   5.458  1.00  0.00     0.068 A 
HETATM   31  C   UNL     1      37.049 -33.525   4.061  1.00  0.00     0.037 A 
HETATM   32  C   UNL     1      38.219 -33.251   3.342  1.00  0.00     0.016 A 
BRANCH  30  33
HETATM   33  O   UNL     1      35.993 -33.767   6.271  1.00  0.00    -0.356 OA
HETATM   34  C   UNL     1      36.171 -34.761   7.272  1.00  0.00     0.210 C 
ENDBRANCH  30  33
ENDBRANCH  26  27
ENDBRANCH  22  25
ENDBRANCH   1  21
TORSDOF 7
ENDMDL
MODEL 9
REMARK VINA RESULT:      -8.0      5.624     10.853
REMARK  7 active torsions:
REMARK  status: ('A' for Active; 'I' for Inactive)
REMARK    1  A    between atoms: O_2  and  C_3 
REMARK    2  A    between atoms: C_6  and  C_7 
REMARK    3  A    between atoms: N_8  and  N_9 
REMARK       I    between atoms: N_9  and  C_10 
REMARK    4  A    between atoms: C_10  and  C_11 
REMARK       I    between atoms: C_11  and  N_12 
REMARK    5  A    between atoms: N_12  and  C_13 
REMARK    6  A    between atoms: C_14  and  C_15 
REMARK       I    between atoms: C_15  and  N_16 
REMARK    7  A    between atoms: N_16  and  C_17 
ROOT
HETATM    1  C   UNL     1      41.967 -15.260   1.582  1.00  0.00     0.315 C 
HETATM    2  N   UNL     1      41.789 -16.505   2.151  1.00  0.00    -0.318 N 
HETATM    3  O   UNL     1      42.864 -14.450   1.758  1.00  0.00    -0.262 OA
HETATM    4  H   UNL     1      40.835 -16.852   2.039  1.00  0.00     0.169 HD
ENDROOT
BRANCH   2   5
HETATM    5  C   UNL     1      42.592 -17.098   3.146  1.00  0.00     0.051 A 
HETATM    6  C   UNL     1      42.575 -16.807   4.521  1.00  0.00     0.058 A 
HETATM    7  C   UNL     1      43.368 -17.572   5.400  1.00  0.00     0.019 A 
HETATM    8  C   UNL     1      44.206 -18.578   4.923  1.00  0.00     0.001 A 
HETATM    9  C   UNL     1      44.273 -18.823   3.558  1.00  0.00     0.002 A 
HETATM   10  C   UNL     1      43.478 -18.086   2.677  1.00  0.00     0.030 A 
BRANCH   6  11
HETATM   11  C   UNL     1      41.942 -15.617   5.153  1.00  0.00     0.254 C 
HETATM   12  N   UNL     1      42.595 -14.414   4.956  1.00  0.00    -0.352 N 
HETATM   13  H   UNL     1      43.447 -14.424   4.411  1.00  0.00     0.163 HD
HETATM   14  O   UNL     1      41.001 -15.762   5.926  1.00  0.00    -0.268 OA
BRANCH  12  15
HETATM   15  C   UNL     1      42.322 -13.260   5.806  1.00  0.00     0.084 C 
HETATM   16  C   UNL     1      43.330 -13.185   6.962  1.00  0.00     0.025 C 
HETATM   17  C   UNL     1      44.710 -12.706   6.513  1.00  0.00     0.002 C 
HETATM   18  C   UNL     1      44.624 -11.375   5.775  1.00  0.00     0.000 C 
HETATM   19  C   UNL     1      43.666 -11.456   4.593  1.00  0.00     0.002 C 
HETATM   20  C   UNL     1      42.282 -11.940   5.021  1.00  0.00     0.025 C 
ENDBRANCH  12  15
ENDBRANCH   6  11
ENDBRANCH   2   5
BRANCH   1  21
HETATM   21  C   UNL     1      40.780 -14.879   0.683  1.00  0.00     0.329 C 
HETATM   22  N   UNL     1      40.998 -13.718  -0.032  1.00  0.00    -0.239 N 
HETATM   23  H   UNL     1      41.879 -13.226   0.102  1.00  0.00     0.192 HD
HETATM   24  O   UNL     1      39.784 -15.595   0.693  1.00  0.00    -0.261 OA
BRANCH  22  25
HETATM   25  N   UNL     1      40.021 -13.216  -0.836  1.00  0.00    -0.183 NA
HETATM   26  C   UNL     1      39.253 -12.324  -0.297  1.00  0.00     0.150 C 
BRANCH  26  27
HETATM   27  C   UNL     1      38.140 -11.705  -1.047  1.00  0.00    -0.017 A 
HETATM   28  C   UNL     1      37.585 -10.491  -0.635  1.00  0.00     0.016 A 
HETATM   29  C   UNL     1      36.542  -9.923  -1.370  1.00  0.00     0.037 A 
HETATM   30  C   UNL     1      36.057 -10.550  -2.520  1.00  0.00     0.068 A 
HETATM   31  C   UNL     1      36.606 -11.770  -2.920  1.00  0.00     0.037 A 
HETATM   32  C   UNL     1      37.649 -12.348  -2.186  1.00  0.00     0.016 A 
BRANCH  30  33
HETATM   33  O   UNL     1      35.041  -9.885  -3.152  1.00  0.00    -0.356 OA
HETATM   34  C   UNL     1      33.951  -9.469  -2.338  1.00  0.00     0.210 C 
ENDBRANCH  30  33
ENDBRANCH  26  27
ENDBRANCH  22  25
ENDBRANCH   1  21
TORSDOF 7
ENDMDL
MODEL 10
REMARK VINA RESULT:      -7.9      2.821      9.326
REMARK  7 active torsions:
REMARK  status: ('A' for Active; 'I' for Inactive)
REMARK    1  A    between atoms: O_2  and  C_3 
REMARK    2  A    between atoms: C_6  and  C_7 
REMARK    3  A    between atoms: N_8  and  N_9 
REMARK       I    between atoms: N_9  and  C_10 
REMARK    4  A    between atoms: C_10  and  C_11 
REMARK       I    between atoms: C_11  and  N_12 
REMARK    5  A    between atoms: N_12  and  C_13 
REMARK    6  A    between atoms: C_14  and  C_15 
REMARK       I    between atoms: C_15  and  N_16 
REMARK    7  A    between atoms: N_16  and  C_17 
ROOT
HETATM    1  C   UNL     1      43.625  -9.973   9.403  1.00  0.00     0.315 C 
HETATM    2  N   UNL     1      42.982 -10.575  10.466  1.00  0.00    -0.318 N 
HETATM    3  O   UNL     1      43.700  -8.789   9.115  1.00  0.00    -0.262 OA
HETATM    4  H   UNL     1      42.849 -11.578  10.324  1.00  0.00     0.169 HD
ENDROOT
BRANCH   2   5
HETATM    5  C   UNL     1      42.186  -9.938  11.438  1.00  0.00     0.051 A 
HETATM    6  C   UNL     1      40.871  -9.472  11.271  1.00  0.00     0.058 A 
HETATM    7  C   UNL     1      40.173  -8.953  12.381  1.00  0.00     0.019 A 
HETATM    8  C   UNL     1      40.783  -8.849  13.630  1.00  0.00     0.001 A 
HETATM    9  C   UNL     1      42.105  -9.248  13.781  1.00  0.00     0.002 A 
HETATM   10  C   UNL     1      42.801  -9.782  12.694  1.00  0.00     0.030 A 
BRANCH   6  11
HETATM   11  C   UNL     1      40.173  -9.276   9.970  1.00  0.00     0.254 C 
HETATM   12  N   UNL     1      40.665  -8.260   9.171  1.00  0.00    -0.352 N 
HETATM   13  H   UNL     1      41.447  -7.723   9.520  1.00  0.00     0.163 HD
HETATM   14  O   UNL     1      39.134  -9.885   9.735  1.00  0.00    -0.268 OA
BRANCH  12  15
HETATM   15  C   UNL     1      39.871  -7.710   8.077  1.00  0.00     0.084 C 
HETATM   16  C   UNL     1      39.989  -6.180   8.035  1.00  0.00     0.025 C 
HETATM   17  C   UNL     1      41.334  -5.705   7.487  1.00  0.00     0.002 C 
HETATM   18  C   UNL     1      41.623  -6.313   6.119  1.00  0.00     0.000 C 
HETATM   19  C   UNL     1      41.561  -7.835   6.164  1.00  0.00     0.002 C 
HETATM   20  C   UNL     1      40.225  -8.329   6.716  1.00  0.00     0.025 C 
ENDBRANCH  12  15
ENDBRANCH   6  11
ENDBRANCH   2   5
BRANCH   1  21
HETATM   21  C   UNL     1      44.229 -11.017   8.448  1.00  0.00     0.329 C 
HETATM   22  N   UNL     1      43.272 -11.687   7.713  1.00  0.00    -0.239 N 
HETATM   23  H   UNL     1      42.293 -11.457   7.868  1.00  0.00     0.192 HD
HETATM   24  O   UNL     1      45.445 -11.167   8.439  1.00  0.00    -0.261 OA
BRANCH  22  25
HETATM   25  N   UNL     1      43.639 -12.681   6.858  1.00  0.00    -0.183 NA
HETATM   26  C   UNL     1      42.986 -13.793   6.975  1.00  0.00     0.150 C 
BRANCH  26  27
HETATM   27  C   UNL     1      43.289 -14.963   6.125  1.00  0.00    -0.017 A 
HETATM   28  C   UNL     1      44.275 -15.881   6.494  1.00  0.00     0.016 A 
HETATM   29  C   UNL     1      44.532 -16.985   5.676  1.00  0.00     0.037 A 
HETATM   30  C   UNL     1      43.806 -17.185   4.500  1.00  0.00     0.068 A 
HETATM   31  C   UNL     1      42.831 -16.256   4.129  1.00  0.00     0.037 A 
HETATM   32  C   UNL     1      42.571 -15.145   4.941  1.00  0.00     0.016 A 
BRANCH  30  33
HETATM   33  O   UNL     1      44.150 -18.307   3.796  1.00  0.00    -0.356 OA
HETATM   34  C   UNL     1      43.505 -18.494   2.542  1.00  0.00     0.210 C 
ENDBRANCH  30  33
ENDBRANCH  26  27
ENDBRANCH  22  25
ENDBRANCH   1  21
TORSDOF 7
ENDMDL
