MODEL 1
REMARK VINA RESULT:      -8.7      0.000      0.000
REMARK  3 active torsions:
REMARK  status: ('A' for Active; 'I' for Inactive)
REMARK    1  A    between atoms: C_2  and  O_3 
REMARK    2  A    between atoms: O_3  and  C_4 
REMARK    3  A    between atoms: C_10  and  N_11 
REMARK       I    between atoms: N_11  and  C_12 
REMARK       I    between atoms: C_12  and  N_13 
ROOT
HETATM    1  N   UNL     1      42.866 -12.378   6.214  1.00  0.00    -0.306 N 
HETATM    2  C   UNL     1      42.612 -12.809   4.934  1.00  0.00     0.323 C 
HETATM    3  N   UNL     1      42.726 -14.187   4.725  1.00  0.00    -0.328 N 
HETATM    4  C   UNL     1      42.847 -15.170   5.817  1.00  0.00     0.185 C 
HETATM    5  C   UNL     1      43.146 -16.522   5.271  1.00  0.00     0.035 A 
HETATM    6  C   UNL     1      43.239 -16.880   3.944  1.00  0.00    -0.020 A 
HETATM    7  C   UNL     1      43.046 -15.875   2.871  1.00  0.00     0.061 C 
HETATM    8  C   UNL     1      42.234 -14.690   3.420  1.00  0.00     0.132 C 
HETATM    9  N   UNL     1      43.368 -17.644   6.025  1.00  0.00    -0.357 N 
HETATM   10  H   UNL     1      43.359 -17.692   7.033  1.00  0.00     0.166 HD
HETATM   11  C   UNL     1      43.607 -18.723   5.199  1.00  0.00     0.043 A 
HETATM   12  C   UNL     1      43.532 -18.267   3.881  1.00  0.00    -0.001 A 
HETATM   13  C   UNL     1      43.884 -20.059   5.519  1.00  0.00     0.030 A 
HETATM   14  C   UNL     1      44.087 -20.950   4.460  1.00  0.00     0.002 A 
HETATM   15  C   UNL     1      44.018 -20.522   3.136  1.00  0.00     0.001 A 
HETATM   16  C   UNL     1      43.741 -19.184   2.832  1.00  0.00     0.014 A 
HETATM   17  O   UNL     1      42.291 -12.057   4.015  1.00  0.00    -0.247 OA
HETATM   18  H   UNL     1      43.260 -13.025   6.878  1.00  0.00     0.171 HD
ENDROOT
BRANCH   1  19
HETATM   19  C   UNL     1      42.701 -11.075   6.748  1.00  0.00     0.071 A 
HETATM   20  C   UNL     1      43.669 -10.633   7.675  1.00  0.00     0.117 A 
HETATM   21  C   UNL     1      43.518  -9.390   8.311  1.00  0.00     0.069 A 
HETATM   22 CL   UNL     1      44.582  -8.847   9.558  1.00  0.00    -0.081 Cl
HETATM   23  C   UNL     1      42.449  -8.559   7.973  1.00  0.00     0.027 A 
HETATM   24  C   UNL     1      41.516  -8.974   7.025  1.00  0.00     0.004 A 
HETATM   25  C   UNL     1      41.636 -10.231   6.425  1.00  0.00     0.032 A 
BRANCH  20  26
HETATM   26  O   UNL     1      44.698 -11.507   7.957  1.00  0.00    -0.347 OA
BRANCH  26  27
HETATM   27  C   UNL     1      45.972 -11.005   7.530  1.00  0.00     0.171 C 
HETATM   28  C   UNL     1      46.133 -11.319   6.054  1.00  0.00     0.034 C 
ENDBRANCH  26  27
ENDBRANCH  20  26
ENDBRANCH   1  19
TORSDOF 3
ENDMDL
MODEL 2
REMARK VINA RESULT:      -8.5      4.728      6.645
REMARK  3 active torsions:
REMARK  status: ('A' for Active; 'I' for Inactive)
REMARK    1  A    between atoms: C_2  and  O_3 
REMARK    2  A    between atoms: O_3  and  C_4 
REMARK    3  A    between atoms: C_10  and  N_11 
REMARK       I    between atoms: N_11  and  C_12 
REMARK       I    between atoms: C_12  and  N_13 
ROOT
HETATM    1  N   UNL     1      41.300 -13.144   0.931  1.00  0.00    -0.306 N 
HETATM    2  C   UNL     1      41.858 -13.181   2.187  1.00  0.00     0.323 C 
HETATM    3  N   UNL     1      42.368 -14.420   2.587  1.00  0.00    -0.328 N 
HETATM    4  C   UNL     1      42.554 -15.560   1.671  1.00  0.00     0.185 C 
HETATM    5  C   UNL     1      42.926 -16.784   2.430  1.00  0.00     0.035 A 
HETATM    6  C   UNL     1      43.145 -16.887   3.787  1.00  0.00    -0.020 A 
HETATM    7  C   UNL     1      43.011 -15.702   4.669  1.00  0.00     0.061 C 
HETATM    8  C   UNL     1      43.172 -14.421   3.833  1.00  0.00     0.132 C 
HETATM    9  N   UNL     1      43.119 -18.023   1.879  1.00  0.00    -0.357 N 
HETATM   10  H   UNL     1      43.033 -18.257   0.901  1.00  0.00     0.166 HD
HETATM   11  C   UNL     1      43.459 -18.926   2.866  1.00  0.00     0.043 A 
HETATM   12  C   UNL     1      43.482 -18.233   4.079  1.00  0.00    -0.001 A 
HETATM   13  C   UNL     1      43.744 -20.295   2.775  1.00  0.00     0.030 A 
HETATM   14  C   UNL     1      44.063 -20.970   3.958  1.00  0.00     0.002 A 
HETATM   15  C   UNL     1      44.093 -20.304   5.182  1.00  0.00     0.001 A 
HETATM   16  C   UNL     1      43.805 -18.937   5.256  1.00  0.00     0.014 A 
HETATM   17  O   UNL     1      41.929 -12.201   2.928  1.00  0.00    -0.247 OA
HETATM   18  H   UNL     1      41.148 -14.009   0.439  1.00  0.00     0.171 HD
ENDROOT
BRANCH   1  19
HETATM   19  C   UNL     1      40.831 -12.014   0.215  1.00  0.00     0.071 A 
HETATM   20  C   UNL     1      39.794 -12.229  -0.717  1.00  0.00     0.117 A 
HETATM   21  C   UNL     1      39.344 -11.173  -1.526  1.00  0.00     0.069 A 
HETATM   22 CL   UNL     1      38.182 -11.393  -2.784  1.00  0.00    -0.081 Cl
HETATM   23  C   UNL     1      39.873  -9.892  -1.358  1.00  0.00     0.027 A 
HETATM   24  C   UNL     1      40.866  -9.667  -0.407  1.00  0.00     0.004 A 
HETATM   25  C   UNL     1      41.350 -10.726   0.366  1.00  0.00     0.032 A 
BRANCH  20  26
HETATM   26  O   UNL     1      39.320 -13.520  -0.826  1.00  0.00    -0.347 OA
BRANCH  26  27
HETATM   27  C   UNL     1      39.878 -14.212  -1.952  1.00  0.00     0.171 C 
HETATM   28  C   UNL     1      38.759 -14.968  -2.645  1.00  0.00     0.034 C 
ENDBRANCH  26  27
ENDBRANCH  20  26
ENDBRANCH   1  19
TORSDOF 3
ENDMDL
MODEL 3
REMARK VINA RESULT:      -8.3      3.064      8.396
REMARK  3 active torsions:
REMARK  status: ('A' for Active; 'I' for Inactive)
REMARK    1  A    between atoms: C_2  and  O_3 
REMARK    2  A    between atoms: O_3  and  C_4 
REMARK    3  A    between atoms: C_10  and  N_11 
REMARK       I    between atoms: N_11  and  C_12 
REMARK       I    between atoms: C_12  and  N_13 
ROOT
HETATM    1  N   UNL     1      43.252 -15.384   4.660  1.00  0.00    -0.306 N 
HETATM    2  C   UNL     1      42.276 -14.418   4.604  1.00  0.00     0.323 C 
HETATM    3  N   UNL     1      42.587 -13.205   5.228  1.00  0.00    -0.328 N 
HETATM    4  C   UNL     1      43.940 -12.851   5.692  1.00  0.00     0.185 C 
HETATM    5  C   UNL     1      43.907 -11.590   6.482  1.00  0.00     0.035 A 
HETATM    6  C   UNL     1      42.812 -10.788   6.722  1.00  0.00    -0.020 A 
HETATM    7  C   UNL     1      41.477 -11.144   6.183  1.00  0.00     0.061 C 
HETATM    8  C   UNL     1      41.647 -12.086   4.979  1.00  0.00     0.132 C 
HETATM    9  N   UNL     1      44.989 -11.017   7.096  1.00  0.00    -0.357 N 
HETATM   10  H   UNL     1      45.933 -11.377   7.091  1.00  0.00     0.166 HD
HETATM   11  C   UNL     1      44.605  -9.855   7.733  1.00  0.00     0.043 A 
HETATM   12  C   UNL     1      43.236  -9.689   7.512  1.00  0.00    -0.001 A 
HETATM   13  C   UNL     1      45.362  -8.947   8.485  1.00  0.00     0.030 A 
HETATM   14  C   UNL     1      44.699  -7.838   9.021  1.00  0.00     0.002 A 
HETATM   15  C   UNL     1      43.334  -7.647   8.817  1.00  0.00     0.001 A 
HETATM   16  C   UNL     1      42.591  -8.564   8.064  1.00  0.00     0.014 A 
HETATM   17  O   UNL     1      41.194 -14.577   4.039  1.00  0.00    -0.247 OA
HETATM   18  H   UNL     1      44.050 -15.238   5.257  1.00  0.00     0.171 HD
ENDROOT
BRANCH   1  19
HETATM   19  C   UNL     1      43.274 -16.645   4.013  1.00  0.00     0.071 A 
HETATM   20  C   UNL     1      43.813 -17.730   4.736  1.00  0.00     0.117 A 
HETATM   21  C   UNL     1      43.949 -18.986   4.124  1.00  0.00     0.069 A 
HETATM   22 CL   UNL     1      44.729 -20.319   4.896  1.00  0.00    -0.081 Cl
HETATM   23  C   UNL     1      43.485 -19.181   2.822  1.00  0.00     0.027 A 
HETATM   24  C   UNL     1      42.911 -18.123   2.121  1.00  0.00     0.004 A 
HETATM   25  C   UNL     1      42.817 -16.859   2.710  1.00  0.00     0.032 A 
BRANCH  20  26
HETATM   26  O   UNL     1      44.249 -17.462   6.017  1.00  0.00    -0.347 OA
BRANCH  26  27
HETATM   27  C   UNL     1      43.199 -17.582   6.987  1.00  0.00     0.171 C 
HETATM   28  C   UNL     1      43.248 -16.364   7.891  1.00  0.00     0.034 C 
ENDBRANCH  26  27
ENDBRANCH  20  26
ENDBRANCH   1  19
TORSDOF 3
ENDMDL
MODEL 4
REMARK VINA RESULT:      -8.2      2.406      3.579
REMARK  3 active torsions:
REMARK  status: ('A' for Active; 'I' for Inactive)
REMARK    1  A    between atoms: C_2  and  O_3 
REMARK    2  A    between atoms: O_3  and  C_4 
REMARK    3  A    between atoms: C_10  and  N_11 
REMARK       I    between atoms: N_11  and  C_12 
REMARK       I    between atoms: C_12  and  N_13 
ROOT
HETATM    1  N   UNL     1      41.886 -10.228   7.882  1.00  0.00    -0.306 N 
HETATM    2  C   UNL     1      42.175  -9.943   6.569  1.00  0.00     0.323 C 
HETATM    3  N   UNL     1      42.218 -11.043   5.706  1.00  0.00    -0.328 N 
HETATM    4  C   UNL     1      41.738 -12.387   6.074  1.00  0.00     0.185 C 
HETATM    5  C   UNL     1      42.096 -13.375   5.020  1.00  0.00     0.035 A 
HETATM    6  C   UNL     1      42.724 -13.120   3.821  1.00  0.00    -0.020 A 
HETATM    7  C   UNL     1      43.135 -11.743   3.457  1.00  0.00     0.061 C 
HETATM    8  C   UNL     1      42.299 -10.731   4.258  1.00  0.00     0.132 C 
HETATM    9  N   UNL     1      41.840 -14.719   5.082  1.00  0.00    -0.357 N 
HETATM   10  H   UNL     1      41.382 -15.201   5.843  1.00  0.00     0.166 HD
HETATM   11  C   UNL     1      42.298 -15.337   3.936  1.00  0.00     0.043 A 
HETATM   12  C   UNL     1      42.861 -14.349   3.125  1.00  0.00    -0.001 A 
HETATM   13  C   UNL     1      42.257 -16.686   3.562  1.00  0.00     0.030 A 
HETATM   14  C   UNL     1      42.807 -17.031   2.322  1.00  0.00     0.002 A 
HETATM   15  C   UNL     1      43.375 -16.067   1.493  1.00  0.00     0.001 A 
HETATM   16  C   UNL     1      43.408 -14.723   1.882  1.00  0.00     0.014 A 
HETATM   17  O   UNL     1      42.377  -8.804   6.149  1.00  0.00    -0.247 OA
HETATM   18  H   UNL     1      41.873 -11.189   8.182  1.00  0.00     0.171 HD
ENDROOT
BRANCH   1  19
HETATM   19  C   UNL     1      41.647  -9.318   8.943  1.00  0.00     0.071 A 
HETATM   20  C   UNL     1      42.653  -9.196   9.924  1.00  0.00     0.117 A 
HETATM   21  C   UNL     1      42.445  -8.382  11.049  1.00  0.00     0.069 A 
HETATM   22 CL   UNL     1      43.569  -8.295  12.358  1.00  0.00    -0.081 Cl
HETATM   23  C   UNL     1      41.270  -7.637  11.162  1.00  0.00     0.027 A 
HETATM   24  C   UNL     1      40.293  -7.721  10.172  1.00  0.00     0.004 A 
HETATM   25  C   UNL     1      40.477  -8.566   9.075  1.00  0.00     0.032 A 
BRANCH  20  26
HETATM   26  O   UNL     1      43.787  -9.961   9.744  1.00  0.00    -0.347 OA
BRANCH  26  27
HETATM   27  C   UNL     1      44.881  -9.199   9.215  1.00  0.00     0.171 C 
HETATM   28  C   UNL     1      45.622 -10.067   8.214  1.00  0.00     0.034 C 
ENDBRANCH  26  27
ENDBRANCH  20  26
ENDBRANCH   1  19
TORSDOF 3
ENDMDL
MODEL 5
REMARK VINA RESULT:      -8.2      1.297      1.578
REMARK  3 active torsions:
REMARK  status: ('A' for Active; 'I' for Inactive)
REMARK    1  A    between atoms: C_2  and  O_3 
REMARK    2  A    between atoms: O_3  and  C_4 
REMARK    3  A    between atoms: C_10  and  N_11 
REMARK       I    between atoms: N_11  and  C_12 
REMARK       I    between atoms: C_12  and  N_13 
ROOT
HETATM    1  N   UNL     1      41.769 -11.631   6.341  1.00  0.00    -0.306 N 
HETATM    2  C   UNL     1      41.131 -12.106   5.220  1.00  0.00     0.323 C 
HETATM    3  N   UNL     1      41.451 -13.416   4.850  1.00  0.00    -0.328 N 
HETATM    4  C   UNL     1      42.206 -14.345   5.711  1.00  0.00     0.185 C 
HETATM    5  C   UNL     1      42.552 -15.584   4.963  1.00  0.00     0.035 A 
HETATM    6  C   UNL     1      42.190 -15.905   3.673  1.00  0.00    -0.020 A 
HETATM    7  C   UNL     1      41.375 -14.972   2.858  1.00  0.00     0.061 C 
HETATM    8  C   UNL     1      40.608 -14.017   3.789  1.00  0.00     0.132 C 
HETATM    9  N   UNL     1      43.293 -16.623   5.462  1.00  0.00    -0.357 N 
HETATM   10  H   UNL     1      43.693 -16.675   6.388  1.00  0.00     0.166 HD
HETATM   11  C   UNL     1      43.416 -17.611   4.507  1.00  0.00     0.043 A 
HETATM   12  C   UNL     1      42.730 -17.181   3.368  1.00  0.00    -0.001 A 
HETATM   13  C   UNL     1      44.081 -18.842   4.565  1.00  0.00     0.030 A 
HETATM   14  C   UNL     1      44.039 -19.656   3.427  1.00  0.00     0.002 A 
HETATM   15  C   UNL     1      43.362 -19.252   2.278  1.00  0.00     0.001 A 
HETATM   16  C   UNL     1      42.703 -18.019   2.236  1.00  0.00     0.014 A 
HETATM   17  O   UNL     1      40.318 -11.449   4.570  1.00  0.00    -0.247 OA
HETATM   18  H   UNL     1      42.523 -12.167   6.737  1.00  0.00     0.171 HD
ENDROOT
BRANCH   1  19
HETATM   19  C   UNL     1      41.547 -10.406   7.021  1.00  0.00     0.071 A 
HETATM   20  C   UNL     1      42.687  -9.663   7.395  1.00  0.00     0.117 A 
HETATM   21  C   UNL     1      42.545  -8.488   8.150  1.00  0.00     0.069 A 
HETATM   22 CL   UNL     1      43.897  -7.607   8.764  1.00  0.00    -0.081 Cl
HETATM   23  C   UNL     1      41.271  -8.016   8.470  1.00  0.00     0.027 A 
HETATM   24  C   UNL     1      40.142  -8.724   8.064  1.00  0.00     0.004 A 
HETATM   25  C   UNL     1      40.281  -9.919   7.353  1.00  0.00     0.032 A 
BRANCH  20  26
HETATM   26  O   UNL     1      43.911 -10.192   7.042  1.00  0.00    -0.347 OA
BRANCH  26  27
HETATM   27  C   UNL     1      44.558 -10.850   8.141  1.00  0.00     0.171 C 
HETATM   28  C   UNL     1      46.051 -10.602   8.029  1.00  0.00     0.034 C 
ENDBRANCH  26  27
ENDBRANCH  20  26
ENDBRANCH   1  19
TORSDOF 3
ENDMDL
MODEL 6
REMARK VINA RESULT:      -7.8      5.393      7.409
REMARK  3 active torsions:
REMARK  status: ('A' for Active; 'I' for Inactive)
REMARK    1  A    between atoms: C_2  and  O_3 
REMARK    2  A    between atoms: O_3  and  C_4 
REMARK    3  A    between atoms: C_10  and  N_11 
REMARK       I    between atoms: N_11  and  C_12 
REMARK       I    between atoms: C_12  and  N_13 
ROOT
HETATM    1  N   UNL     1      40.651 -12.726  -0.201  1.00  0.00    -0.306 N 
HETATM    2  C   UNL     1      40.393 -14.056   0.029  1.00  0.00     0.323 C 
HETATM    3  N   UNL     1      40.889 -14.569   1.232  1.00  0.00    -0.328 N 
HETATM    4  C   UNL     1      41.422 -13.729   2.320  1.00  0.00     0.185 C 
HETATM    5  C   UNL     1      42.047 -14.574   3.373  1.00  0.00     0.035 A 
HETATM    6  C   UNL     1      42.092 -15.950   3.417  1.00  0.00    -0.020 A 
HETATM    7  C   UNL     1      41.487 -16.764   2.335  1.00  0.00     0.061 C 
HETATM    8  C   UNL     1      40.426 -15.930   1.599  1.00  0.00     0.132 C 
HETATM    9  N   UNL     1      42.679 -14.098   4.492  1.00  0.00    -0.357 N 
HETATM   10  H   UNL     1      42.799 -13.125   4.736  1.00  0.00     0.166 HD
HETATM   11  C   UNL     1      43.134 -15.152   5.257  1.00  0.00     0.043 A 
HETATM   12  C   UNL     1      42.777 -16.332   4.599  1.00  0.00    -0.001 A 
HETATM   13  C   UNL     1      43.832 -15.149   6.471  1.00  0.00     0.030 A 
HETATM   14  C   UNL     1      44.170 -16.387   7.028  1.00  0.00     0.002 A 
HETATM   15  C   UNL     1      43.827 -17.579   6.394  1.00  0.00     0.001 A 
HETATM   16  C   UNL     1      43.130 -17.565   5.180  1.00  0.00     0.014 A 
HETATM   17  O   UNL     1      39.760 -14.771  -0.747  1.00  0.00    -0.247 OA
HETATM   18  H   UNL     1      41.292 -12.240   0.405  1.00  0.00     0.171 HD
ENDROOT
BRANCH   1  19
HETATM   19  C   UNL     1      40.165 -11.910  -1.255  1.00  0.00     0.071 A 
HETATM   20  C   UNL     1      38.821 -11.489  -1.174  1.00  0.00     0.117 A 
HETATM   21  C   UNL     1      38.249 -10.756  -2.226  1.00  0.00     0.069 A 
HETATM   22 CL   UNL     1      36.575 -10.330  -2.263  1.00  0.00    -0.081 Cl
HETATM   23  C   UNL     1      39.030 -10.382  -3.321  1.00  0.00     0.027 A 
HETATM   24  C   UNL     1      40.370 -10.758  -3.382  1.00  0.00     0.004 A 
HETATM   25  C   UNL     1      40.931 -11.528  -2.359  1.00  0.00     0.032 A 
BRANCH  20  26
HETATM   26  O   UNL     1      38.112 -11.895  -0.062  1.00  0.00    -0.347 OA
BRANCH  26  27
HETATM   27  C   UNL     1      37.926 -10.833   0.884  1.00  0.00     0.171 C 
HETATM   28  C   UNL     1      38.421 -11.312   2.236  1.00  0.00     0.034 C 
ENDBRANCH  26  27
ENDBRANCH  20  26
ENDBRANCH   1  19
TORSDOF 3
ENDMDL
MODEL 7
REMARK VINA RESULT:      -7.7      3.841      4.369
REMARK  3 active torsions:
REMARK  status: ('A' for Active; 'I' for Inactive)
REMARK    1  A    between atoms: C_2  and  O_3 
REMARK    2  A    between atoms: O_3  and  C_4 
REMARK    3  A    between atoms: C_10  and  N_11 
REMARK       I    between atoms: N_11  and  C_12 
REMARK       I    between atoms: C_12  and  N_13 
ROOT
HETATM    1  N   UNL     1      40.100 -11.630   3.910  1.00  0.00    -0.306 N 
HETATM    2  C   UNL     1      39.651 -12.623   3.071  1.00  0.00     0.323 C 
HETATM    3  N   UNL     1      40.313 -13.850   3.176  1.00  0.00    -0.328 N 
HETATM    4  C   UNL     1      41.248 -14.182   4.267  1.00  0.00     0.185 C 
HETATM    5  C   UNL     1      41.932 -15.475   3.992  1.00  0.00     0.035 A 
HETATM    6  C   UNL     1      41.715 -16.319   2.925  1.00  0.00    -0.020 A 
HETATM    7  C   UNL     1      40.719 -15.982   1.879  1.00  0.00     0.061 C 
HETATM    8  C   UNL     1      39.696 -14.987   2.451  1.00  0.00     0.132 C 
HETATM    9  N   UNL     1      42.896 -16.039   4.784  1.00  0.00    -0.357 N 
HETATM   10  H   UNL     1      43.260 -15.651   5.643  1.00  0.00     0.166 HD
HETATM   11  C   UNL     1      43.308 -17.238   4.240  1.00  0.00     0.043 A 
HETATM   12  C   UNL     1      42.578 -17.437   3.065  1.00  0.00    -0.001 A 
HETATM   13  C   UNL     1      44.266 -18.153   4.695  1.00  0.00     0.030 A 
HETATM   14  C   UNL     1      44.480 -19.303   3.927  1.00  0.00     0.002 A 
HETATM   15  C   UNL     1      43.767 -19.527   2.752  1.00  0.00     0.001 A 
HETATM   16  C   UNL     1      42.813 -18.603   2.310  1.00  0.00     0.014 A 
HETATM   17  O   UNL     1      38.721 -12.474   2.279  1.00  0.00    -0.247 OA
HETATM   18  H   UNL     1      40.952 -11.777   4.427  1.00  0.00     0.171 HD
ENDROOT
BRANCH   1  19
HETATM   19  C   UNL     1      39.544 -10.343   4.120  1.00  0.00     0.071 A 
HETATM   20  C   UNL     1      40.024  -9.295   3.307  1.00  0.00     0.117 A 
HETATM   21  C   UNL     1      39.584  -7.979   3.522  1.00  0.00     0.069 A 
HETATM   22 CL   UNL     1      40.234  -6.628   2.665  1.00  0.00    -0.081 Cl
HETATM   23  C   UNL     1      38.615  -7.718   4.493  1.00  0.00     0.027 A 
HETATM   24  C   UNL     1      38.105  -8.759   5.266  1.00  0.00     0.004 A 
HETATM   25  C   UNL     1      38.576 -10.062   5.087  1.00  0.00     0.032 A 
BRANCH  20  26
HETATM   26  O   UNL     1      40.979  -9.629   2.369  1.00  0.00    -0.347 OA
BRANCH  26  27
HETATM   27  C   UNL     1      40.469  -9.573   1.029  1.00  0.00     0.171 C 
HETATM   28  C   UNL     1      41.634  -9.742   0.072  1.00  0.00     0.034 C 
ENDBRANCH  26  27
ENDBRANCH  20  26
ENDBRANCH   1  19
TORSDOF 3
ENDMDL
MODEL 8
REMARK VINA RESULT:      -7.7      2.696      3.356
REMARK  3 active torsions:
REMARK  status: ('A' for Active; 'I' for Inactive)
REMARK    1  A    between atoms: C_2  and  O_3 
REMARK    2  A    between atoms: O_3  and  C_4 
REMARK    3  A    between atoms: C_10  and  N_11 
REMARK       I    between atoms: N_11  and  C_12 
REMARK       I    between atoms: C_12  and  N_13 
ROOT
HETATM    1  N   UNL     1      40.046 -11.805   4.237  1.00  0.00    -0.306 N 
HETATM    2  C   UNL     1      39.666 -12.719   3.283  1.00  0.00     0.323 C 
HETATM    3  N   UNL     1      40.331 -13.948   3.322  1.00  0.00    -0.328 N 
HETATM    4  C   UNL     1      41.190 -14.375   4.441  1.00  0.00     0.185 C 
HETATM    5  C   UNL     1      41.904 -15.636   4.100  1.00  0.00     0.035 A 
HETATM    6  C   UNL     1      41.771 -16.380   2.948  1.00  0.00    -0.020 A 
HETATM    7  C   UNL     1      40.846 -15.953   1.870  1.00  0.00     0.061 C 
HETATM    8  C   UNL     1      39.776 -15.016   2.455  1.00  0.00     0.132 C 
HETATM    9  N   UNL     1      42.816 -16.266   4.904  1.00  0.00    -0.357 N 
HETATM   10  H   UNL     1      43.115 -15.957   5.817  1.00  0.00     0.166 HD
HETATM   11  C   UNL     1      43.276 -17.410   4.283  1.00  0.00     0.043 A 
HETATM   12  C   UNL     1      42.632 -17.503   3.047  1.00  0.00    -0.001 A 
HETATM   13  C   UNL     1      44.208 -18.359   4.720  1.00  0.00     0.030 A 
HETATM   14  C   UNL     1      44.487 -19.434   3.868  1.00  0.00     0.002 A 
HETATM   15  C   UNL     1      43.859 -19.552   2.630  1.00  0.00     0.001 A 
HETATM   16  C   UNL     1      42.930 -18.595   2.207  1.00  0.00     0.014 A 
HETATM   17  O   UNL     1      38.792 -12.501   2.443  1.00  0.00    -0.247 OA
HETATM   18  H   UNL     1      40.861 -11.995   4.798  1.00  0.00     0.171 HD
ENDROOT
BRANCH   1  19
HETATM   19  C   UNL     1      39.464 -10.545   4.523  1.00  0.00     0.071 A 
HETATM   20  C   UNL     1      39.714  -9.995   5.798  1.00  0.00     0.117 A 
HETATM   21  C   UNL     1      39.095  -8.794   6.181  1.00  0.00     0.069 A 
HETATM   22 CL   UNL     1      39.240  -8.138   7.772  1.00  0.00    -0.081 Cl
HETATM   23  C   UNL     1      38.289  -8.106   5.274  1.00  0.00     0.027 A 
HETATM   24  C   UNL     1      38.076  -8.623   3.998  1.00  0.00     0.004 A 
HETATM   25  C   UNL     1      38.652  -9.842   3.629  1.00  0.00     0.032 A 
BRANCH  20  26
HETATM   26  O   UNL     1      40.522 -10.732   6.639  1.00  0.00    -0.347 OA
BRANCH  26  27
HETATM   27  C   UNL     1      41.841 -10.178   6.751  1.00  0.00     0.171 C 
HETATM   28  C   UNL     1      42.842 -11.278   6.449  1.00  0.00     0.034 C 
ENDBRANCH  26  27
ENDBRANCH  20  26
ENDBRANCH   1  19
TORSDOF 3
ENDMDL
MODEL 9
REMARK VINA RESULT:      -7.6      2.826      4.753
REMARK  3 active torsions:
REMARK  status: ('A' for Active; 'I' for Inactive)
REMARK    1  A    between atoms: C_2  and  O_3 
REMARK    2  A    between atoms: O_3  and  C_4 
REMARK    3  A    between atoms: C_10  and  N_11 
REMARK       I    between atoms: N_11  and  C_12 
REMARK       I    between atoms: C_12  and  N_13 
ROOT
HETATM    1  N   UNL     1      42.514  -9.408   8.487  1.00  0.00    -0.306 N 
HETATM    2  C   UNL     1      43.564 -10.254   8.223  1.00  0.00     0.323 C 
HETATM    3  N   UNL     1      43.316 -11.249   7.272  1.00  0.00    -0.328 N 
HETATM    4  C   UNL     1      42.125 -11.267   6.402  1.00  0.00     0.185 C 
HETATM    5  C   UNL     1      42.053 -12.546   5.644  1.00  0.00     0.035 A 
HETATM    6  C   UNL     1      42.970 -13.574   5.658  1.00  0.00    -0.020 A 
HETATM    7  C   UNL     1      44.190 -13.492   6.498  1.00  0.00     0.061 C 
HETATM    8  C   UNL     1      44.497 -12.018   6.810  1.00  0.00     0.132 C 
HETATM    9  N   UNL     1      41.042 -12.897   4.789  1.00  0.00    -0.357 N 
HETATM   10  H   UNL     1      40.229 -12.339   4.570  1.00  0.00     0.166 HD
HETATM   11  C   UNL     1      41.295 -14.142   4.252  1.00  0.00     0.043 A 
HETATM   12  C   UNL     1      42.505 -14.591   4.786  1.00  0.00    -0.001 A 
HETATM   13  C   UNL     1      40.546 -14.901   3.342  1.00  0.00     0.030 A 
HETATM   14  C   UNL     1      41.053 -16.150   2.968  1.00  0.00     0.002 A 
HETATM   15  C   UNL     1      42.257 -16.622   3.485  1.00  0.00     0.001 A 
HETATM   16  C   UNL     1      42.993 -15.853   4.393  1.00  0.00     0.014 A 
HETATM   17  O   UNL     1      44.666 -10.160   8.763  1.00  0.00    -0.247 OA
HETATM   18  H   UNL     1      41.604  -9.629   8.118  1.00  0.00     0.171 HD
ENDROOT
BRANCH   1  19
HETATM   19  C   UNL     1      42.512  -8.241   9.292  1.00  0.00     0.071 A 
HETATM   20  C   UNL     1      41.875  -8.328  10.549  1.00  0.00     0.117 A 
HETATM   21  C   UNL     1      41.756  -7.187  11.358  1.00  0.00     0.069 A 
HETATM   22 CL   UNL     1      40.867  -7.184  12.839  1.00  0.00    -0.081 Cl
HETATM   23  C   UNL     1      42.331  -5.982  10.953  1.00  0.00     0.027 A 
HETATM   24  C   UNL     1      42.999  -5.904   9.733  1.00  0.00     0.004 A 
HETATM   25  C   UNL     1      43.078  -7.025   8.902  1.00  0.00     0.032 A 
BRANCH  20  26
HETATM   26  O   UNL     1      41.333  -9.552  10.882  1.00  0.00    -0.347 OA
BRANCH  26  27
HETATM   27  C   UNL     1      41.832 -10.047  12.133  1.00  0.00     0.171 C 
HETATM   28  C   UNL     1      43.256 -10.524  11.919  1.00  0.00     0.034 C 
ENDBRANCH  26  27
ENDBRANCH  20  26
ENDBRANCH   1  19
TORSDOF 3
ENDMDL
MODEL 10
REMARK VINA RESULT:      -7.6      2.678      4.342
REMARK  3 active torsions:
REMARK  status: ('A' for Active; 'I' for Inactive)
REMARK    1  A    between atoms: C_2  and  O_3 
REMARK    2  A    between atoms: O_3  and  C_4 
REMARK    3  A    between atoms: C_10  and  N_11 
REMARK       I    between atoms: N_11  and  C_12 
REMARK       I    between atoms: C_12  and  N_13 
ROOT
HETATM    1  N   UNL     1      42.990 -10.685   8.512  1.00  0.00    -0.306 N 
HETATM    2  C   UNL     1      43.220 -10.303   7.211  1.00  0.00     0.323 C 
HETATM    3  N   UNL     1      43.032 -11.298   6.246  1.00  0.00    -0.328 N 
HETATM    4  C   UNL     1      42.385 -12.593   6.525  1.00  0.00     0.185 C 
HETATM    5  C   UNL     1      42.511 -13.502   5.353  1.00  0.00     0.035 A 
HETATM    6  C   UNL     1      43.079 -13.210   4.132  1.00  0.00    -0.020 A 
HETATM    7  C   UNL     1      43.664 -11.873   3.867  1.00  0.00     0.061 C 
HETATM    8  C   UNL     1      43.052 -10.846   4.834  1.00  0.00     0.132 C 
HETATM    9  N   UNL     1      42.061 -14.795   5.308  1.00  0.00    -0.357 N 
HETATM   10  H   UNL     1      41.595 -15.286   6.057  1.00  0.00     0.166 HD
HETATM   11  C   UNL     1      42.335 -15.343   4.072  1.00  0.00     0.043 A 
HETATM   12  C   UNL     1      42.978 -14.363   3.312  1.00  0.00    -0.001 A 
HETATM   13  C   UNL     1      42.064 -16.624   3.574  1.00  0.00     0.030 A 
HETATM   14  C   UNL     1      42.462 -16.908   2.263  1.00  0.00     0.002 A 
HETATM   15  C   UNL     1      43.105 -15.950   1.483  1.00  0.00     0.001 A 
HETATM   16  C   UNL     1      43.368 -14.674   1.995  1.00  0.00     0.014 A 
HETATM   17  O   UNL     1      43.558  -9.166   6.886  1.00  0.00    -0.247 OA
HETATM   18  H   UNL     1      42.856 -11.661   8.718  1.00  0.00     0.171 HD
ENDROOT
BRANCH   1  19
HETATM   19  C   UNL     1      42.970  -9.870   9.672  1.00  0.00     0.071 A 
HETATM   20  C   UNL     1      41.772  -9.180   9.952  1.00  0.00     0.117 A 
HETATM   21  C   UNL     1      41.710  -8.285  11.033  1.00  0.00     0.069 A 
HETATM   22 CL   UNL     1      40.328  -7.300  11.349  1.00  0.00    -0.081 Cl
HETATM   23  C   UNL     1      42.813  -8.133  11.875  1.00  0.00     0.027 A 
HETATM   24  C   UNL     1      43.983  -8.848  11.627  1.00  0.00     0.004 A 
HETATM   25  C   UNL     1      44.064  -9.703  10.524  1.00  0.00     0.032 A 
BRANCH  20  26
HETATM   26  O   UNL     1      40.724  -9.381   9.077  1.00  0.00    -0.347 OA
BRANCH  26  27
HETATM   27  C   UNL     1      40.544  -8.276   8.179  1.00  0.00     0.171 C 
HETATM   28  C   UNL     1      39.066  -7.931   8.145  1.00  0.00     0.034 C 
ENDBRANCH  26  27
ENDBRANCH  20  26
ENDBRANCH   1  19
TORSDOF 3
ENDMDL
