MODEL 1
REMARK VINA RESULT:      -8.0      0.000      0.000
REMARK  10 active torsions:
REMARK  status: ('A' for Active; 'I' for Inactive)
REMARK       I    between atoms: N_2  and  C_3 
REMARK    1  A    between atoms: N_2  and  C_22 
REMARK    2  A    between atoms: C_3  and  C_4 
REMARK    3  A    between atoms: C_4  and  O_5 
REMARK    4  A    between atoms: O_5  and  C_6 
REMARK    5  A    between atoms: C_6  and  C_7 
REMARK    6  A    between atoms: C_8  and  N_9 
REMARK    7  A    between atoms: N_9  and  C_10 
REMARK    8  A    between atoms: C_10  and  C_11 
REMARK    9  A    between atoms: C_22  and  C_23 
REMARK       I    between atoms: C_23  and  N_24 
REMARK   10  A    between atoms: N_24  and  C_25 
ROOT
HETATM    1  C   UNL     1      41.577 -11.621   3.220  1.00  0.00     0.281 C 
ENDROOT
BRANCH   1   2
HETATM    2  C   UNL     1      41.955 -12.896   2.461  1.00  0.00     0.244 C 
HETATM    3  N   UNL     1      40.959 -13.566   1.758  1.00  0.00    -0.346 N 
HETATM    4  C   UNL     1      39.657 -12.994   1.448  1.00  0.00     0.153 C 
HETATM    5  O   UNL     1      43.123 -13.304   2.428  1.00  0.00    -0.271 OA
BRANCH   3   6
HETATM    6  C   UNL     1      41.342 -14.762   0.998  1.00  0.00     0.228 C 
BRANCH   6   7
HETATM    7  C   UNL     1      41.454 -16.004   1.893  1.00  0.00     0.240 C 
HETATM    8  N   UNL     1      42.750 -16.486   1.972  1.00  0.00    -0.326 N 
HETATM    9  H   UNL     1      43.437 -15.990   1.401  1.00  0.00     0.169 HD
HETATM   10  O   UNL     1      40.459 -16.480   2.434  1.00  0.00    -0.271 OA
BRANCH   8  11
HETATM   11  C   UNL     1      43.217 -17.606   2.684  1.00  0.00     0.035 A 
HETATM   12  C   UNL     1      43.159 -18.917   2.203  1.00  0.00     0.032 A 
HETATM   13  C   UNL     1      43.645 -19.975   2.976  1.00  0.00     0.044 A 
HETATM   14  C   UNL     1      44.191 -19.721   4.227  1.00  0.00     0.116 A 
HETATM   15  F   UNL     1      44.658 -20.736   4.965  1.00  0.00    -0.206 F 
HETATM   16  C   UNL     1      44.256 -18.426   4.724  1.00  0.00     0.044 A 
HETATM   17  C   UNL     1      43.765 -17.369   3.954  1.00  0.00     0.032 A 
ENDBRANCH   8  11
ENDBRANCH   6   7
ENDBRANCH   3   6
ENDBRANCH   1   2
BRANCH   1  18
HETATM   18  O   UNL     1      41.775 -11.832   4.621  1.00  0.00    -0.308 OA
BRANCH  18  19
HETATM   19  C   UNL     1      40.781 -12.497   5.258  1.00  0.00     0.295 C 
HETATM   20  O   UNL     1      39.608 -12.165   5.321  1.00  0.00    -0.259 OA
BRANCH  19  21
HETATM   21  C   UNL     1      41.335 -13.721   5.889  1.00  0.00     0.060 A 
HETATM   22  C   UNL     1      42.406 -13.636   6.808  1.00  0.00     0.025 A 
HETATM   23  C   UNL     1      42.878 -14.848   7.344  1.00  0.00     0.024 A 
HETATM   24  C   UNL     1      42.266 -16.073   7.048  1.00  0.00     0.002 A 
HETATM   25  C   UNL     1      41.180 -16.126   6.184  1.00  0.00     0.001 A 
HETATM   26  C   UNL     1      40.716 -14.953   5.600  1.00  0.00     0.019 A 
BRANCH  22  27
HETATM   27  N   UNL     1      43.059 -12.412   7.041  1.00  0.00    -0.286 NA
HETATM   28  H   UNL     1      42.694 -11.970   7.891  1.00  0.00     0.128 HD
BRANCH  27  29
HETATM   29  C   UNL     1      44.519 -12.337   6.975  1.00  0.00     0.157 C 
BRANCH  29  30
HETATM   30  C   UNL     1      45.110 -11.057   7.464  1.00  0.00     0.065 A 
HETATM   31  O   UNL     1      44.223 -10.139   7.954  1.00  0.00    -0.326 OA
HETATM   32  C   UNL     1      44.942  -9.059   8.351  1.00  0.00     0.142 A 
HETATM   33  C   UNL     1      46.282  -9.262   8.118  1.00  0.00     0.027 A 
HETATM   34  C   UNL     1      46.393 -10.552   7.545  1.00  0.00     0.036 A 
ENDBRANCH  29  30
ENDBRANCH  27  29
ENDBRANCH  22  27
ENDBRANCH  19  21
ENDBRANCH  18  19
ENDBRANCH   1  18
TORSDOF 10
ENDMDL
MODEL 2
REMARK VINA RESULT:      -7.7      2.505      4.039
REMARK  10 active torsions:
REMARK  status: ('A' for Active; 'I' for Inactive)
REMARK       I    between atoms: N_2  and  C_3 
REMARK    1  A    between atoms: N_2  and  C_22 
REMARK    2  A    between atoms: C_3  and  C_4 
REMARK    3  A    between atoms: C_4  and  O_5 
REMARK    4  A    between atoms: O_5  and  C_6 
REMARK    5  A    between atoms: C_6  and  C_7 
REMARK    6  A    between atoms: C_8  and  N_9 
REMARK    7  A    between atoms: N_9  and  C_10 
REMARK    8  A    between atoms: C_10  and  C_11 
REMARK    9  A    between atoms: C_22  and  C_23 
REMARK       I    between atoms: C_23  and  N_24 
REMARK   10  A    between atoms: N_24  and  C_25 
ROOT
HETATM    1  C   UNL     1      42.573 -10.927   5.251  1.00  0.00     0.281 C 
ENDROOT
BRANCH   1   2
HETATM    2  C   UNL     1      42.547 -11.956   4.117  1.00  0.00     0.244 C 
HETATM    3  N   UNL     1      41.324 -12.514   3.760  1.00  0.00    -0.346 N 
HETATM    4  C   UNL     1      40.034 -11.983   4.179  1.00  0.00     0.153 C 
HETATM    5  O   UNL     1      43.574 -12.256   3.495  1.00  0.00    -0.271 OA
BRANCH   3   6
HETATM    6  C   UNL     1      41.305 -13.465   2.642  1.00  0.00     0.228 C 
BRANCH   6   7
HETATM    7  C   UNL     1      41.436 -14.918   3.118  1.00  0.00     0.240 C 
HETATM    8  N   UNL     1      42.750 -15.356   3.125  1.00  0.00    -0.326 N 
HETATM    9  H   UNL     1      43.438 -14.686   2.777  1.00  0.00     0.169 HD
HETATM   10  O   UNL     1      40.442 -15.571   3.423  1.00  0.00    -0.271 OA
BRANCH   8  11
HETATM   11  C   UNL     1      43.239 -16.626   3.486  1.00  0.00     0.035 A 
HETATM   12  C   UNL     1      43.329 -17.707   2.605  1.00  0.00     0.032 A 
HETATM   13  C   UNL     1      43.827 -18.937   3.046  1.00  0.00     0.044 A 
HETATM   14  C   UNL     1      44.235 -19.083   4.366  1.00  0.00     0.116 A 
HETATM   15  F   UNL     1      44.713 -20.261   4.785  1.00  0.00    -0.206 F 
HETATM   16  C   UNL     1      44.151 -18.021   5.256  1.00  0.00     0.044 A 
HETATM   17  C   UNL     1      43.649 -16.794   4.818  1.00  0.00     0.032 A 
ENDBRANCH   8  11
ENDBRANCH   6   7
ENDBRANCH   3   6
ENDBRANCH   1   2
BRANCH   1  18
HETATM   18  O   UNL     1      42.382 -11.600   6.500  1.00  0.00    -0.308 OA
BRANCH  18  19
HETATM   19  C   UNL     1      43.470 -12.241   6.990  1.00  0.00     0.295 C 
HETATM   20  O   UNL     1      43.643 -13.449   7.036  1.00  0.00    -0.259 OA
BRANCH  19  21
HETATM   21  C   UNL     1      44.452 -11.240   7.479  1.00  0.00     0.060 A 
HETATM   22  C   UNL     1      44.147 -10.412   8.584  1.00  0.00     0.025 A 
HETATM   23  C   UNL     1      45.129  -9.482   8.967  1.00  0.00     0.024 A 
HETATM   24  C   UNL     1      46.381  -9.430   8.341  1.00  0.00     0.002 A 
HETATM   25  C   UNL     1      46.678 -10.289   7.292  1.00  0.00     0.001 A 
HETATM   26  C   UNL     1      45.714 -11.192   6.856  1.00  0.00     0.019 A 
BRANCH  22  27
HETATM   27  N   UNL     1      42.863 -10.422   9.158  1.00  0.00    -0.286 NA
HETATM   28  H   UNL     1      42.746 -11.245   9.756  1.00  0.00     0.128 HD
BRANCH  27  29
HETATM   29  C   UNL     1      42.335  -9.212   9.790  1.00  0.00     0.157 C 
BRANCH  29  30
HETATM   30  C   UNL     1      42.185  -9.287  11.274  1.00  0.00     0.065 A 
HETATM   31  O   UNL     1      41.038  -9.876  11.728  1.00  0.00    -0.326 OA
HETATM   32  C   UNL     1      41.088  -9.856  13.084  1.00  0.00     0.142 A 
HETATM   33  C   UNL     1      42.247  -9.255  13.514  1.00  0.00     0.027 A 
HETATM   34  C   UNL     1      42.957  -8.886  12.346  1.00  0.00     0.036 A 
ENDBRANCH  29  30
ENDBRANCH  27  29
ENDBRANCH  22  27
ENDBRANCH  19  21
ENDBRANCH  18  19
ENDBRANCH   1  18
TORSDOF 10
ENDMDL
MODEL 3
REMARK VINA RESULT:      -7.7      2.548      6.729
REMARK  10 active torsions:
REMARK  status: ('A' for Active; 'I' for Inactive)
REMARK       I    between atoms: N_2  and  C_3 
REMARK    1  A    between atoms: N_2  and  C_22 
REMARK    2  A    between atoms: C_3  and  C_4 
REMARK    3  A    between atoms: C_4  and  O_5 
REMARK    4  A    between atoms: O_5  and  C_6 
REMARK    5  A    between atoms: C_6  and  C_7 
REMARK    6  A    between atoms: C_8  and  N_9 
REMARK    7  A    between atoms: N_9  and  C_10 
REMARK    8  A    between atoms: C_10  and  C_11 
REMARK    9  A    between atoms: C_22  and  C_23 
REMARK       I    between atoms: C_23  and  N_24 
REMARK   10  A    between atoms: N_24  and  C_25 
ROOT
HETATM    1  C   UNL     1      40.990 -11.330   4.838  1.00  0.00     0.281 C 
ENDROOT
BRANCH   1   2
HETATM    2  C   UNL     1      41.166 -12.558   5.736  1.00  0.00     0.244 C 
HETATM    3  N   UNL     1      42.439 -13.104   5.865  1.00  0.00    -0.346 N 
HETATM    4  C   UNL     1      43.660 -12.428   5.450  1.00  0.00     0.153 C 
HETATM    5  O   UNL     1      40.217 -13.033   6.372  1.00  0.00    -0.271 OA
BRANCH   3   6
HETATM    6  C   UNL     1      42.604 -14.253   6.763  1.00  0.00     0.228 C 
BRANCH   6   7
HETATM    7  C   UNL     1      42.361 -15.587   6.044  1.00  0.00     0.240 C 
HETATM    8  N   UNL     1      43.455 -15.995   5.300  1.00  0.00    -0.326 N 
HETATM    9  H   UNL     1      44.245 -15.347   5.290  1.00  0.00     0.169 HD
HETATM   10  O   UNL     1      41.282 -16.166   6.143  1.00  0.00    -0.271 OA
BRANCH   8  11
HETATM   11  C   UNL     1      43.583 -17.150   4.507  1.00  0.00     0.035 A 
HETATM   12  C   UNL     1      44.073 -18.371   4.980  1.00  0.00     0.032 A 
HETATM   13  C   UNL     1      44.169 -19.473   4.124  1.00  0.00     0.044 A 
HETATM   14  C   UNL     1      43.773 -19.352   2.798  1.00  0.00     0.116 A 
HETATM   15  F   UNL     1      43.864 -20.409   1.981  1.00  0.00    -0.206 F 
HETATM   16  C   UNL     1      43.285 -18.147   2.309  1.00  0.00     0.044 A 
HETATM   17  C   UNL     1      43.195 -17.045   3.162  1.00  0.00     0.032 A 
ENDBRANCH   8  11
ENDBRANCH   6   7
ENDBRANCH   3   6
ENDBRANCH   1   2
BRANCH   1  18
HETATM   18  O   UNL     1      40.358 -11.727   3.617  1.00  0.00    -0.308 OA
BRANCH  18  19
HETATM   19  C   UNL     1      41.195 -12.131   2.631  1.00  0.00     0.295 C 
HETATM   20  O   UNL     1      42.189 -11.542   2.234  1.00  0.00    -0.259 OA
BRANCH  19  21
HETATM   21  C   UNL     1      40.721 -13.426   2.082  1.00  0.00     0.060 A 
HETATM   22  C   UNL     1      40.557 -13.601   0.689  1.00  0.00     0.025 A 
HETATM   23  C   UNL     1      40.088 -14.855   0.260  1.00  0.00     0.024 A 
HETATM   24  C   UNL     1      39.871 -15.909   1.157  1.00  0.00     0.002 A 
HETATM   25  C   UNL     1      40.090 -15.730   2.517  1.00  0.00     0.001 A 
HETATM   26  C   UNL     1      40.510 -14.488   2.982  1.00  0.00     0.019 A 
BRANCH  22  27
HETATM   27  N   UNL     1      40.708 -12.518  -0.195  1.00  0.00    -0.286 NA
HETATM   28  H   UNL     1      41.490 -11.924   0.098  1.00  0.00     0.128 HD
BRANCH  27  29
HETATM   29  C   UNL     1      40.714 -12.748  -1.641  1.00  0.00     0.157 C 
BRANCH  29  30
HETATM   30  C   UNL     1      39.402 -13.159  -2.223  1.00  0.00     0.065 A 
HETATM   31  O   UNL     1      39.449 -14.167  -3.145  1.00  0.00    -0.326 OA
HETATM   32  C   UNL     1      38.175 -14.401  -3.547  1.00  0.00     0.142 A 
HETATM   33  C   UNL     1      37.304 -13.553  -2.905  1.00  0.00     0.027 A 
HETATM   34  C   UNL     1      38.095 -12.749  -2.049  1.00  0.00     0.036 A 
ENDBRANCH  29  30
ENDBRANCH  27  29
ENDBRANCH  22  27
ENDBRANCH  19  21
ENDBRANCH  18  19
ENDBRANCH   1  18
TORSDOF 10
ENDMDL
MODEL 4
REMARK VINA RESULT:      -7.7      4.068      9.046
REMARK  10 active torsions:
REMARK  status: ('A' for Active; 'I' for Inactive)
REMARK       I    between atoms: N_2  and  C_3 
REMARK    1  A    between atoms: N_2  and  C_22 
REMARK    2  A    between atoms: C_3  and  C_4 
REMARK    3  A    between atoms: C_4  and  O_5 
REMARK    4  A    between atoms: O_5  and  C_6 
REMARK    5  A    between atoms: C_6  and  C_7 
REMARK    6  A    between atoms: C_8  and  N_9 
REMARK    7  A    between atoms: N_9  and  C_10 
REMARK    8  A    between atoms: C_10  and  C_11 
REMARK    9  A    between atoms: C_22  and  C_23 
REMARK       I    between atoms: C_23  and  N_24 
REMARK   10  A    between atoms: N_24  and  C_25 
ROOT
HETATM    1  C   UNL     1      43.042 -12.931   5.444  1.00  0.00     0.281 C 
ENDROOT
BRANCH   1   2
HETATM    2  C   UNL     1      42.878 -11.665   6.290  1.00  0.00     0.244 C 
HETATM    3  N   UNL     1      43.997 -11.154   6.938  1.00  0.00    -0.346 N 
HETATM    4  C   UNL     1      45.364 -11.558   6.640  1.00  0.00     0.153 C 
HETATM    5  O   UNL     1      41.792 -11.076   6.364  1.00  0.00    -0.271 OA
BRANCH   3   6
HETATM    6  C   UNL     1      43.837  -9.915   7.709  1.00  0.00     0.228 C 
BRANCH   6   7
HETATM    7  C   UNL     1      43.671 -10.187   9.210  1.00  0.00     0.240 C 
HETATM    8  N   UNL     1      42.956  -9.191   9.854  1.00  0.00    -0.326 N 
HETATM    9  H   UNL     1      42.680  -8.401   9.267  1.00  0.00     0.169 HD
HETATM   10  O   UNL     1      44.163 -11.188   9.725  1.00  0.00    -0.271 OA
BRANCH   8  11
HETATM   11  C   UNL     1      42.627  -9.103  11.219  1.00  0.00     0.035 A 
HETATM   12  C   UNL     1      41.593  -9.825  11.821  1.00  0.00     0.032 A 
HETATM   13  C   UNL     1      41.331  -9.678  13.187  1.00  0.00     0.044 A 
HETATM   14  C   UNL     1      42.105  -8.811  13.948  1.00  0.00     0.116 A 
HETATM   15  F   UNL     1      41.854  -8.673  15.255  1.00  0.00    -0.206 F 
HETATM   16  C   UNL     1      43.136  -8.083  13.367  1.00  0.00     0.044 A 
HETATM   17  C   UNL     1      43.394  -8.226  12.002  1.00  0.00     0.032 A 
ENDBRANCH   8  11
ENDBRANCH   6   7
ENDBRANCH   3   6
ENDBRANCH   1   2
BRANCH   1  18
HETATM   18  O   UNL     1      42.452 -14.037   6.134  1.00  0.00    -0.308 OA
BRANCH  18  19
HETATM   19  C   UNL     1      41.157 -14.294   5.827  1.00  0.00     0.295 C 
HETATM   20  O   UNL     1      40.182 -14.038   6.515  1.00  0.00    -0.259 OA
BRANCH  19  21
HETATM   21  C   UNL     1      41.089 -14.950   4.497  1.00  0.00     0.060 A 
HETATM   22  C   UNL     1      41.754 -16.176   4.264  1.00  0.00     0.025 A 
HETATM   23  C   UNL     1      41.649 -16.717   2.970  1.00  0.00     0.024 A 
HETATM   24  C   UNL     1      40.858 -16.117   1.982  1.00  0.00     0.002 A 
HETATM   25  C   UNL     1      40.170 -14.940   2.250  1.00  0.00     0.001 A 
HETATM   26  C   UNL     1      40.288 -14.353   3.504  1.00  0.00     0.019 A 
BRANCH  22  27
HETATM   27  N   UNL     1      42.602 -16.731   5.239  1.00  0.00    -0.286 NA
HETATM   28  H   UNL     1      42.070 -17.335   5.872  1.00  0.00     0.128 HD
BRANCH  27  29
HETATM   29  C   UNL     1      43.870 -17.345   4.841  1.00  0.00     0.157 C 
BRANCH  29  30
HETATM   30  C   UNL     1      43.877 -18.838   4.834  1.00  0.00     0.065 A 
HETATM   31  O   UNL     1      43.885 -19.427   3.601  1.00  0.00    -0.326 OA
HETATM   32  C   UNL     1      43.897 -20.770   3.798  1.00  0.00     0.142 A 
HETATM   33  C   UNL     1      43.889 -21.058   5.143  1.00  0.00     0.027 A 
HETATM   34  C   UNL     1      43.875 -19.811   5.814  1.00  0.00     0.036 A 
ENDBRANCH  29  30
ENDBRANCH  27  29
ENDBRANCH  22  27
ENDBRANCH  19  21
ENDBRANCH  18  19
ENDBRANCH   1  18
TORSDOF 10
ENDMDL
MODEL 5
REMARK VINA RESULT:      -7.5      4.027      8.970
REMARK  10 active torsions:
REMARK  status: ('A' for Active; 'I' for Inactive)
REMARK       I    between atoms: N_2  and  C_3 
REMARK    1  A    between atoms: N_2  and  C_22 
REMARK    2  A    between atoms: C_3  and  C_4 
REMARK    3  A    between atoms: C_4  and  O_5 
REMARK    4  A    between atoms: O_5  and  C_6 
REMARK    5  A    between atoms: C_6  and  C_7 
REMARK    6  A    between atoms: C_8  and  N_9 
REMARK    7  A    between atoms: N_9  and  C_10 
REMARK    8  A    between atoms: C_10  and  C_11 
REMARK    9  A    between atoms: C_22  and  C_23 
REMARK       I    between atoms: C_23  and  N_24 
REMARK   10  A    between atoms: N_24  and  C_25 
ROOT
HETATM    1  C   UNL     1      42.597 -12.973   5.572  1.00  0.00     0.281 C 
ENDROOT
BRANCH   1   2
HETATM    2  C   UNL     1      42.594 -11.671   6.380  1.00  0.00     0.244 C 
HETATM    3  N   UNL     1      43.798 -11.222   6.911  1.00  0.00    -0.346 N 
HETATM    4  C   UNL     1      45.104 -11.732   6.515  1.00  0.00     0.153 C 
HETATM    5  O   UNL     1      41.562 -11.004   6.523  1.00  0.00    -0.271 OA
BRANCH   3   6
HETATM    6  C   UNL     1      43.791  -9.950   7.645  1.00  0.00     0.228 C 
BRANCH   6   7
HETATM    7  C   UNL     1      43.720 -10.161   9.163  1.00  0.00     0.240 C 
HETATM    8  N   UNL     1      42.841  -9.285   9.779  1.00  0.00    -0.326 N 
HETATM    9  H   UNL     1      42.401  -8.600   9.162  1.00  0.00     0.169 HD
HETATM   10  O   UNL     1      44.410 -11.016   9.712  1.00  0.00    -0.271 OA
BRANCH   8  11
HETATM   11  C   UNL     1      42.536  -9.182  11.149  1.00  0.00     0.035 A 
HETATM   12  C   UNL     1      41.465  -9.839  11.762  1.00  0.00     0.032 A 
HETATM   13  C   UNL     1      41.231  -9.682  13.131  1.00  0.00     0.044 A 
HETATM   14  C   UNL     1      42.068  -8.870  13.885  1.00  0.00     0.116 A 
HETATM   15  F   UNL     1      41.843  -8.722  15.197  1.00  0.00    -0.206 F 
HETATM   16  C   UNL     1      43.136  -8.207  13.294  1.00  0.00     0.044 A 
HETATM   17  C   UNL     1      43.367  -8.360  11.925  1.00  0.00     0.032 A 
ENDBRANCH   8  11
ENDBRANCH   6   7
ENDBRANCH   3   6
ENDBRANCH   1   2
BRANCH   1  18
HETATM   18  O   UNL     1      42.359 -14.074   6.455  1.00  0.00    -0.308 OA
BRANCH  18  19
HETATM   19  C   UNL     1      41.434 -14.970   6.035  1.00  0.00     0.295 C 
HETATM   20  O   UNL     1      40.260 -15.014   6.367  1.00  0.00    -0.259 OA
BRANCH  19  21
HETATM   21  C   UNL     1      42.066 -15.920   5.085  1.00  0.00     0.060 A 
HETATM   22  C   UNL     1      41.529 -16.107   3.791  1.00  0.00     0.025 A 
HETATM   23  C   UNL     1      42.182 -17.039   2.964  1.00  0.00     0.024 A 
HETATM   24  C   UNL     1      43.354 -17.692   3.369  1.00  0.00     0.002 A 
HETATM   25  C   UNL     1      43.892 -17.452   4.627  1.00  0.00     0.001 A 
HETATM   26  C   UNL     1      43.248 -16.571   5.488  1.00  0.00     0.019 A 
BRANCH  22  27
HETATM   27  N   UNL     1      40.314 -15.504   3.420  1.00  0.00    -0.286 NA
HETATM   28  H   UNL     1      40.326 -14.506   3.654  1.00  0.00     0.128 HD
BRANCH  27  29
HETATM   29  C   UNL     1      39.755 -15.741   2.089  1.00  0.00     0.157 C 
BRANCH  29  30
HETATM   30  C   UNL     1      40.094 -14.709   1.065  1.00  0.00     0.065 A 
HETATM   31  O   UNL     1      39.703 -14.989  -0.215  1.00  0.00    -0.326 OA
HETATM   32  C   UNL     1      40.089 -13.943  -0.988  1.00  0.00     0.142 A 
HETATM   33  C   UNL     1      40.731 -12.993  -0.228  1.00  0.00     0.027 A 
HETATM   34  C   UNL     1      40.735 -13.487   1.099  1.00  0.00     0.036 A 
ENDBRANCH  29  30
ENDBRANCH  27  29
ENDBRANCH  22  27
ENDBRANCH  19  21
ENDBRANCH  18  19
ENDBRANCH   1  18
TORSDOF 10
ENDMDL
MODEL 6
REMARK VINA RESULT:      -7.4      1.422      3.788
REMARK  10 active torsions:
REMARK  status: ('A' for Active; 'I' for Inactive)
REMARK       I    between atoms: N_2  and  C_3 
REMARK    1  A    between atoms: N_2  and  C_22 
REMARK    2  A    between atoms: C_3  and  C_4 
REMARK    3  A    between atoms: C_4  and  O_5 
REMARK    4  A    between atoms: O_5  and  C_6 
REMARK    5  A    between atoms: C_6  and  C_7 
REMARK    6  A    between atoms: C_8  and  N_9 
REMARK    7  A    between atoms: N_9  and  C_10 
REMARK    8  A    between atoms: C_10  and  C_11 
REMARK    9  A    between atoms: C_22  and  C_23 
REMARK       I    between atoms: C_23  and  N_24 
REMARK   10  A    between atoms: N_24  and  C_25 
ROOT
HETATM    1  C   UNL     1      41.428 -10.830   3.733  1.00  0.00     0.281 C 
ENDROOT
BRANCH   1   2
HETATM    2  C   UNL     1      42.178 -12.000   3.090  1.00  0.00     0.244 C 
HETATM    3  N   UNL     1      41.457 -12.898   2.311  1.00  0.00    -0.346 N 
HETATM    4  C   UNL     1      40.108 -12.651   1.822  1.00  0.00     0.153 C 
HETATM    5  O   UNL     1      43.403 -12.127   3.214  1.00  0.00    -0.271 OA
BRANCH   3   6
HETATM    6  C   UNL     1      42.194 -13.990   1.663  1.00  0.00     0.228 C 
BRANCH   6   7
HETATM    7  C   UNL     1      42.072 -15.309   2.438  1.00  0.00     0.240 C 
HETATM    8  N   UNL     1      43.256 -16.027   2.452  1.00  0.00    -0.326 N 
HETATM    9  H   UNL     1      44.025 -15.616   1.918  1.00  0.00     0.169 HD
HETATM   10  O   UNL     1      41.005 -15.642   2.947  1.00  0.00    -0.271 OA
BRANCH   8  11
HETATM   11  C   UNL     1      43.507 -17.276   3.050  1.00  0.00     0.035 A 
HETATM   12  C   UNL     1      43.429 -18.495   2.372  1.00  0.00     0.032 A 
HETATM   13  C   UNL     1      43.693 -19.694   3.043  1.00  0.00     0.044 A 
HETATM   14  C   UNL     1      44.035 -19.670   4.389  1.00  0.00     0.116 A 
HETATM   15  F   UNL     1      44.289 -20.818   5.028  1.00  0.00    -0.206 F 
HETATM   16  C   UNL     1      44.115 -18.468   5.080  1.00  0.00     0.044 A 
HETATM   17  C   UNL     1      43.847 -17.272   4.412  1.00  0.00     0.032 A 
ENDBRANCH   8  11
ENDBRANCH   6   7
ENDBRANCH   3   6
ENDBRANCH   1   2
BRANCH   1  18
HETATM   18  O   UNL     1      42.275 -10.204   4.702  1.00  0.00    -0.308 OA
BRANCH  18  19
HETATM   19  C   UNL     1      41.928 -10.403   5.997  1.00  0.00     0.295 C 
HETATM   20  O   UNL     1      40.832 -10.747   6.412  1.00  0.00    -0.259 OA
BRANCH  19  21
HETATM   21  C   UNL     1      43.102 -10.138   6.866  1.00  0.00     0.060 A 
HETATM   22  C   UNL     1      44.224 -10.998   6.844  1.00  0.00     0.025 A 
HETATM   23  C   UNL     1      45.283 -10.680   7.712  1.00  0.00     0.024 A 
HETATM   24  C   UNL     1      45.267  -9.524   8.503  1.00  0.00     0.002 A 
HETATM   25  C   UNL     1      44.176  -8.665   8.470  1.00  0.00     0.001 A 
HETATM   26  C   UNL     1      43.091  -8.972   7.656  1.00  0.00     0.019 A 
BRANCH  22  27
HETATM   27  N   UNL     1      44.200 -12.193   6.102  1.00  0.00    -0.286 NA
HETATM   28  H   UNL     1      44.881 -12.152   5.338  1.00  0.00     0.128 HD
BRANCH  27  29
HETATM   29  C   UNL     1      44.236 -13.484   6.792  1.00  0.00     0.157 C 
BRANCH  29  30
HETATM   30  C   UNL     1      42.983 -14.290   6.694  1.00  0.00     0.065 A 
HETATM   31  O   UNL     1      42.992 -15.487   7.355  1.00  0.00    -0.326 OA
HETATM   32  C   UNL     1      41.780 -16.062   7.156  1.00  0.00     0.142 A 
HETATM   33  C   UNL     1      40.989 -15.259   6.369  1.00  0.00     0.027 A 
HETATM   34  C   UNL     1      41.765 -14.114   6.068  1.00  0.00     0.036 A 
ENDBRANCH  29  30
ENDBRANCH  27  29
ENDBRANCH  22  27
ENDBRANCH  19  21
ENDBRANCH  18  19
ENDBRANCH   1  18
TORSDOF 10
ENDMDL
MODEL 7
REMARK VINA RESULT:      -7.3      2.471      6.098
REMARK  10 active torsions:
REMARK  status: ('A' for Active; 'I' for Inactive)
REMARK       I    between atoms: N_2  and  C_3 
REMARK    1  A    between atoms: N_2  and  C_22 
REMARK    2  A    between atoms: C_3  and  C_4 
REMARK    3  A    between atoms: C_4  and  O_5 
REMARK    4  A    between atoms: O_5  and  C_6 
REMARK    5  A    between atoms: C_6  and  C_7 
REMARK    6  A    between atoms: C_8  and  N_9 
REMARK    7  A    between atoms: N_9  and  C_10 
REMARK    8  A    between atoms: C_10  and  C_11 
REMARK    9  A    between atoms: C_22  and  C_23 
REMARK       I    between atoms: C_23  and  N_24 
REMARK   10  A    between atoms: N_24  and  C_25 
ROOT
HETATM    1  C   UNL     1      42.256 -12.118   5.205  1.00  0.00     0.281 C 
ENDROOT
BRANCH   1   2
HETATM    2  C   UNL     1      42.995 -13.071   6.149  1.00  0.00     0.244 C 
HETATM    3  N   UNL     1      42.323 -14.201   6.605  1.00  0.00    -0.346 N 
HETATM    4  C   UNL     1      41.083 -14.699   6.027  1.00  0.00     0.153 C 
HETATM    5  O   UNL     1      44.175 -12.877   6.467  1.00  0.00    -0.271 OA
BRANCH   3   6
HETATM    6  C   UNL     1      43.057 -15.130   7.473  1.00  0.00     0.228 C 
BRANCH   6   7
HETATM    7  C   UNL     1      43.815 -16.195   6.668  1.00  0.00     0.240 C 
HETATM    8  N   UNL     1      43.000 -17.244   6.277  1.00  0.00    -0.326 N 
HETATM    9  H   UNL     1      42.034 -17.195   6.607  1.00  0.00     0.169 HD
HETATM   10  O   UNL     1      45.018 -16.077   6.449  1.00  0.00    -0.271 OA
BRANCH   8  11
HETATM   11  C   UNL     1      43.355 -18.392   5.544  1.00  0.00     0.035 A 
HETATM   12  C   UNL     1      43.535 -19.656   6.113  1.00  0.00     0.032 A 
HETATM   13  C   UNL     1      43.890 -20.746   5.312  1.00  0.00     0.044 A 
HETATM   14  C   UNL     1      44.062 -20.570   3.945  1.00  0.00     0.116 A 
HETATM   15  F   UNL     1      44.399 -21.616   3.180  1.00  0.00    -0.206 F 
HETATM   16  C   UNL     1      43.890 -19.322   3.362  1.00  0.00     0.044 A 
HETATM   17  C   UNL     1      43.541 -18.232   4.162  1.00  0.00     0.032 A 
ENDBRANCH   8  11
ENDBRANCH   6   7
ENDBRANCH   3   6
ENDBRANCH   1   2
BRANCH   1  18
HETATM   18  O   UNL     1      43.029 -11.942   4.014  1.00  0.00    -0.308 OA
BRANCH  18  19
HETATM   19  C   UNL     1      42.330 -11.967   2.854  1.00  0.00     0.295 C 
HETATM   20  O   UNL     1      41.825 -11.010   2.289  1.00  0.00    -0.259 OA
BRANCH  19  21
HETATM   21  C   UNL     1      42.262 -13.362   2.350  1.00  0.00     0.060 A 
HETATM   22  C   UNL     1      41.037 -13.905   1.898  1.00  0.00     0.025 A 
HETATM   23  C   UNL     1      41.062 -15.239   1.454  1.00  0.00     0.024 A 
HETATM   24  C   UNL     1      42.254 -15.972   1.385  1.00  0.00     0.002 A 
HETATM   25  C   UNL     1      43.455 -15.399   1.785  1.00  0.00     0.001 A 
HETATM   26  C   UNL     1      43.460 -14.097   2.272  1.00  0.00     0.019 A 
BRANCH  22  27
HETATM   27  N   UNL     1      39.836 -13.187   2.040  1.00  0.00    -0.286 NA
HETATM   28  H   UNL     1      39.840 -12.653   2.914  1.00  0.00     0.128 HD
BRANCH  27  29
HETATM   29  C   UNL     1      39.321 -12.394   0.922  1.00  0.00     0.157 C 
BRANCH  29  30
HETATM   30  C   UNL     1      39.660 -12.915  -0.435  1.00  0.00     0.065 A 
HETATM   31  O   UNL     1      40.690 -12.286  -1.076  1.00  0.00    -0.326 OA
HETATM   32  C   UNL     1      40.850 -12.899  -2.275  1.00  0.00     0.142 A 
HETATM   33  C   UNL     1      39.932 -13.912  -2.424  1.00  0.00     0.027 A 
HETATM   34  C   UNL     1      39.162 -13.924  -1.236  1.00  0.00     0.036 A 
ENDBRANCH  29  30
ENDBRANCH  27  29
ENDBRANCH  22  27
ENDBRANCH  19  21
ENDBRANCH  18  19
ENDBRANCH   1  18
TORSDOF 10
ENDMDL
MODEL 8
REMARK VINA RESULT:      -7.2      3.679      6.088
REMARK  10 active torsions:
REMARK  status: ('A' for Active; 'I' for Inactive)
REMARK       I    between atoms: N_2  and  C_3 
REMARK    1  A    between atoms: N_2  and  C_22 
REMARK    2  A    between atoms: C_3  and  C_4 
REMARK    3  A    between atoms: C_4  and  O_5 
REMARK    4  A    between atoms: O_5  and  C_6 
REMARK    5  A    between atoms: C_6  and  C_7 
REMARK    6  A    between atoms: C_8  and  N_9 
REMARK    7  A    between atoms: N_9  and  C_10 
REMARK    8  A    between atoms: C_10  and  C_11 
REMARK    9  A    between atoms: C_22  and  C_23 
REMARK       I    between atoms: C_23  and  N_24 
REMARK   10  A    between atoms: N_24  and  C_25 
ROOT
HETATM    1  C   UNL     1      39.870  -8.934   7.832  1.00  0.00     0.281 C 
ENDROOT
BRANCH   1   2
HETATM    2  C   UNL     1      39.252 -10.227   7.292  1.00  0.00     0.244 C 
HETATM    3  N   UNL     1      39.441 -10.538   5.950  1.00  0.00    -0.346 N 
HETATM    4  C   UNL     1      40.421  -9.885   5.093  1.00  0.00     0.153 C 
HETATM    5  O   UNL     1      38.639 -11.006   8.032  1.00  0.00    -0.271 OA
BRANCH   3   6
HETATM    6  C   UNL     1      38.883 -11.803   5.454  1.00  0.00     0.228 C 
BRANCH   6   7
HETATM    7  C   UNL     1      39.972 -12.853   5.199  1.00  0.00     0.240 C 
HETATM    8  N   UNL     1      40.541 -13.323   6.371  1.00  0.00    -0.326 N 
HETATM    9  H   UNL     1      40.200 -12.885   7.229  1.00  0.00     0.169 HD
HETATM   10  O   UNL     1      40.273 -13.180   4.054  1.00  0.00    -0.271 OA
BRANCH   8  11
HETATM   11  C   UNL     1      41.569 -14.273   6.517  1.00  0.00     0.035 A 
HETATM   12  C   UNL     1      41.348 -15.636   6.728  1.00  0.00     0.032 A 
HETATM   13  C   UNL     1      42.428 -16.514   6.864  1.00  0.00     0.044 A 
HETATM   14  C   UNL     1      43.726 -16.027   6.786  1.00  0.00     0.116 A 
HETATM   15  F   UNL     1      44.759 -16.869   6.915  1.00  0.00    -0.206 F 
HETATM   16  C   UNL     1      43.966 -14.675   6.579  1.00  0.00     0.044 A 
HETATM   17  C   UNL     1      42.888 -13.797   6.449  1.00  0.00     0.032 A 
ENDBRANCH   8  11
ENDBRANCH   6   7
ENDBRANCH   3   6
ENDBRANCH   1   2
BRANCH   1  18
HETATM   18  O   UNL     1      40.750  -9.250   8.915  1.00  0.00    -0.308 OA
BRANCH  18  19
HETATM   19  C   UNL     1      41.537  -8.234   9.345  1.00  0.00     0.295 C 
HETATM   20  O   UNL     1      41.175  -7.100   9.620  1.00  0.00    -0.259 OA
BRANCH  19  21
HETATM   21  C   UNL     1      42.942  -8.704   9.437  1.00  0.00     0.060 A 
HETATM   22  C   UNL     1      43.293  -9.752  10.319  1.00  0.00     0.025 A 
HETATM   23  C   UNL     1      44.649 -10.121  10.354  1.00  0.00     0.024 A 
HETATM   24  C   UNL     1      45.595  -9.540   9.499  1.00  0.00     0.002 A 
HETATM   25  C   UNL     1      45.216  -8.548   8.603  1.00  0.00     0.001 A 
HETATM   26  C   UNL     1      43.892  -8.126   8.574  1.00  0.00     0.019 A 
BRANCH  22  27
HETATM   27  N   UNL     1      42.353 -10.278  11.223  1.00  0.00    -0.286 NA
HETATM   28  H   UNL     1      41.967 -11.157  10.865  1.00  0.00     0.128 HD
BRANCH  27  29
HETATM   29  C   UNL     1      42.677 -10.369  12.647  1.00  0.00     0.157 C 
BRANCH  29  30
HETATM   30  C   UNL     1      42.623  -9.077  13.393  1.00  0.00     0.065 A 
HETATM   31  O   UNL     1      41.784  -9.046  14.472  1.00  0.00    -0.326 OA
HETATM   32  C   UNL     1      41.877  -7.807  15.016  1.00  0.00     0.142 A 
HETATM   33  C   UNL     1      42.759  -7.032  14.301  1.00  0.00     0.027 A 
HETATM   34  C   UNL     1      43.242  -7.851  13.251  1.00  0.00     0.036 A 
ENDBRANCH  29  30
ENDBRANCH  27  29
ENDBRANCH  22  27
ENDBRANCH  19  21
ENDBRANCH  18  19
ENDBRANCH   1  18
TORSDOF 10
ENDMDL
MODEL 9
REMARK VINA RESULT:      -7.2      2.660      4.934
REMARK  10 active torsions:
REMARK  status: ('A' for Active; 'I' for Inactive)
REMARK       I    between atoms: N_2  and  C_3 
REMARK    1  A    between atoms: N_2  and  C_22 
REMARK    2  A    between atoms: C_3  and  C_4 
REMARK    3  A    between atoms: C_4  and  O_5 
REMARK    4  A    between atoms: O_5  and  C_6 
REMARK    5  A    between atoms: C_6  and  C_7 
REMARK    6  A    between atoms: C_8  and  N_9 
REMARK    7  A    between atoms: N_9  and  C_10 
REMARK    8  A    between atoms: C_10  and  C_11 
REMARK    9  A    between atoms: C_22  and  C_23 
REMARK       I    between atoms: C_23  and  N_24 
REMARK   10  A    between atoms: N_24  and  C_25 
ROOT
HETATM    1  C   UNL     1      40.177  -9.452   7.017  1.00  0.00     0.281 C 
ENDROOT
BRANCH   1   2
HETATM    2  C   UNL     1      39.576 -10.782   6.552  1.00  0.00     0.244 C 
HETATM    3  N   UNL     1      40.087 -11.370   5.400  1.00  0.00    -0.346 N 
HETATM    4  C   UNL     1      41.338 -10.974   4.770  1.00  0.00     0.153 C 
HETATM    5  O   UNL     1      38.689 -11.350   7.202  1.00  0.00    -0.271 OA
BRANCH   3   6
HETATM    6  C   UNL     1      39.534 -12.667   4.990  1.00  0.00     0.228 C 
BRANCH   6   7
HETATM    7  C   UNL     1      40.526 -13.816   5.217  1.00  0.00     0.240 C 
HETATM    8  N   UNL     1      40.940 -14.400   4.032  1.00  0.00    -0.326 N 
HETATM    9  H   UNL     1      40.505 -14.029   3.185  1.00  0.00     0.169 HD
HETATM   10  O   UNL     1      40.858 -14.144   6.353  1.00  0.00    -0.271 OA
BRANCH   8  11
HETATM   11  C   UNL     1      41.827 -15.479   3.860  1.00  0.00     0.035 A 
HETATM   12  C   UNL     1      42.919 -15.732   4.694  1.00  0.00     0.032 A 
HETATM   13  C   UNL     1      43.754 -16.828   4.453  1.00  0.00     0.044 A 
HETATM   14  C   UNL     1      43.492 -17.670   3.379  1.00  0.00     0.116 A 
HETATM   15  F   UNL     1      44.291 -18.720   3.151  1.00  0.00    -0.206 F 
HETATM   16  C   UNL     1      42.413 -17.434   2.538  1.00  0.00     0.044 A 
HETATM   17  C   UNL     1      41.583 -16.337   2.776  1.00  0.00     0.032 A 
ENDBRANCH   8  11
ENDBRANCH   6   7
ENDBRANCH   3   6
ENDBRANCH   1   2
BRANCH   1  18
HETATM   18  O   UNL     1      40.852  -9.651   8.263  1.00  0.00    -0.308 OA
BRANCH  18  19
HETATM   19  C   UNL     1      41.943  -8.875   8.468  1.00  0.00     0.295 C 
HETATM   20  O   UNL     1      42.569  -8.262   7.617  1.00  0.00    -0.259 OA
BRANCH  19  21
HETATM   21  C   UNL     1      42.282  -8.874   9.913  1.00  0.00     0.060 A 
HETATM   22  C   UNL     1      43.623  -8.730  10.338  1.00  0.00     0.025 A 
HETATM   23  C   UNL     1      43.853  -8.757  11.725  1.00  0.00     0.024 A 
HETATM   24  C   UNL     1      42.801  -8.839  12.647  1.00  0.00     0.002 A 
HETATM   25  C   UNL     1      41.487  -8.927  12.206  1.00  0.00     0.001 A 
HETATM   26  C   UNL     1      41.225  -8.949  10.841  1.00  0.00     0.019 A 
BRANCH  22  27
HETATM   27  N   UNL     1      44.676  -8.721   9.406  1.00  0.00    -0.286 NA
HETATM   28  H   UNL     1      45.231  -7.865   9.503  1.00  0.00     0.128 HD
BRANCH  27  29
HETATM   29  C   UNL     1      45.526  -9.902   9.251  1.00  0.00     0.157 C 
BRANCH  29  30
HETATM   30  C   UNL     1      45.162 -10.800   8.115  1.00  0.00     0.065 A 
HETATM   31  O   UNL     1      44.119 -11.655   8.342  1.00  0.00    -0.326 OA
HETATM   32  C   UNL     1      43.937 -12.374   7.206  1.00  0.00     0.142 A 
HETATM   33  C   UNL     1      44.851 -12.002   6.249  1.00  0.00     0.027 A 
HETATM   34  C   UNL     1      45.645 -10.986   6.835  1.00  0.00     0.036 A 
ENDBRANCH  29  30
ENDBRANCH  27  29
ENDBRANCH  22  27
ENDBRANCH  19  21
ENDBRANCH  18  19
ENDBRANCH   1  18
TORSDOF 10
ENDMDL
MODEL 10
REMARK VINA RESULT:      -7.1      3.629      5.863
REMARK  10 active torsions:
REMARK  status: ('A' for Active; 'I' for Inactive)
REMARK       I    between atoms: N_2  and  C_3 
REMARK    1  A    between atoms: N_2  and  C_22 
REMARK    2  A    between atoms: C_3  and  C_4 
REMARK    3  A    between atoms: C_4  and  O_5 
REMARK    4  A    between atoms: O_5  and  C_6 
REMARK    5  A    between atoms: C_6  and  C_7 
REMARK    6  A    between atoms: C_8  and  N_9 
REMARK    7  A    between atoms: N_9  and  C_10 
REMARK    8  A    between atoms: C_10  and  C_11 
REMARK    9  A    between atoms: C_22  and  C_23 
REMARK       I    between atoms: C_23  and  N_24 
REMARK   10  A    between atoms: N_24  and  C_25 
ROOT
HETATM    1  C   UNL     1      39.764  -9.081   7.741  1.00  0.00     0.281 C 
ENDROOT
BRANCH   1   2
HETATM    2  C   UNL     1      39.200 -10.332   7.061  1.00  0.00     0.244 C 
HETATM    3  N   UNL     1      39.606 -10.616   5.762  1.00  0.00    -0.346 N 
HETATM    4  C   UNL     1      40.744  -9.985   5.108  1.00  0.00     0.153 C 
HETATM    5  O   UNL     1      38.438 -11.102   7.658  1.00  0.00    -0.271 OA
BRANCH   3   6
HETATM    6  C   UNL     1      39.094 -11.842   5.136  1.00  0.00     0.228 C 
BRANCH   6   7
HETATM    7  C   UNL     1      40.174 -12.927   5.025  1.00  0.00     0.240 C 
HETATM    8  N   UNL     1      40.371 -13.347   3.720  1.00  0.00    -0.326 N 
HETATM    9  H   UNL     1      39.754 -12.922   3.025  1.00  0.00     0.169 HD
HETATM   10  O   UNL     1      40.745 -13.349   6.027  1.00  0.00    -0.271 OA
BRANCH   8  11
HETATM   11  C   UNL     1      41.263 -14.329   3.250  1.00  0.00     0.035 A 
HETATM   12  C   UNL     1      42.509 -14.045   2.686  1.00  0.00     0.032 A 
HETATM   13  C   UNL     1      43.336 -15.081   2.242  1.00  0.00     0.044 A 
HETATM   14  C   UNL     1      42.916 -16.399   2.365  1.00  0.00     0.116 A 
HETATM   15  F   UNL     1      43.710 -17.390   1.941  1.00  0.00    -0.206 F 
HETATM   16  C   UNL     1      41.680 -16.701   2.921  1.00  0.00     0.044 A 
HETATM   17  C   UNL     1      40.852 -15.666   3.359  1.00  0.00     0.032 A 
ENDBRANCH   8  11
ENDBRANCH   6   7
ENDBRANCH   3   6
ENDBRANCH   1   2
BRANCH   1  18
HETATM   18  O   UNL     1      40.915  -9.443   8.511  1.00  0.00    -0.308 OA
BRANCH  18  19
HETATM   19  C   UNL     1      41.594  -8.412   9.068  1.00  0.00     0.295 C 
HETATM   20  O   UNL     1      41.141  -7.317   9.363  1.00  0.00    -0.259 OA
BRANCH  19  21
HETATM   21  C   UNL     1      43.010  -8.809   9.275  1.00  0.00     0.060 A 
HETATM   22  C   UNL     1      43.349  -9.785  10.239  1.00  0.00     0.025 A 
HETATM   23  C   UNL     1      44.715 -10.088  10.379  1.00  0.00     0.024 A 
HETATM   24  C   UNL     1      45.687  -9.514   9.550  1.00  0.00     0.002 A 
HETATM   25  C   UNL     1      45.324  -8.596   8.573  1.00  0.00     0.001 A 
HETATM   26  C   UNL     1      43.987  -8.239   8.437  1.00  0.00     0.019 A 
BRANCH  22  27
HETATM   27  N   UNL     1      42.376 -10.302  11.114  1.00  0.00    -0.286 NA
HETATM   28  H   UNL     1      42.009 -11.188  10.756  1.00  0.00     0.128 HD
BRANCH  27  29
HETATM   29  C   UNL     1      42.647 -10.368  12.552  1.00  0.00     0.157 C 
BRANCH  29  30
HETATM   30  C   UNL     1      42.543  -9.068  13.277  1.00  0.00     0.065 A 
HETATM   31  O   UNL     1      41.507  -8.961  14.163  1.00  0.00    -0.326 OA
HETATM   32  C   UNL     1      41.583  -7.727  14.721  1.00  0.00     0.142 A 
HETATM   33  C   UNL     1      42.649  -7.030  14.203  1.00  0.00     0.027 A 
HETATM   34  C   UNL     1      43.270  -7.894  13.269  1.00  0.00     0.036 A 
ENDBRANCH  29  30
ENDBRANCH  27  29
ENDBRANCH  22  27
ENDBRANCH  19  21
ENDBRANCH  18  19
ENDBRANCH   1  18
TORSDOF 10
ENDMDL
