MODEL 1
REMARK VINA RESULT:      -8.5      0.000      0.000
REMARK  4 active torsions:
REMARK  status: ('A' for Active; 'I' for Inactive)
REMARK    1  A    between atoms: C_2  and  C_3 
REMARK    2  A    between atoms: C_7  and  N_8 
REMARK       I    between atoms: N_8  and  C_9 
REMARK    3  A    between atoms: C_9  and  C_10 
REMARK    4  A    between atoms: C_12  and  C_13 
ROOT
HETATM    1  C   UNL     1      42.802 -14.487   4.235  1.00  0.00     0.149 A 
HETATM    2  N   UNL     1      43.111 -15.806   4.538  1.00  0.00    -0.223 NA
HETATM    3  C   UNL     1      43.010 -16.490   3.411  1.00  0.00     0.139 A 
HETATM    4  N   UNL     1      42.631 -15.645   2.393  1.00  0.00    -0.342 N 
HETATM    5  H   UNL     1      42.476 -15.917   1.433  1.00  0.00     0.167 HD
HETATM    6  C   UNL     1      42.498 -14.375   2.892  1.00  0.00     0.041 A 
HETATM    7  C   UNL     1      42.108 -13.214   2.060  1.00  0.00     0.071 C 
ENDROOT
BRANCH   1   8
HETATM    8  C   UNL     1      42.821 -13.423   5.243  1.00  0.00     0.278 C 
HETATM    9  N   UNL     1      44.076 -13.265   5.800  1.00  0.00    -0.306 N 
HETATM   10  H   UNL     1      44.806 -13.886   5.461  1.00  0.00     0.170 HD
HETATM   11  O   UNL     1      41.831 -12.756   5.542  1.00  0.00    -0.265 OA
BRANCH   9  12
HETATM   12  C   UNL     1      44.357 -12.311   6.752  1.00  0.00     0.126 A 
HETATM   13  N   UNL     1      43.681 -12.177   7.936  1.00  0.00    -0.262 N 
HETATM   14  N   UNL     1      44.124 -11.160   8.698  1.00  0.00    -0.178 NA
HETATM   15  H   UNL     1      42.907 -12.749   8.264  1.00  0.00     0.191 HD
HETATM   16  C   UNL     1      45.124 -10.634   7.978  1.00  0.00     0.058 A 
HETATM   17  C   UNL     1      45.310 -11.322   6.753  1.00  0.00     0.079 A 
BRANCH  16  18
HETATM   18  C   UNL     1      45.884  -9.457   8.490  1.00  0.00     0.056 C 
HETATM   19  C   UNL     1      44.989  -8.256   8.750  1.00  0.00     0.011 C 
ENDBRANCH  16  18
ENDBRANCH   9  12
ENDBRANCH   1   8
BRANCH   3  20
HETATM   20  C   UNL     1      43.258 -17.929   3.258  1.00  0.00     0.012 A 
HETATM   21  C   UNL     1      43.756 -18.656   4.352  1.00  0.00     0.039 A 
HETATM   22  C   UNL     1      44.009 -20.023   4.244  1.00  0.00     0.035 A 
HETATM   23 CL   UNL     1      44.618 -20.889   5.600  1.00  0.00    -0.084 Cl
HETATM   24  C   UNL     1      43.771 -20.693   3.047  1.00  0.00     0.024 A 
HETATM   25  C   UNL     1      43.279 -19.987   1.951  1.00  0.00     0.003 A 
HETATM   26  C   UNL     1      43.025 -18.615   2.055  1.00  0.00     0.015 A 
ENDBRANCH   3  20
TORSDOF 4
ENDMDL
MODEL 2
REMARK VINA RESULT:      -8.1      1.397      1.747
REMARK  4 active torsions:
REMARK  status: ('A' for Active; 'I' for Inactive)
REMARK    1  A    between atoms: C_2  and  C_3 
REMARK    2  A    between atoms: C_7  and  N_8 
REMARK       I    between atoms: N_8  and  C_9 
REMARK    3  A    between atoms: C_9  and  C_10 
REMARK    4  A    between atoms: C_12  and  C_13 
ROOT
HETATM    1  C   UNL     1      42.889 -14.274   4.715  1.00  0.00     0.149 A 
HETATM    2  N   UNL     1      43.132 -15.565   5.165  1.00  0.00    -0.223 NA
HETATM    3  C   UNL     1      43.257 -16.326   4.091  1.00  0.00     0.139 A 
HETATM    4  N   UNL     1      43.086 -15.559   2.961  1.00  0.00    -0.342 N 
HETATM    5  H   UNL     1      43.124 -15.898   2.011  1.00  0.00     0.167 HD
HETATM    6  C   UNL     1      42.857 -14.259   3.334  1.00  0.00     0.041 A 
HETATM    7  C   UNL     1      42.639 -13.164   2.362  1.00  0.00     0.071 C 
ENDROOT
BRANCH   1   8
HETATM    8  C   UNL     1      42.707 -13.144   5.630  1.00  0.00     0.278 C 
HETATM    9  N   UNL     1      43.915 -12.580   5.995  1.00  0.00    -0.306 N 
HETATM   10  H   UNL     1      44.753 -13.004   5.605  1.00  0.00     0.170 HD
HETATM   11  O   UNL     1      41.605 -12.753   6.013  1.00  0.00    -0.265 OA
BRANCH   9  12
HETATM   12  C   UNL     1      44.009 -11.486   6.826  1.00  0.00     0.126 A 
HETATM   13  N   UNL     1      43.150 -10.420   6.800  1.00  0.00    -0.262 N 
HETATM   14  N   UNL     1      43.452  -9.462   7.696  1.00  0.00    -0.178 NA
HETATM   15  H   UNL     1      42.349 -10.297   6.186  1.00  0.00     0.191 HD
HETATM   16  C   UNL     1      44.536  -9.939   8.320  1.00  0.00     0.058 A 
HETATM   17  C   UNL     1      44.922 -11.205   7.813  1.00  0.00     0.079 A 
BRANCH  16  18
HETATM   18  C   UNL     1      45.192  -9.150   9.403  1.00  0.00     0.056 C 
HETATM   19  C   UNL     1      44.557  -9.390  10.764  1.00  0.00     0.011 C 
ENDBRANCH  16  18
ENDBRANCH   9  12
ENDBRANCH   1   8
BRANCH   3  20
HETATM   20  C   UNL     1      43.531 -17.769   4.091  1.00  0.00     0.012 A 
HETATM   21  C   UNL     1      43.459 -18.476   2.879  1.00  0.00     0.039 A 
HETATM   22  C   UNL     1      43.709 -19.847   2.839  1.00  0.00     0.035 A 
HETATM   23 CL   UNL     1      43.615 -20.690   1.342  1.00  0.00    -0.084 Cl
HETATM   24  C   UNL     1      44.033 -20.541   4.001  1.00  0.00     0.024 A 
HETATM   25  C   UNL     1      44.107 -19.856   5.213  1.00  0.00     0.003 A 
HETATM   26  C   UNL     1      43.857 -18.479   5.257  1.00  0.00     0.015 A 
ENDBRANCH   3  20
TORSDOF 4
ENDMDL
MODEL 3
REMARK VINA RESULT:      -8.0      4.682      7.119
REMARK  4 active torsions:
REMARK  status: ('A' for Active; 'I' for Inactive)
REMARK    1  A    between atoms: C_2  and  C_3 
REMARK    2  A    between atoms: C_7  and  N_8 
REMARK       I    between atoms: N_8  and  C_9 
REMARK    3  A    between atoms: C_9  and  C_10 
REMARK    4  A    between atoms: C_12  and  C_13 
ROOT
HETATM    1  C   UNL     1      40.782 -14.570   1.246  1.00  0.00     0.149 A 
HETATM    2  N   UNL     1      41.711 -15.599   1.322  1.00  0.00    -0.223 NA
HETATM    3  C   UNL     1      41.818 -15.922   2.599  1.00  0.00     0.139 A 
HETATM    4  N   UNL     1      40.991 -15.117   3.349  1.00  0.00    -0.342 N 
HETATM    5  H   UNL     1      40.891 -15.152   4.353  1.00  0.00     0.167 HD
HETATM    6  C   UNL     1      40.325 -14.259   2.512  1.00  0.00     0.041 A 
HETATM    7  C   UNL     1      39.345 -13.258   2.991  1.00  0.00     0.071 C 
ENDROOT
BRANCH   1   8
HETATM    8  C   UNL     1      40.390 -13.956  -0.026  1.00  0.00     0.278 C 
HETATM    9  N   UNL     1      41.179 -12.864  -0.334  1.00  0.00    -0.306 N 
HETATM   10  H   UNL     1      41.905 -12.624   0.335  1.00  0.00     0.170 HD
HETATM   11  O   UNL     1      39.469 -14.378  -0.725  1.00  0.00    -0.265 OA
BRANCH   9  12
HETATM   12  C   UNL     1      41.025 -12.134  -1.492  1.00  0.00     0.126 A 
HETATM   13  N   UNL     1      41.174 -12.645  -2.753  1.00  0.00    -0.262 N 
HETATM   14  N   UNL     1      40.992 -11.736  -3.728  1.00  0.00    -0.178 NA
HETATM   15  H   UNL     1      41.407 -13.604  -2.999  1.00  0.00     0.191 HD
HETATM   16  C   UNL     1      40.707 -10.608  -3.064  1.00  0.00     0.058 A 
HETATM   17  C   UNL     1      40.714 -10.807  -1.661  1.00  0.00     0.079 A 
BRANCH  16  18
HETATM   18  C   UNL     1      40.440  -9.342  -3.806  1.00  0.00     0.056 C 
HETATM   19  C   UNL     1      41.542  -8.312  -3.613  1.00  0.00     0.011 C 
ENDBRANCH  16  18
ENDBRANCH   9  12
ENDBRANCH   1   8
BRANCH   3  20
HETATM   20  C   UNL     1      42.686 -16.973   3.147  1.00  0.00     0.012 A 
HETATM   21  C   UNL     1      42.914 -18.133   2.387  1.00  0.00     0.039 A 
HETATM   22  C   UNL     1      43.729 -19.154   2.875  1.00  0.00     0.035 A 
HETATM   23 CL   UNL     1      43.992 -20.564   1.924  1.00  0.00    -0.084 Cl
HETATM   24  C   UNL     1      44.330 -19.043   4.125  1.00  0.00     0.024 A 
HETATM   25  C   UNL     1      44.113 -17.901   4.893  1.00  0.00     0.003 A 
HETATM   26  C   UNL     1      43.296 -16.873   4.407  1.00  0.00     0.015 A 
ENDBRANCH   3  20
TORSDOF 4
ENDMDL
MODEL 4
REMARK VINA RESULT:      -7.9      3.047      8.552
REMARK  4 active torsions:
REMARK  status: ('A' for Active; 'I' for Inactive)
REMARK    1  A    between atoms: C_2  and  C_3 
REMARK    2  A    between atoms: C_7  and  N_8 
REMARK       I    between atoms: N_8  and  C_9 
REMARK    3  A    between atoms: C_9  and  C_10 
REMARK    4  A    between atoms: C_12  and  C_13 
ROOT
HETATM    1  C   UNL     1      42.721 -13.206   5.327  1.00  0.00     0.149 A 
HETATM    2  N   UNL     1      43.848 -12.600   5.865  1.00  0.00    -0.223 NA
HETATM    3  C   UNL     1      43.422 -11.735   6.770  1.00  0.00     0.139 A 
HETATM    4  N   UNL     1      42.046 -11.760   6.818  1.00  0.00    -0.342 N 
HETATM    5  H   UNL     1      41.470 -11.189   7.419  1.00  0.00     0.167 HD
HETATM    6  C   UNL     1      41.585 -12.686   5.917  1.00  0.00     0.041 A 
HETATM    7  C   UNL     1      40.146 -12.974   5.717  1.00  0.00     0.071 C 
ENDROOT
BRANCH   1   8
HETATM    8  C   UNL     1      42.802 -14.240   4.293  1.00  0.00     0.278 C 
HETATM    9  N   UNL     1      42.980 -15.498   4.837  1.00  0.00    -0.306 N 
HETATM   10  H   UNL     1      43.038 -15.552   5.851  1.00  0.00     0.170 HD
HETATM   11  O   UNL     1      42.714 -14.002   3.088  1.00  0.00    -0.265 OA
BRANCH   9  12
HETATM   12  C   UNL     1      43.059 -16.640   4.071  1.00  0.00     0.126 A 
HETATM   13  N   UNL     1      42.409 -16.817   2.879  1.00  0.00    -0.262 N 
HETATM   14  N   UNL     1      42.625 -18.023   2.321  1.00  0.00    -0.178 NA
HETATM   15  H   UNL     1      41.803 -16.149   2.410  1.00  0.00     0.191 HD
HETATM   16  C   UNL     1      43.449 -18.631   3.184  1.00  0.00     0.058 A 
HETATM   17  C   UNL     1      43.751 -17.805   4.295  1.00  0.00     0.079 A 
BRANCH  16  18
HETATM   18  C   UNL     1      43.926 -20.019   2.920  1.00  0.00     0.056 C 
HETATM   19  C   UNL     1      43.521 -20.521   1.543  1.00  0.00     0.011 C 
ENDBRANCH  16  18
ENDBRANCH   9  12
ENDBRANCH   1   8
BRANCH   3  20
HETATM   20  C   UNL     1      44.274 -10.873   7.599  1.00  0.00     0.012 A 
HETATM   21  C   UNL     1      43.797 -10.444   8.849  1.00  0.00     0.039 A 
HETATM   22  C   UNL     1      44.575  -9.621   9.663  1.00  0.00     0.035 A 
HETATM   23 CL   UNL     1      43.968  -9.110  11.190  1.00  0.00    -0.084 Cl
HETATM   24  C   UNL     1      45.839  -9.210   9.251  1.00  0.00     0.024 A 
HETATM   25  C   UNL     1      46.327  -9.625   8.013  1.00  0.00     0.003 A 
HETATM   26  C   UNL     1      45.549 -10.451   7.192  1.00  0.00     0.015 A 
ENDBRANCH   3  20
TORSDOF 4
ENDMDL
MODEL 5
REMARK VINA RESULT:      -7.8      3.186      6.686
REMARK  4 active torsions:
REMARK  status: ('A' for Active; 'I' for Inactive)
REMARK    1  A    between atoms: C_2  and  C_3 
REMARK    2  A    between atoms: C_7  and  N_8 
REMARK       I    between atoms: N_8  and  C_9 
REMARK    3  A    between atoms: C_9  and  C_10 
REMARK    4  A    between atoms: C_12  and  C_13 
ROOT
HETATM    1  C   UNL     1      42.391 -14.693   2.410  1.00  0.00     0.149 A 
HETATM    2  N   UNL     1      42.489 -16.016   2.002  1.00  0.00    -0.223 NA
HETATM    3  C   UNL     1      43.019 -16.688   3.009  1.00  0.00     0.139 A 
HETATM    4  N   UNL     1      43.278 -15.827   4.051  1.00  0.00    -0.342 N 
HETATM    5  H   UNL     1      43.692 -16.084   4.936  1.00  0.00     0.167 HD
HETATM    6  C   UNL     1      42.884 -14.562   3.694  1.00  0.00     0.041 A 
HETATM    7  C   UNL     1      43.013 -13.391   4.590  1.00  0.00     0.071 C 
ENDROOT
BRANCH   1   8
HETATM    8  C   UNL     1      41.831 -13.645   1.553  1.00  0.00     0.278 C 
HETATM    9  N   UNL     1      41.192 -14.172   0.446  1.00  0.00    -0.306 N 
HETATM   10  H   UNL     1      41.192 -15.186   0.361  1.00  0.00     0.170 HD
HETATM   11  O   UNL     1      41.923 -12.443   1.805  1.00  0.00    -0.265 OA
BRANCH   9  12
HETATM   12  C   UNL     1      40.561 -13.391  -0.496  1.00  0.00     0.126 A 
HETATM   13  N   UNL     1      41.166 -12.379  -1.192  1.00  0.00    -0.262 N 
HETATM   14  N   UNL     1      40.343 -11.745  -2.047  1.00  0.00    -0.178 NA
HETATM   15  H   UNL     1      42.134 -12.079  -1.113  1.00  0.00     0.191 HD
HETATM   16  C   UNL     1      39.174 -12.382  -1.897  1.00  0.00     0.058 A 
HETATM   17  C   UNL     1      39.261 -13.422  -0.938  1.00  0.00     0.079 A 
BRANCH  16  18
HETATM   18  C   UNL     1      37.980 -11.962  -2.685  1.00  0.00     0.056 C 
HETATM   19  C   UNL     1      36.954 -13.077  -2.824  1.00  0.00     0.011 C 
ENDBRANCH  16  18
ENDBRANCH   9  12
ENDBRANCH   1   8
BRANCH   3  20
HETATM   20  C   UNL     1      43.299 -18.130   3.025  1.00  0.00     0.012 A 
HETATM   21  C   UNL     1      43.719 -18.730   4.223  1.00  0.00     0.039 A 
HETATM   22  C   UNL     1      43.998 -20.095   4.277  1.00  0.00     0.035 A 
HETATM   23 CL   UNL     1      44.511 -20.805   5.757  1.00  0.00    -0.084 Cl
HETATM   24  C   UNL     1      43.864 -20.889   3.141  1.00  0.00     0.024 A 
HETATM   25  C   UNL     1      43.450 -20.310   1.943  1.00  0.00     0.003 A 
HETATM   26  C   UNL     1      43.169 -18.940   1.885  1.00  0.00     0.015 A 
ENDBRANCH   3  20
TORSDOF 4
ENDMDL
MODEL 6
REMARK VINA RESULT:      -7.6      4.042      9.571
REMARK  4 active torsions:
REMARK  status: ('A' for Active; 'I' for Inactive)
REMARK    1  A    between atoms: C_2  and  C_3 
REMARK    2  A    between atoms: C_7  and  N_8 
REMARK       I    between atoms: N_8  and  C_9 
REMARK    3  A    between atoms: C_9  and  C_10 
REMARK    4  A    between atoms: C_12  and  C_13 
ROOT
HETATM    1  C   UNL     1      44.402 -10.607   8.285  1.00  0.00     0.149 A 
HETATM    2  N   UNL     1      43.444 -10.574   9.289  1.00  0.00    -0.223 NA
HETATM    3  C   UNL     1      43.869  -9.709  10.193  1.00  0.00     0.139 A 
HETATM    4  N   UNL     1      45.084  -9.194   9.802  1.00  0.00    -0.342 N 
HETATM    5  H   UNL     1      45.629  -8.519  10.319  1.00  0.00     0.167 HD
HETATM    6  C   UNL     1      45.436  -9.746   8.597  1.00  0.00     0.041 A 
HETATM    7  C   UNL     1      46.688  -9.404   7.884  1.00  0.00     0.071 C 
ENDROOT
BRANCH   1   8
HETATM    8  C   UNL     1      44.266 -11.453   7.096  1.00  0.00     0.278 C 
HETATM    9  N   UNL     1      43.665 -12.663   7.391  1.00  0.00    -0.306 N 
HETATM   10  H   UNL     1      43.405 -12.817   8.362  1.00  0.00     0.170 HD
HETATM   11  O   UNL     1      44.642 -11.110   5.975  1.00  0.00    -0.265 OA
BRANCH   9  12
HETATM   12  C   UNL     1      43.402 -13.619   6.436  1.00  0.00     0.126 A 
HETATM   13  N   UNL     1      42.739 -13.377   5.262  1.00  0.00    -0.262 N 
HETATM   14  N   UNL     1      42.585 -14.472   4.495  1.00  0.00    -0.178 NA
HETATM   15  H   UNL     1      42.367 -12.486   4.945  1.00  0.00     0.191 HD
HETATM   16  C   UNL     1      43.179 -15.443   5.201  1.00  0.00     0.058 A 
HETATM   17  C   UNL     1      43.708 -14.958   6.423  1.00  0.00     0.079 A 
BRANCH  16  18
HETATM   18  C   UNL     1      43.217 -16.840   4.679  1.00  0.00     0.056 C 
HETATM   19  C   UNL     1      44.000 -17.778   5.585  1.00  0.00     0.011 C 
ENDBRANCH  16  18
ENDBRANCH   9  12
ENDBRANCH   1   8
BRANCH   3  20
HETATM   20  C   UNL     1      43.165  -9.347  11.430  1.00  0.00     0.012 A 
HETATM   21  C   UNL     1      41.982 -10.026  11.765  1.00  0.00     0.039 A 
HETATM   22  C   UNL     1      41.283  -9.708  12.929  1.00  0.00     0.035 A 
HETATM   23 CL   UNL     1      39.836 -10.556  13.315  1.00  0.00    -0.084 Cl
HETATM   24  C   UNL     1      41.745  -8.710  13.781  1.00  0.00     0.024 A 
HETATM   25  C   UNL     1      42.917  -8.024  13.464  1.00  0.00     0.003 A 
HETATM   26  C   UNL     1      43.621  -8.340  12.296  1.00  0.00     0.015 A 
ENDBRANCH   3  20
TORSDOF 4
ENDMDL
MODEL 7
REMARK VINA RESULT:      -7.6      4.373      7.497
REMARK  4 active torsions:
REMARK  status: ('A' for Active; 'I' for Inactive)
REMARK    1  A    between atoms: C_2  and  C_3 
REMARK    2  A    between atoms: C_7  and  N_8 
REMARK       I    between atoms: N_8  and  C_9 
REMARK    3  A    between atoms: C_9  and  C_10 
REMARK    4  A    between atoms: C_12  and  C_13 
ROOT
HETATM    1  C   UNL     1      41.026 -13.990   1.829  1.00  0.00     0.149 A 
HETATM    2  N   UNL     1      41.906 -15.059   1.731  1.00  0.00    -0.223 NA
HETATM    3  C   UNL     1      41.965 -15.616   2.928  1.00  0.00     0.139 A 
HETATM    4  N   UNL     1      41.154 -14.924   3.798  1.00  0.00    -0.342 N 
HETATM    5  H   UNL     1      41.025 -15.138   4.777  1.00  0.00     0.167 HD
HETATM    6  C   UNL     1      40.549 -13.895   3.122  1.00  0.00     0.041 A 
HETATM    7  C   UNL     1      39.601 -12.953   3.760  1.00  0.00     0.071 C 
ENDROOT
BRANCH   1   8
HETATM    8  C   UNL     1      40.696 -13.134   0.686  1.00  0.00     0.278 C 
HETATM    9  N   UNL     1      39.463 -13.451   0.146  1.00  0.00    -0.306 N 
HETATM   10  H   UNL     1      38.955 -14.214   0.587  1.00  0.00     0.170 HD
HETATM   11  O   UNL     1      41.436 -12.243   0.271  1.00  0.00    -0.265 OA
BRANCH   9  12
HETATM   12  C   UNL     1      38.917 -12.772  -0.920  1.00  0.00     0.126 A 
HETATM   13  N   UNL     1      39.540 -12.598  -2.127  1.00  0.00    -0.262 N 
HETATM   14  N   UNL     1      38.816 -11.884  -3.009  1.00  0.00    -0.178 NA
HETATM   15  H   UNL     1      40.460 -12.940  -2.393  1.00  0.00     0.191 HD
HETATM   16  C   UNL     1      37.689 -11.602  -2.344  1.00  0.00     0.058 A 
HETATM   17  C   UNL     1      37.703 -12.138  -1.031  1.00  0.00     0.079 A 
BRANCH  16  18
HETATM   18  C   UNL     1      36.610 -10.803  -2.992  1.00  0.00     0.056 C 
HETATM   19  C   UNL     1      37.151  -9.590  -3.734  1.00  0.00     0.011 C 
ENDBRANCH  16  18
ENDBRANCH   9  12
ENDBRANCH   1   8
BRANCH   3  20
HETATM   20  C   UNL     1      42.769 -16.791   3.287  1.00  0.00     0.012 A 
HETATM   21  C   UNL     1      42.798 -17.891   2.414  1.00  0.00     0.039 A 
HETATM   22  C   UNL     1      43.548 -19.026   2.722  1.00  0.00     0.035 A 
HETATM   23 CL   UNL     1      43.566 -20.359   1.635  1.00  0.00    -0.084 Cl
HETATM   24  C   UNL     1      44.281 -19.089   3.903  1.00  0.00     0.024 A 
HETATM   25  C   UNL     1      44.263 -18.008   4.782  1.00  0.00     0.003 A 
HETATM   26  C   UNL     1      43.512 -16.867   4.477  1.00  0.00     0.015 A 
ENDBRANCH   3  20
TORSDOF 4
ENDMDL
MODEL 8
REMARK VINA RESULT:      -7.5      3.355      5.214
REMARK  4 active torsions:
REMARK  status: ('A' for Active; 'I' for Inactive)
REMARK    1  A    between atoms: C_2  and  C_3 
REMARK    2  A    between atoms: C_7  and  N_8 
REMARK       I    between atoms: N_8  and  C_9 
REMARK    3  A    between atoms: C_9  and  C_10 
REMARK    4  A    between atoms: C_12  and  C_13 
ROOT
HETATM    1  C   UNL     1      42.151 -14.489   3.556  1.00  0.00     0.149 A 
HETATM    2  N   UNL     1      41.317 -13.648   2.833  1.00  0.00    -0.223 NA
HETATM    3  C   UNL     1      40.988 -14.294   1.728  1.00  0.00     0.139 A 
HETATM    4  N   UNL     1      41.601 -15.526   1.716  1.00  0.00    -0.342 N 
HETATM    5  H   UNL     1      41.522 -16.214   0.980  1.00  0.00     0.167 HD
HETATM    6  C   UNL     1      42.337 -15.670   2.864  1.00  0.00     0.041 A 
HETATM    7  C   UNL     1      43.119 -16.888   3.178  1.00  0.00     0.071 C 
ENDROOT
BRANCH   1   8
HETATM    8  C   UNL     1      42.710 -14.114   4.858  1.00  0.00     0.278 C 
HETATM    9  N   UNL     1      43.318 -12.873   4.817  1.00  0.00    -0.306 N 
HETATM   10  H   UNL     1      43.310 -12.391   3.922  1.00  0.00     0.170 HD
HETATM   11  O   UNL     1      42.635 -14.827   5.858  1.00  0.00    -0.265 OA
BRANCH   9  12
HETATM   12  C   UNL     1      43.895 -12.287   5.921  1.00  0.00     0.126 A 
HETATM   13  N   UNL     1      43.450 -12.452   7.206  1.00  0.00    -0.262 N 
HETATM   14  N   UNL     1      44.164 -11.765   8.116  1.00  0.00    -0.178 NA
HETATM   15  H   UNL     1      42.660 -13.015   7.509  1.00  0.00     0.191 HD
HETATM   16  C   UNL     1      45.103 -11.149   7.387  1.00  0.00     0.058 A 
HETATM   17  C   UNL     1      44.978 -11.446   6.007  1.00  0.00     0.079 A 
BRANCH  16  18
HETATM   18  C   UNL     1      46.111 -10.267   8.045  1.00  0.00     0.056 C 
HETATM   19  C   UNL     1      45.482  -9.319   9.054  1.00  0.00     0.011 C 
ENDBRANCH  16  18
ENDBRANCH   9  12
ENDBRANCH   1   8
BRANCH   3  20
HETATM   20  C   UNL     1      40.108 -13.785   0.667  1.00  0.00     0.012 A 
HETATM   21  C   UNL     1      39.878 -14.581  -0.467  1.00  0.00     0.039 A 
HETATM   22  C   UNL     1      39.053 -14.131  -1.497  1.00  0.00     0.035 A 
HETATM   23 CL   UNL     1      38.787 -15.126  -2.876  1.00  0.00    -0.084 Cl
HETATM   24  C   UNL     1      38.442 -12.883  -1.419  1.00  0.00     0.024 A 
HETATM   25  C   UNL     1      38.660 -12.080  -0.302  1.00  0.00     0.003 A 
HETATM   26  C   UNL     1      39.489 -12.528   0.734  1.00  0.00     0.015 A 
ENDBRANCH   3  20
TORSDOF 4
ENDMDL
MODEL 9
REMARK VINA RESULT:      -7.3      2.996      5.728
REMARK  4 active torsions:
REMARK  status: ('A' for Active; 'I' for Inactive)
REMARK    1  A    between atoms: C_2  and  C_3 
REMARK    2  A    between atoms: C_7  and  N_8 
REMARK       I    between atoms: N_8  and  C_9 
REMARK    3  A    between atoms: C_9  and  C_10 
REMARK    4  A    between atoms: C_12  and  C_13 
ROOT
HETATM    1  C   UNL     1      42.925 -14.022   3.718  1.00  0.00     0.149 A 
HETATM    2  N   UNL     1      43.262 -15.279   3.237  1.00  0.00    -0.223 NA
HETATM    3  C   UNL     1      43.206 -16.110   4.264  1.00  0.00     0.139 A 
HETATM    4  N   UNL     1      42.855 -15.414   5.399  1.00  0.00    -0.342 N 
HETATM    5  H   UNL     1      42.751 -15.811   6.321  1.00  0.00     0.167 HD
HETATM    6  C   UNL     1      42.668 -14.095   5.074  1.00  0.00     0.041 A 
HETATM    7  C   UNL     1      42.273 -13.066   6.062  1.00  0.00     0.071 C 
ENDROOT
BRANCH   1   8
HETATM    8  C   UNL     1      42.865 -12.839   2.856  1.00  0.00     0.278 C 
HETATM    9  N   UNL     1      41.790 -12.889   1.988  1.00  0.00    -0.306 N 
HETATM   10  H   UNL     1      41.196 -13.712   2.046  1.00  0.00     0.170 HD
HETATM   11  O   UNL     1      43.679 -11.918   2.913  1.00  0.00    -0.265 OA
BRANCH   9  12
HETATM   12  C   UNL     1      41.503 -11.881   1.095  1.00  0.00     0.126 A 
HETATM   13  N   UNL     1      41.654 -10.547   1.361  1.00  0.00    -0.262 N 
HETATM   14  N   UNL     1      41.293  -9.749   0.339  1.00  0.00    -0.178 NA
HETATM   15  H   UNL     1      41.992 -10.132   2.225  1.00  0.00     0.191 HD
HETATM   16  C   UNL     1      40.907 -10.607  -0.615  1.00  0.00     0.058 A 
HETATM   17  C   UNL     1      41.023 -11.954  -0.190  1.00  0.00     0.079 A 
BRANCH  16  18
HETATM   18  C   UNL     1      40.419 -10.102  -1.931  1.00  0.00     0.056 C 
HETATM   19  C   UNL     1      40.470 -11.166  -3.016  1.00  0.00     0.011 C 
ENDBRANCH  16  18
ENDBRANCH   9  12
ENDBRANCH   1   8
BRANCH   3  20
HETATM   20  C   UNL     1      43.480 -17.552   4.216  1.00  0.00     0.012 A 
HETATM   21  C   UNL     1      43.401 -18.220   2.983  1.00  0.00     0.039 A 
HETATM   22  C   UNL     1      43.649 -19.589   2.897  1.00  0.00     0.035 A 
HETATM   23 CL   UNL     1      43.546 -20.383   1.374  1.00  0.00    -0.084 Cl
HETATM   24  C   UNL     1      43.980 -20.320   4.035  1.00  0.00     0.024 A 
HETATM   25  C   UNL     1      44.061 -19.674   5.267  1.00  0.00     0.003 A 
HETATM   26  C   UNL     1      43.812 -18.299   5.357  1.00  0.00     0.015 A 
ENDBRANCH   3  20
TORSDOF 4
ENDMDL
MODEL 10
REMARK VINA RESULT:      -7.3      2.842      5.348
REMARK  4 active torsions:
REMARK  status: ('A' for Active; 'I' for Inactive)
REMARK    1  A    between atoms: C_2  and  C_3 
REMARK    2  A    between atoms: C_7  and  N_8 
REMARK       I    between atoms: N_8  and  C_9 
REMARK    3  A    between atoms: C_9  and  C_10 
REMARK    4  A    between atoms: C_12  and  C_13 
ROOT
HETATM    1  C   UNL     1      42.881 -14.612   4.463  1.00  0.00     0.149 A 
HETATM    2  N   UNL     1      42.918 -15.861   3.858  1.00  0.00    -0.223 NA
HETATM    3  C   UNL     1      43.403 -16.704   4.753  1.00  0.00     0.139 A 
HETATM    4  N   UNL     1      43.692 -16.025   5.915  1.00  0.00    -0.342 N 
HETATM    5  H   UNL     1      44.081 -16.434   6.752  1.00  0.00     0.167 HD
HETATM    6  C   UNL     1      43.365 -14.703   5.753  1.00  0.00     0.041 A 
HETATM    7  C   UNL     1      43.540 -13.689   6.818  1.00  0.00     0.071 C 
ENDROOT
BRANCH   1   8
HETATM    8  C   UNL     1      42.383 -13.418   3.773  1.00  0.00     0.278 C 
HETATM    9  N   UNL     1      41.118 -13.616   3.252  1.00  0.00    -0.306 N 
HETATM   10  H   UNL     1      40.703 -14.532   3.400  1.00  0.00     0.170 HD
HETATM   11  O   UNL     1      43.025 -12.372   3.681  1.00  0.00    -0.265 OA
BRANCH   9  12
HETATM   12  C   UNL     1      40.424 -12.633   2.582  1.00  0.00     0.126 A 
HETATM   13  N   UNL     1      40.835 -12.059   1.408  1.00  0.00    -0.262 N 
HETATM   14  N   UNL     1      39.999 -11.109   0.951  1.00  0.00    -0.178 NA
HETATM   15  H   UNL     1      41.680 -12.277   0.887  1.00  0.00     0.191 HD
HETATM   16  C   UNL     1      39.017 -11.084   1.860  1.00  0.00     0.058 A 
HETATM   17  C   UNL     1      39.236 -12.022   2.900  1.00  0.00     0.079 A 
BRANCH  16  18
HETATM   18  C   UNL     1      37.875 -10.135   1.711  1.00  0.00     0.056 C 
HETATM   19  C   UNL     1      36.751 -10.709   0.862  1.00  0.00     0.011 C 
ENDBRANCH  16  18
ENDBRANCH   9  12
ENDBRANCH   1   8
BRANCH   3  20
HETATM   20  C   UNL     1      43.611 -18.143   4.550  1.00  0.00     0.012 A 
HETATM   21  C   UNL     1      43.586 -18.658   3.243  1.00  0.00     0.039 A 
HETATM   22  C   UNL     1      43.775 -20.020   3.010  1.00  0.00     0.035 A 
HETATM   23 CL   UNL     1      43.740 -20.624   1.400  1.00  0.00    -0.084 Cl
HETATM   24  C   UNL     1      43.991 -20.895   4.070  1.00  0.00     0.024 A 
HETATM   25  C   UNL     1      44.017 -20.402   5.374  1.00  0.00     0.003 A 
HETATM   26  C   UNL     1      43.828 -19.036   5.612  1.00  0.00     0.015 A 
ENDBRANCH   3  20
TORSDOF 4
ENDMDL
