MODEL 1
REMARK VINA RESULT:      -9.2      0.000      0.000
REMARK  5 active torsions:
REMARK  status: ('A' for Active; 'I' for Inactive)
REMARK    1  A    between atoms: C_10  and  C_11 
REMARK    2  A    between atoms: C_13  and  O_14 
REMARK    3  A    between atoms: C_16  and  O_17 
REMARK    4  A    between atoms: O_17  and  C_18 
REMARK    5  A    between atoms: C_18  and  C_19 
ROOT
HETATM    1  C   UNL     1      43.918 -11.107   7.515  1.00  0.00    -0.013 A 
HETATM    2  C   UNL     1      42.696 -10.718   6.928  1.00  0.00     0.050 A 
HETATM    3  C   UNL     1      42.057 -11.532   5.989  1.00  0.00     0.102 A 
HETATM    4  C   UNL     1      42.648 -12.756   5.643  1.00  0.00     0.112 A 
HETATM    5  C   UNL     1      43.877 -13.138   6.178  1.00  0.00     0.041 A 
HETATM    6  C   UNL     1      44.504 -12.319   7.118  1.00  0.00     0.014 A 
ENDROOT
BRANCH   1   7
HETATM    7  C   UNL     1      44.596 -10.233   8.553  1.00  0.00     0.219 A 
HETATM    8  N   UNL     1      44.113 -10.568   9.874  1.00  0.00    -0.358 N 
HETATM    9  C   UNL     1      43.502  -9.662  10.654  1.00  0.00     0.088 A 
HETATM   10  H   UNL     1      44.148 -11.553  10.123  1.00  0.00     0.162 HD
HETATM   11  C   UNL     1      43.334  -8.345  10.301  1.00  0.00     0.073 A 
HETATM   12  S   UNL     1      42.844 -10.019  12.182  1.00  0.00    -0.074 SA
HETATM   13  C   UNL     1      42.652  -7.604  11.317  1.00  0.00    -0.023 A 
HETATM   14  C   UNL     1      43.836  -7.890   9.020  1.00  0.00     0.256 A 
HETATM   15  C   UNL     1      42.346  -8.407  12.402  1.00  0.00     0.018 A 
HETATM   16  C   UNL     1      42.309  -6.144  11.299  1.00  0.00     0.068 C 
HETATM   17  C   UNL     1      41.636  -7.954  13.629  1.00  0.00     0.281 C 
HETATM   18  N   UNL     1      41.656  -6.433  13.718  1.00  0.00    -0.070 N 
HETATM   19  C   UNL     1      40.826  -5.928  14.857  1.00  0.00     0.270 C 
HETATM   20  H   UNL     1      42.633  -6.177  13.909  1.00  0.00     0.279 HD
HETATM   21  C   UNL     1      41.280  -5.786  12.388  1.00  0.00     0.239 C 
HETATM   22  N   UNL     1      44.423  -8.838   8.238  1.00  0.00    -0.332 N 
HETATM   23  O   UNL     1      43.736  -6.724   8.652  1.00  0.00    -0.267 OA
HETATM   24  H   UNL     1      44.754  -8.514   7.341  1.00  0.00     0.165 HD
ENDBRANCH   1   7
BRANCH   3  25
HETATM   25  O   UNL     1      40.872 -11.238   5.369  1.00  0.00    -0.353 OA
HETATM   26  C   UNL     1      39.690 -11.276   6.155  1.00  0.00     0.210 C 
ENDBRANCH   3  25
BRANCH   4  27
HETATM   27  O   UNL     1      41.953 -13.543   4.697  1.00  0.00    -0.272 OA
BRANCH  27  28
HETATM   28  C   UNL     1      41.295 -14.694   5.081  1.00  0.00     0.300 C 
HETATM   29  O   UNL     1      40.401 -14.836   5.897  1.00  0.00    -0.259 OA
BRANCH  28  30
HETATM   30  C   UNL     1      41.918 -15.813   4.360  1.00  0.00     0.061 A 
HETATM   31  C   UNL     1      41.439 -16.238   3.117  1.00  0.00     0.051 A 
HETATM   32 CL   UNL     1      40.076 -15.505   2.348  1.00  0.00    -0.083 Cl
HETATM   33  C   UNL     1      42.050 -17.316   2.471  1.00  0.00     0.048 A 
HETATM   34  C   UNL     1      43.127 -17.963   3.075  1.00  0.00     0.035 A 
HETATM   35 CL   UNL     1      43.876 -19.291   2.278  1.00  0.00    -0.084 Cl
HETATM   36  C   UNL     1      43.598 -17.552   4.323  1.00  0.00     0.025 A 
HETATM   37  C   UNL     1      42.989 -16.477   4.973  1.00  0.00     0.021 A 
ENDBRANCH  28  30
ENDBRANCH  27  28
ENDBRANCH   4  27
TORSDOF 5
ENDMDL
MODEL 2
REMARK VINA RESULT:      -9.1      1.740      2.060
REMARK  5 active torsions:
REMARK  status: ('A' for Active; 'I' for Inactive)
REMARK    1  A    between atoms: C_10  and  C_11 
REMARK    2  A    between atoms: C_13  and  O_14 
REMARK    3  A    between atoms: C_16  and  O_17 
REMARK    4  A    between atoms: O_17  and  C_18 
REMARK    5  A    between atoms: C_18  and  C_19 
ROOT
HETATM    1  C   UNL     1      42.931 -10.969   6.520  1.00  0.00    -0.013 A 
HETATM    2  C   UNL     1      42.176 -11.287   5.372  1.00  0.00     0.050 A 
HETATM    3  C   UNL     1      42.292 -12.536   4.758  1.00  0.00     0.102 A 
HETATM    4  C   UNL     1      43.169 -13.481   5.308  1.00  0.00     0.112 A 
HETATM    5  C   UNL     1      43.958 -13.171   6.415  1.00  0.00     0.041 A 
HETATM    6  C   UNL     1      43.831 -11.921   7.024  1.00  0.00     0.014 A 
ENDROOT
BRANCH   1   7
HETATM    7  C   UNL     1      42.784  -9.622   7.200  1.00  0.00     0.219 A 
HETATM    8  N   UNL     1      43.594  -9.580   8.397  1.00  0.00    -0.358 N 
HETATM    9  C   UNL     1      43.055  -9.370   9.609  1.00  0.00     0.088 A 
HETATM   10  H   UNL     1      44.569  -9.846   8.283  1.00  0.00     0.162 HD
HETATM   11  C   UNL     1      41.720  -9.121   9.813  1.00  0.00     0.073 A 
HETATM   12  S   UNL     1      43.947  -9.389  11.058  1.00  0.00    -0.074 SA
HETATM   13  C   UNL     1      41.420  -8.933  11.200  1.00  0.00    -0.023 A 
HETATM   14  C   UNL     1      40.828  -9.081   8.673  1.00  0.00     0.256 A 
HETATM   15  C   UNL     1      42.559  -9.041  11.978  1.00  0.00     0.018 A 
HETATM   16  C   UNL     1      40.082  -8.624  11.805  1.00  0.00     0.068 C 
HETATM   17  C   UNL     1      42.601  -8.903  13.459  1.00  0.00     0.281 C 
HETATM   18  N   UNL     1      41.329  -8.229  13.961  1.00  0.00    -0.070 N 
HETATM   19  C   UNL     1      41.262  -8.205  15.457  1.00  0.00     0.270 C 
HETATM   20  H   UNL     1      41.381  -7.255  13.637  1.00  0.00     0.279 HD
HETATM   21  C   UNL     1      40.082  -8.840  13.329  1.00  0.00     0.239 C 
HETATM   22  N   UNL     1      41.398  -9.329   7.461  1.00  0.00    -0.332 N 
HETATM   23  O   UNL     1      39.629  -8.845   8.784  1.00  0.00    -0.267 OA
HETATM   24  H   UNL     1      40.764  -9.316   6.675  1.00  0.00     0.165 HD
ENDBRANCH   1   7
BRANCH   3  25
HETATM   25  O   UNL     1      41.600 -12.933   3.645  1.00  0.00    -0.353 OA
HETATM   26  C   UNL     1      40.185 -13.004   3.739  1.00  0.00     0.210 C 
ENDBRANCH   3  25
BRANCH   4  27
HETATM   27  O   UNL     1      43.238 -14.731   4.652  1.00  0.00    -0.272 OA
BRANCH  27  28
HETATM   28  C   UNL     1      42.455 -15.791   5.064  1.00  0.00     0.300 C 
HETATM   29  O   UNL     1      41.633 -15.840   5.962  1.00  0.00    -0.259 OA
BRANCH  28  30
HETATM   30  C   UNL     1      42.833 -16.953   4.249  1.00  0.00     0.061 A 
HETATM   31  C   UNL     1      42.230 -17.205   3.011  1.00  0.00     0.051 A 
HETATM   32 CL   UNL     1      40.991 -16.191   2.361  1.00  0.00    -0.083 Cl
HETATM   33  C   UNL     1      42.606 -18.329   2.274  1.00  0.00     0.048 A 
HETATM   34  C   UNL     1      43.574 -19.197   2.780  1.00  0.00     0.035 A 
HETATM   35 CL   UNL     1      44.032 -20.582   1.869  1.00  0.00    -0.084 Cl
HETATM   36  C   UNL     1      44.166 -18.958   4.021  1.00  0.00     0.025 A 
HETATM   37  C   UNL     1      43.791 -17.836   4.763  1.00  0.00     0.021 A 
ENDBRANCH  28  30
ENDBRANCH  27  28
ENDBRANCH   4  27
TORSDOF 5
ENDMDL
MODEL 3
REMARK VINA RESULT:      -8.9      4.322     10.057
REMARK  5 active torsions:
REMARK  status: ('A' for Active; 'I' for Inactive)
REMARK    1  A    between atoms: C_10  and  C_11 
REMARK    2  A    between atoms: C_13  and  O_14 
REMARK    3  A    between atoms: C_16  and  O_17 
REMARK    4  A    between atoms: O_17  and  C_18 
REMARK    5  A    between atoms: C_18  and  C_19 
ROOT
HETATM    1  C   UNL     1      41.072 -11.145   6.464  1.00  0.00    -0.013 A 
HETATM    2  C   UNL     1      40.345 -10.023   6.914  1.00  0.00     0.050 A 
HETATM    3  C   UNL     1      40.999  -8.876   7.368  1.00  0.00     0.102 A 
HETATM    4  C   UNL     1      42.401  -8.851   7.361  1.00  0.00     0.112 A 
HETATM    5  C   UNL     1      43.139  -9.965   6.964  1.00  0.00     0.041 A 
HETATM    6  C   UNL     1      42.474 -11.105   6.508  1.00  0.00     0.014 A 
ENDROOT
BRANCH   1   7
HETATM    7  C   UNL     1      40.358 -12.380   5.948  1.00  0.00     0.219 A 
HETATM    8  N   UNL     1      40.967 -13.570   6.498  1.00  0.00    -0.358 N 
HETATM    9  C   UNL     1      41.508 -14.515   5.713  1.00  0.00     0.088 A 
HETATM   10  H   UNL     1      41.076 -13.586   7.509  1.00  0.00     0.162 HD
HETATM   11  C   UNL     1      41.481 -14.468   4.340  1.00  0.00     0.073 A 
HETATM   12  S   UNL     1      42.306 -15.895   6.306  1.00  0.00    -0.074 SA
HETATM   13  C   UNL     1      42.129 -15.604   3.756  1.00  0.00    -0.023 A 
HETATM   14  C   UNL     1      40.841 -13.346   3.686  1.00  0.00     0.256 A 
HETATM   15  C   UNL     1      42.608 -16.462   4.730  1.00  0.00     0.018 A 
HETATM   16  C   UNL     1      42.280 -15.910   2.296  1.00  0.00     0.068 C 
HETATM   17  C   UNL     1      43.334 -17.735   4.468  1.00  0.00     0.281 C 
HETATM   18  N   UNL     1      43.125 -18.172   3.023  1.00  0.00    -0.070 N 
HETATM   19  C   UNL     1      43.958 -19.366   2.674  1.00  0.00     0.270 C 
HETATM   20  H   UNL     1      42.138 -18.452   2.955  1.00  0.00     0.279 HD
HETATM   21  C   UNL     1      43.325 -17.014   2.050  1.00  0.00     0.239 C 
HETATM   22  N   UNL     1      40.330 -12.388   4.508  1.00  0.00    -0.332 N 
HETATM   23  O   UNL     1      40.766 -13.253   2.464  1.00  0.00    -0.267 OA
HETATM   24  H   UNL     1      39.901 -11.602   4.041  1.00  0.00     0.165 HD
ENDBRANCH   1   7
BRANCH   3  25
HETATM   25  O   UNL     1      40.379  -7.742   7.820  1.00  0.00    -0.353 OA
HETATM   26  C   UNL     1      39.536  -7.861   8.956  1.00  0.00     0.210 C 
ENDBRANCH   3  25
BRANCH   4  27
HETATM   27  O   UNL     1      43.011  -7.661   7.821  1.00  0.00    -0.272 OA
BRANCH  27  28
HETATM   28  C   UNL     1      44.106  -7.705   8.660  1.00  0.00     0.300 C 
HETATM   29  O   UNL     1      45.292  -7.709   8.381  1.00  0.00    -0.259 OA
BRANCH  28  30
HETATM   30  C   UNL     1      43.597  -7.822  10.033  1.00  0.00     0.061 A 
HETATM   31  C   UNL     1      43.887  -8.937  10.827  1.00  0.00     0.051 A 
HETATM   32 CL   UNL     1      44.838 -10.261  10.255  1.00  0.00    -0.083 Cl
HETATM   33  C   UNL     1      43.371  -9.018  12.122  1.00  0.00     0.048 A 
HETATM   34  C   UNL     1      42.564  -7.990  12.610  1.00  0.00     0.035 A 
HETATM   35 CL   UNL     1      41.928  -8.094  14.206  1.00  0.00    -0.084 Cl
HETATM   36  C   UNL     1      42.259  -6.884  11.816  1.00  0.00     0.025 A 
HETATM   37  C   UNL     1      42.771  -6.800  10.519  1.00  0.00     0.021 A 
ENDBRANCH  28  30
ENDBRANCH  27  28
ENDBRANCH   4  27
TORSDOF 5
ENDMDL
MODEL 4
REMARK VINA RESULT:      -8.5      1.898      2.933
REMARK  5 active torsions:
REMARK  status: ('A' for Active; 'I' for Inactive)
REMARK    1  A    between atoms: C_10  and  C_11 
REMARK    2  A    between atoms: C_13  and  O_14 
REMARK    3  A    between atoms: C_16  and  O_17 
REMARK    4  A    between atoms: O_17  and  C_18 
REMARK    5  A    between atoms: C_18  and  C_19 
ROOT
HETATM    1  C   UNL     1      43.752 -11.313   7.359  1.00  0.00    -0.013 A 
HETATM    2  C   UNL     1      43.885 -12.700   7.144  1.00  0.00     0.050 A 
HETATM    3  C   UNL     1      43.320 -13.313   6.023  1.00  0.00     0.102 A 
HETATM    4  C   UNL     1      42.621 -12.520   5.101  1.00  0.00     0.112 A 
HETATM    5  C   UNL     1      42.438 -11.156   5.318  1.00  0.00     0.041 A 
HETATM    6  C   UNL     1      43.011 -10.554   6.440  1.00  0.00     0.014 A 
ENDROOT
BRANCH   1   7
HETATM    7  C   UNL     1      44.388 -10.647   8.563  1.00  0.00     0.219 A 
HETATM    8  N   UNL     1      43.529 -10.786   9.718  1.00  0.00    -0.358 N 
HETATM    9  C   UNL     1      43.042  -9.717  10.370  1.00  0.00     0.088 A 
HETATM   10  H   UNL     1      43.214 -11.730   9.926  1.00  0.00     0.162 HD
HETATM   11  C   UNL     1      43.355  -8.421  10.043  1.00  0.00     0.073 A 
HETATM   12  S   UNL     1      41.965  -9.820  11.683  1.00  0.00    -0.074 SA
HETATM   13  C   UNL     1      42.698  -7.482  10.901  1.00  0.00    -0.023 A 
HETATM   14  C   UNL     1      44.257  -8.171   8.937  1.00  0.00     0.256 A 
HETATM   15  C   UNL     1      41.922  -8.127  11.847  1.00  0.00     0.018 A 
HETATM   16  C   UNL     1      42.811  -5.986  10.864  1.00  0.00     0.068 C 
HETATM   17  C   UNL     1      41.105  -7.450  12.891  1.00  0.00     0.281 C 
HETATM   18  N   UNL     1      41.546  -6.000  13.047  1.00  0.00    -0.070 N 
HETATM   19  C   UNL     1      40.654  -5.240  13.978  1.00  0.00     0.270 C 
HETATM   20  H   UNL     1      42.481  -6.036  13.474  1.00  0.00     0.279 HD
HETATM   21  C   UNL     1      41.704  -5.311  11.694  1.00  0.00     0.239 C 
HETATM   22  N   UNL     1      44.710  -9.272   8.276  1.00  0.00    -0.332 N 
HETATM   23  O   UNL     1      44.593  -7.038   8.606  1.00  0.00    -0.267 OA
HETATM   24  H   UNL     1      45.325  -9.086   7.497  1.00  0.00     0.165 HD
ENDBRANCH   1   7
BRANCH   3  25
HETATM   25  O   UNL     1      43.399 -14.648   5.731  1.00  0.00    -0.353 OA
HETATM   26  C   UNL     1      42.652 -15.545   6.541  1.00  0.00     0.210 C 
ENDBRANCH   3  25
BRANCH   4  27
HETATM   27  O   UNL     1      42.079 -13.191   3.980  1.00  0.00    -0.272 OA
BRANCH  27  28
HETATM   28  C   UNL     1      40.735 -13.502   3.923  1.00  0.00     0.300 C 
HETATM   29  O   UNL     1      39.930 -13.614   4.830  1.00  0.00    -0.259 OA
BRANCH  28  30
HETATM   30  C   UNL     1      40.409 -13.763   2.514  1.00  0.00     0.061 A 
HETATM   31  C   UNL     1      40.503 -15.048   1.968  1.00  0.00     0.051 A 
HETATM   32 CL   UNL     1      41.025 -16.412   2.892  1.00  0.00    -0.083 Cl
HETATM   33  C   UNL     1      40.199 -15.251   0.620  1.00  0.00     0.048 A 
HETATM   34  C   UNL     1      39.812 -14.170  -0.172  1.00  0.00     0.035 A 
HETATM   35 CL   UNL     1      39.441 -14.424  -1.833  1.00  0.00    -0.084 Cl
HETATM   36  C   UNL     1      39.733 -12.885   0.365  1.00  0.00     0.025 A 
HETATM   37  C   UNL     1      40.039 -12.676   1.712  1.00  0.00     0.021 A 
ENDBRANCH  28  30
ENDBRANCH  27  28
ENDBRANCH   4  27
TORSDOF 5
ENDMDL
MODEL 5
REMARK VINA RESULT:      -8.5      4.446      9.936
REMARK  5 active torsions:
REMARK  status: ('A' for Active; 'I' for Inactive)
REMARK    1  A    between atoms: C_10  and  C_11 
REMARK    2  A    between atoms: C_13  and  O_14 
REMARK    3  A    between atoms: C_16  and  O_17 
REMARK    4  A    between atoms: O_17  and  C_18 
REMARK    5  A    between atoms: C_18  and  C_19 
ROOT
HETATM    1  C   UNL     1      41.739 -11.574   6.094  1.00  0.00    -0.013 A 
HETATM    2  C   UNL     1      42.961 -11.658   6.792  1.00  0.00     0.050 A 
HETATM    3  C   UNL     1      43.560 -10.518   7.334  1.00  0.00     0.102 A 
HETATM    4  C   UNL     1      42.918  -9.281   7.181  1.00  0.00     0.112 A 
HETATM    5  C   UNL     1      41.733  -9.169   6.456  1.00  0.00     0.041 A 
HETATM    6  C   UNL     1      41.141 -10.316   5.923  1.00  0.00     0.014 A 
ENDROOT
BRANCH   1   7
HETATM    7  C   UNL     1      41.078 -12.817   5.530  1.00  0.00     0.219 A 
HETATM    8  N   UNL     1      41.232 -13.922   6.450  1.00  0.00    -0.358 N 
HETATM    9  C   UNL     1      41.865 -15.052   6.097  1.00  0.00     0.088 A 
HETATM   10  H   UNL     1      40.951 -13.742   7.410  1.00  0.00     0.162 HD
HETATM   11  C   UNL     1      42.362 -15.283   4.838  1.00  0.00     0.073 A 
HETATM   12  S   UNL     1      42.146 -16.351   7.160  1.00  0.00    -0.074 SA
HETATM   13  C   UNL     1      42.985 -16.568   4.739  1.00  0.00    -0.023 A 
HETATM   14  C   UNL     1      42.207 -14.264   3.821  1.00  0.00     0.256 A 
HETATM   15  C   UNL     1      42.917 -17.251   5.940  1.00  0.00     0.018 A 
HETATM   16  C   UNL     1      43.620 -17.177   3.524  1.00  0.00     0.068 C 
HETATM   17  C   UNL     1      43.469 -18.612   6.184  1.00  0.00     0.281 C 
HETATM   18  N   UNL     1      43.747 -19.313   4.860  1.00  0.00    -0.070 N 
HETATM   19  C   UNL     1      44.443 -20.624   5.056  1.00  0.00     0.270 C 
HETATM   20  H   UNL     1      42.826 -19.509   4.448  1.00  0.00     0.279 HD
HETATM   21  C   UNL     1      44.484 -18.400   3.884  1.00  0.00     0.239 C 
HETATM   22  N   UNL     1      41.589 -13.116   4.217  1.00  0.00    -0.332 N 
HETATM   23  O   UNL     1      42.610 -14.414   2.672  1.00  0.00    -0.267 OA
HETATM   24  H   UNL     1      41.501 -12.405   3.505  1.00  0.00     0.165 HD
ENDBRANCH   1   7
BRANCH   3  25
HETATM   25  O   UNL     1      44.741 -10.502   8.026  1.00  0.00    -0.353 OA
HETATM   26  C   UNL     1      45.925 -10.842   7.317  1.00  0.00     0.210 C 
ENDBRANCH   3  25
BRANCH   4  27
HETATM   27  O   UNL     1      43.564  -8.163   7.758  1.00  0.00    -0.272 OA
BRANCH  27  28
HETATM   28  C   UNL     1      42.842  -7.202   8.438  1.00  0.00     0.300 C 
HETATM   29  O   UNL     1      42.496  -6.093   8.071  1.00  0.00    -0.259 OA
BRANCH  28  30
HETATM   30  C   UNL     1      42.593  -7.722   9.789  1.00  0.00     0.061 A 
HETATM   31  C   UNL     1      41.292  -7.900  10.275  1.00  0.00     0.051 A 
HETATM   32 CL   UNL     1      39.892  -7.506   9.342  1.00  0.00    -0.083 Cl
HETATM   33  C   UNL     1      41.097  -8.382  11.571  1.00  0.00     0.048 A 
HETATM   34  C   UNL     1      42.200  -8.675  12.373  1.00  0.00     0.035 A 
HETATM   35 CL   UNL     1      41.955  -9.266  13.970  1.00  0.00    -0.084 Cl
HETATM   36  C   UNL     1      43.498  -8.484  11.898  1.00  0.00     0.025 A 
HETATM   37  C   UNL     1      43.698  -7.999  10.604  1.00  0.00     0.021 A 
ENDBRANCH  28  30
ENDBRANCH  27  28
ENDBRANCH   4  27
TORSDOF 5
ENDMDL
MODEL 6
REMARK VINA RESULT:      -8.4      2.135      2.834
REMARK  5 active torsions:
REMARK  status: ('A' for Active; 'I' for Inactive)
REMARK    1  A    between atoms: C_10  and  C_11 
REMARK    2  A    between atoms: C_13  and  O_14 
REMARK    3  A    between atoms: C_16  and  O_17 
REMARK    4  A    between atoms: O_17  and  C_18 
REMARK    5  A    between atoms: C_18  and  C_19 
ROOT
HETATM    1  C   UNL     1      41.597 -10.525   6.589  1.00  0.00    -0.013 A 
HETATM    2  C   UNL     1      42.961 -10.827   6.782  1.00  0.00     0.050 A 
HETATM    3  C   UNL     1      43.486 -12.063   6.397  1.00  0.00     0.102 A 
HETATM    4  C   UNL     1      42.632 -13.003   5.801  1.00  0.00     0.112 A 
HETATM    5  C   UNL     1      41.273 -12.741   5.642  1.00  0.00     0.041 A 
HETATM    6  C   UNL     1      40.760 -11.501   6.027  1.00  0.00     0.014 A 
ENDROOT
BRANCH   1   7
HETATM    7  C   UNL     1      41.036  -9.172   6.984  1.00  0.00     0.219 A 
HETATM    8  N   UNL     1      42.023  -8.426   7.732  1.00  0.00    -0.358 N 
HETATM    9  C   UNL     1      41.793  -8.012   8.989  1.00  0.00     0.088 A 
HETATM   10  H   UNL     1      42.940  -8.347   7.301  1.00  0.00     0.162 HD
HETATM   11  C   UNL     1      40.602  -8.203   9.645  1.00  0.00     0.073 A 
HETATM   12  S   UNL     1      42.944  -7.200   9.943  1.00  0.00    -0.074 SA
HETATM   13  C   UNL     1      40.632  -7.661  10.970  1.00  0.00    -0.023 A 
HETATM   14  C   UNL     1      39.523  -8.888   8.964  1.00  0.00     0.256 A 
HETATM   15  C   UNL     1      41.855  -7.073  11.243  1.00  0.00     0.018 A 
HETATM   16  C   UNL     1      39.518  -7.660  11.975  1.00  0.00     0.068 C 
HETATM   17  C   UNL     1      42.222  -6.418  12.528  1.00  0.00     0.281 C 
HETATM   18  N   UNL     1      40.970  -6.115  13.341  1.00  0.00    -0.070 N 
HETATM   19  C   UNL     1      41.300  -5.593  14.705  1.00  0.00     0.270 C 
HETATM   20  H   UNL     1      40.480  -5.367  12.833  1.00  0.00     0.279 HD
HETATM   21  C   UNL     1      40.024  -7.312  13.387  1.00  0.00     0.239 C 
HETATM   22  N   UNL     1      39.797  -9.324   7.702  1.00  0.00    -0.332 N 
HETATM   23  O   UNL     1      38.429  -9.074   9.486  1.00  0.00    -0.267 OA
HETATM   24  H   UNL     1      39.044  -9.815   7.243  1.00  0.00     0.165 HD
ENDBRANCH   1   7
BRANCH   3  25
HETATM   25  O   UNL     1      44.793 -12.444   6.544  1.00  0.00    -0.353 OA
HETATM   26  C   UNL     1      45.773 -11.419   6.620  1.00  0.00     0.210 C 
ENDBRANCH   3  25
BRANCH   4  27
HETATM   27  O   UNL     1      43.219 -14.232   5.422  1.00  0.00    -0.272 OA
BRANCH  27  28
HETATM   28  C   UNL     1      42.785 -15.423   5.970  1.00  0.00     0.300 C 
HETATM   29  O   UNL     1      42.311 -15.638   7.071  1.00  0.00    -0.259 OA
BRANCH  28  30
HETATM   30  C   UNL     1      43.059 -16.479   4.986  1.00  0.00     0.061 A 
HETATM   31  C   UNL     1      42.292 -16.611   3.823  1.00  0.00     0.051 A 
HETATM   32 CL   UNL     1      40.963 -15.567   3.465  1.00  0.00    -0.083 Cl
HETATM   33  C   UNL     1      42.575 -17.638   2.920  1.00  0.00     0.048 A 
HETATM   34  C   UNL     1      43.613 -18.529   3.189  1.00  0.00     0.035 A 
HETATM   35 CL   UNL     1      43.956 -19.795   2.076  1.00  0.00    -0.084 Cl
HETATM   36  C   UNL     1      44.369 -18.411   4.356  1.00  0.00     0.025 A 
HETATM   37  C   UNL     1      44.089 -17.387   5.263  1.00  0.00     0.021 A 
ENDBRANCH  28  30
ENDBRANCH  27  28
ENDBRANCH   4  27
TORSDOF 5
ENDMDL
MODEL 7
REMARK VINA RESULT:      -8.1      6.557      9.491
REMARK  5 active torsions:
REMARK  status: ('A' for Active; 'I' for Inactive)
REMARK    1  A    between atoms: C_10  and  C_11 
REMARK    2  A    between atoms: C_13  and  O_14 
REMARK    3  A    between atoms: C_16  and  O_17 
REMARK    4  A    between atoms: O_17  and  C_18 
REMARK    5  A    between atoms: C_18  and  C_19 
ROOT
HETATM    1  C   UNL     1      39.245 -12.583   1.480  1.00  0.00    -0.013 A 
HETATM    2  C   UNL     1      39.185 -12.412   2.879  1.00  0.00     0.050 A 
HETATM    3  C   UNL     1      39.824 -13.306   3.741  1.00  0.00     0.102 A 
HETATM    4  C   UNL     1      40.539 -14.380   3.192  1.00  0.00     0.112 A 
HETATM    5  C   UNL     1      40.572 -14.593   1.815  1.00  0.00     0.041 A 
HETATM    6  C   UNL     1      39.934 -13.691   0.962  1.00  0.00     0.014 A 
ENDROOT
BRANCH   1   7
HETATM    7  C   UNL     1      38.572 -11.596   0.546  1.00  0.00     0.219 A 
HETATM    8  N   UNL     1      39.188 -11.652  -0.761  1.00  0.00    -0.358 N 
HETATM    9  C   UNL     1      39.771 -10.576  -1.314  1.00  0.00     0.088 A 
HETATM   10  H   UNL     1      39.268 -12.577  -1.175  1.00  0.00     0.162 HD
HETATM   11  C   UNL     1      39.784  -9.334  -0.728  1.00  0.00     0.073 A 
HETATM   12  S   UNL     1      40.580 -10.602  -2.810  1.00  0.00    -0.074 SA
HETATM   13  C   UNL     1      40.471  -8.372  -1.535  1.00  0.00    -0.023 A 
HETATM   14  C   UNL     1      39.140  -9.154   0.557  1.00  0.00     0.256 A 
HETATM   15  C   UNL     1      40.939  -8.943  -2.705  1.00  0.00     0.018 A 
HETATM   16  C   UNL     1      40.672  -6.915  -1.237  1.00  0.00     0.068 C 
HETATM   17  C   UNL     1      41.698  -8.224  -3.765  1.00  0.00     0.281 C 
HETATM   18  N   UNL     1      41.541  -6.718  -3.596  1.00  0.00    -0.070 N 
HETATM   19  C   UNL     1      42.408  -5.954  -4.548  1.00  0.00     0.270 C 
HETATM   20  H   UNL     1      40.562  -6.511  -3.833  1.00  0.00     0.279 HD
HETATM   21  C   UNL     1      41.745  -6.289  -2.146  1.00  0.00     0.239 C 
HETATM   22  N   UNL     1      38.585 -10.270   1.107  1.00  0.00    -0.332 N 
HETATM   23  O   UNL     1      39.099  -8.068   1.125  1.00  0.00    -0.267 OA
HETATM   24  H   UNL     1      38.154 -10.137   2.011  1.00  0.00     0.165 HD
ENDBRANCH   1   7
BRANCH   3  25
HETATM   25  O   UNL     1      39.822 -13.219   5.108  1.00  0.00    -0.353 OA
HETATM   26  C   UNL     1      40.115 -11.956   5.688  1.00  0.00     0.210 C 
ENDBRANCH   3  25
BRANCH   4  27
HETATM   27  O   UNL     1      41.174 -15.247   4.111  1.00  0.00    -0.272 OA
BRANCH  27  28
HETATM   28  C   UNL     1      42.530 -15.150   4.354  1.00  0.00     0.300 C 
HETATM   29  O   UNL     1      43.242 -14.162   4.371  1.00  0.00    -0.259 OA
BRANCH  28  30
HETATM   30  C   UNL     1      43.037 -16.518   4.534  1.00  0.00     0.061 A 
HETATM   31  C   UNL     1      43.457 -17.291   3.446  1.00  0.00     0.051 A 
HETATM   32 CL   UNL     1      43.393 -16.714   1.819  1.00  0.00    -0.083 Cl
HETATM   33  C   UNL     1      43.918 -18.592   3.659  1.00  0.00     0.048 A 
HETATM   34  C   UNL     1      43.949 -19.112   4.952  1.00  0.00     0.035 A 
HETATM   35 CL   UNL     1      44.515 -20.717   5.209  1.00  0.00    -0.084 Cl
HETATM   36  C   UNL     1      43.515 -18.350   6.038  1.00  0.00     0.025 A 
HETATM   37  C   UNL     1      43.051 -17.050   5.830  1.00  0.00     0.021 A 
ENDBRANCH  28  30
ENDBRANCH  27  28
ENDBRANCH   4  27
TORSDOF 5
ENDMDL
MODEL 8
REMARK VINA RESULT:      -8.0      4.561     10.262
REMARK  5 active torsions:
REMARK  status: ('A' for Active; 'I' for Inactive)
REMARK    1  A    between atoms: C_10  and  C_11 
REMARK    2  A    between atoms: C_13  and  O_14 
REMARK    3  A    between atoms: C_16  and  O_17 
REMARK    4  A    between atoms: O_17  and  C_18 
REMARK    5  A    between atoms: C_18  and  C_19 
ROOT
HETATM    1  C   UNL     1      43.929 -10.855   7.840  1.00  0.00    -0.013 A 
HETATM    2  C   UNL     1      44.136 -10.911   9.234  1.00  0.00     0.050 A 
HETATM    3  C   UNL     1      43.776  -9.843  10.059  1.00  0.00     0.102 A 
HETATM    4  C   UNL     1      43.191  -8.709   9.478  1.00  0.00     0.112 A 
HETATM    5  C   UNL     1      43.018  -8.615   8.098  1.00  0.00     0.041 A 
HETATM    6  C   UNL     1      43.379  -9.690   7.284  1.00  0.00     0.014 A 
ENDROOT
BRANCH   1   7
HETATM    7  C   UNL     1      44.298 -12.027   6.951  1.00  0.00     0.219 A 
HETATM    8  N   UNL     1      44.223 -11.636   5.561  1.00  0.00    -0.358 N 
HETATM    9  C   UNL     1      43.400 -12.252   4.697  1.00  0.00     0.088 A 
HETATM   10  H   UNL     1      44.729 -10.791   5.309  1.00  0.00     0.162 HD
HETATM   11  C   UNL     1      42.613 -13.327   5.032  1.00  0.00     0.073 A 
HETATM   12  S   UNL     1      43.211 -11.785   3.072  1.00  0.00    -0.074 SA
HETATM   13  C   UNL     1      41.837 -13.786   3.921  1.00  0.00    -0.023 A 
HETATM   14  C   UNL     1      42.657 -13.837   6.387  1.00  0.00     0.256 A 
HETATM   15  C   UNL     1      42.089 -13.031   2.789  1.00  0.00     0.018 A 
HETATM   16  C   UNL     1      40.882 -14.943   3.897  1.00  0.00     0.068 C 
HETATM   17  C   UNL     1      41.449 -13.239   1.461  1.00  0.00     0.281 C 
HETATM   18  N   UNL     1      40.805 -14.618   1.397  1.00  0.00    -0.070 N 
HETATM   19  C   UNL     1      40.021 -14.812   0.136  1.00  0.00     0.270 C 
HETATM   20  H   UNL     1      41.582 -15.291   1.385  1.00  0.00     0.279 HD
HETATM   21  C   UNL     1      39.982 -14.914   2.648  1.00  0.00     0.239 C 
HETATM   22  N   UNL     1      43.477 -13.172   7.248  1.00  0.00    -0.332 N 
HETATM   23  O   UNL     1      41.995 -14.805   6.747  1.00  0.00    -0.267 OA
HETATM   24  H   UNL     1      43.488 -13.526   8.194  1.00  0.00     0.165 HD
ENDBRANCH   1   7
BRANCH   3  25
HETATM   25  O   UNL     1      43.937  -9.808  11.418  1.00  0.00    -0.353 OA
HETATM   26  C   UNL     1      43.622 -10.984  12.149  1.00  0.00     0.210 C 
ENDBRANCH   3  25
BRANCH   4  27
HETATM   27  O   UNL     1      42.836  -7.663  10.361  1.00  0.00    -0.272 OA
BRANCH  27  28
HETATM   28  C   UNL     1      41.528  -7.496  10.770  1.00  0.00     0.300 C 
HETATM   29  O   UNL     1      40.538  -7.245  10.107  1.00  0.00    -0.259 OA
BRANCH  28  30
HETATM   30  C   UNL     1      41.514  -7.606  12.235  1.00  0.00     0.061 A 
HETATM   31  C   UNL     1      40.898  -8.684  12.881  1.00  0.00     0.051 A 
HETATM   32 CL   UNL     1      40.094  -9.946  12.017  1.00  0.00    -0.083 Cl
HETATM   33  C   UNL     1      40.893  -8.744  14.276  1.00  0.00     0.048 A 
HETATM   34  C   UNL     1      41.495  -7.725  15.015  1.00  0.00     0.035 A 
HETATM   35 CL   UNL     1      41.485  -7.802  16.734  1.00  0.00    -0.084 Cl
HETATM   36  C   UNL     1      42.096  -6.641  14.375  1.00  0.00     0.025 A 
HETATM   37  C   UNL     1      42.102  -6.575  12.980  1.00  0.00     0.021 A 
ENDBRANCH  28  30
ENDBRANCH  27  28
ENDBRANCH   4  27
TORSDOF 5
ENDMDL
MODEL 9
REMARK VINA RESULT:      -8.0      4.848     10.757
REMARK  5 active torsions:
REMARK  status: ('A' for Active; 'I' for Inactive)
REMARK    1  A    between atoms: C_10  and  C_11 
REMARK    2  A    between atoms: C_13  and  O_14 
REMARK    3  A    between atoms: C_16  and  O_17 
REMARK    4  A    between atoms: O_17  and  C_18 
REMARK    5  A    between atoms: C_18  and  C_19 
ROOT
HETATM    1  C   UNL     1      42.764  -7.344   9.452  1.00  0.00    -0.013 A 
HETATM    2  C   UNL     1      41.934  -8.176  10.232  1.00  0.00     0.050 A 
HETATM    3  C   UNL     1      41.187  -7.658  11.292  1.00  0.00     0.102 A 
HETATM    4  C   UNL     1      41.267  -6.285  11.567  1.00  0.00     0.112 A 
HETATM    5  C   UNL     1      42.115  -5.453  10.838  1.00  0.00     0.041 A 
HETATM    6  C   UNL     1      42.854  -5.981   9.778  1.00  0.00     0.014 A 
ENDROOT
BRANCH   1   7
HETATM    7  C   UNL     1      43.554  -7.905   8.286  1.00  0.00     0.219 A 
HETATM    8  N   UNL     1      42.653  -8.372   7.256  1.00  0.00    -0.358 N 
HETATM    9  C   UNL     1      42.646  -9.652   6.850  1.00  0.00     0.088 A 
HETATM   10  H   UNL     1      41.943  -7.710   6.954  1.00  0.00     0.162 HD
HETATM   11  C   UNL     1      43.516 -10.603   7.323  1.00  0.00     0.073 A 
HETATM   12  S   UNL     1      41.556 -10.274   5.701  1.00  0.00    -0.074 SA
HETATM   13  C   UNL     1      43.288 -11.881   6.719  1.00  0.00    -0.023 A 
HETATM   14  C   UNL     1      44.502 -10.226   8.315  1.00  0.00     0.256 A 
HETATM   15  C   UNL     1      42.251 -11.823   5.804  1.00  0.00     0.018 A 
HETATM   16  C   UNL     1      44.049 -13.150   6.966  1.00  0.00     0.068 C 
HETATM   17  C   UNL     1      41.753 -12.974   5.002  1.00  0.00     0.281 C 
HETATM   18  N   UNL     1      42.777 -14.103   5.007  1.00  0.00    -0.070 N 
HETATM   19  C   UNL     1      42.255 -15.336   4.338  1.00  0.00     0.270 C 
HETATM   20  H   UNL     1      43.573 -13.762   4.453  1.00  0.00     0.279 HD
HETATM   21  C   UNL     1      43.303 -14.378   6.413  1.00  0.00     0.239 C 
HETATM   22  N   UNL     1      44.464  -8.929   8.730  1.00  0.00    -0.332 N 
HETATM   23  O   UNL     1      45.321 -11.021   8.764  1.00  0.00    -0.267 OA
HETATM   24  H   UNL     1      45.144  -8.681   9.434  1.00  0.00     0.165 HD
ENDBRANCH   1   7
BRANCH   3  25
HETATM   25  O   UNL     1      40.356  -8.387  12.101  1.00  0.00    -0.353 OA
HETATM   26  C   UNL     1      40.952  -9.337  12.972  1.00  0.00     0.210 C 
ENDBRANCH   3  25
BRANCH   4  27
HETATM   27  O   UNL     1      40.482  -5.814  12.645  1.00  0.00    -0.272 OA
BRANCH  27  28
HETATM   28  C   UNL     1      41.050  -5.081  13.667  1.00  0.00     0.300 C 
HETATM   29  O   UNL     1      41.636  -4.013  13.618  1.00  0.00    -0.259 OA
BRANCH  28  30
HETATM   30  C   UNL     1      40.894  -5.863  14.901  1.00  0.00     0.061 A 
HETATM   31  C   UNL     1      41.854  -6.801  15.298  1.00  0.00     0.051 A 
HETATM   32 CL   UNL     1      43.272  -7.126  14.367  1.00  0.00    -0.083 Cl
HETATM   33  C   UNL     1      41.661  -7.535  16.470  1.00  0.00     0.048 A 
HETATM   34  C   UNL     1      40.510  -7.333  17.231  1.00  0.00     0.035 A 
HETATM   35 CL   UNL     1      40.275  -8.242  18.673  1.00  0.00    -0.084 Cl
HETATM   36  C   UNL     1      39.543  -6.410  16.830  1.00  0.00     0.025 A 
HETATM   37  C   UNL     1      39.730  -5.675  15.658  1.00  0.00     0.021 A 
ENDBRANCH  28  30
ENDBRANCH  27  28
ENDBRANCH   4  27
TORSDOF 5
ENDMDL
MODEL 10
REMARK VINA RESULT:      -7.9      5.152     10.563
REMARK  5 active torsions:
REMARK  status: ('A' for Active; 'I' for Inactive)
REMARK    1  A    between atoms: C_10  and  C_11 
REMARK    2  A    between atoms: C_13  and  O_14 
REMARK    3  A    between atoms: C_16  and  O_17 
REMARK    4  A    between atoms: O_17  and  C_18 
REMARK    5  A    between atoms: C_18  and  C_19 
ROOT
HETATM    1  C   UNL     1      43.044 -10.870   5.576  1.00  0.00    -0.013 A 
HETATM    2  C   UNL     1      41.683 -10.519   5.699  1.00  0.00     0.050 A 
HETATM    3  C   UNL     1      41.185  -9.973   6.884  1.00  0.00     0.102 A 
HETATM    4  C   UNL     1      42.065  -9.768   7.956  1.00  0.00     0.112 A 
HETATM    5  C   UNL     1      43.403 -10.150   7.871  1.00  0.00     0.041 A 
HETATM    6  C   UNL     1      43.891 -10.691   6.680  1.00  0.00     0.014 A 
ENDROOT
BRANCH   1   7
HETATM    7  C   UNL     1      43.587 -11.439   4.280  1.00  0.00     0.219 A 
HETATM    8  N   UNL     1      42.926 -10.821   3.152  1.00  0.00    -0.358 N 
HETATM    9  C   UNL     1      42.228 -11.542   2.260  1.00  0.00     0.088 A 
HETATM   10  H   UNL     1      42.913  -9.804   3.147  1.00  0.00     0.162 HD
HETATM   11  C   UNL     1      42.128 -12.911   2.302  1.00  0.00     0.073 A 
HETATM   12  S   UNL     1      41.365 -10.862   0.961  1.00  0.00    -0.074 SA
HETATM   13  C   UNL     1      41.325 -13.419   1.231  1.00  0.00    -0.023 A 
HETATM   14  C   UNL     1      42.804 -13.635   3.359  1.00  0.00     0.256 A 
HETATM   15  C   UNL     1      40.863 -12.395   0.423  1.00  0.00     0.018 A 
HETATM   16  C   UNL     1      41.007 -14.856   0.938  1.00  0.00     0.068 C 
HETATM   17  C   UNL     1      40.001 -12.575  -0.777  1.00  0.00     0.281 C 
HETATM   18  N   UNL     1      40.030 -14.028  -1.234  1.00  0.00    -0.070 N 
HETATM   19  C   UNL     1      39.060 -14.285  -2.346  1.00  0.00     0.270 C 
HETATM   20  H   UNL     1      40.976 -14.186  -1.605  1.00  0.00     0.279 HD
HETATM   21  C   UNL     1      39.846 -14.990  -0.064  1.00  0.00     0.239 C 
HETATM   22  N   UNL     1      43.478 -12.875   4.266  1.00  0.00    -0.332 N 
HETATM   23  O   UNL     1      42.771 -14.859   3.443  1.00  0.00    -0.267 OA
HETATM   24  H   UNL     1      43.931 -13.388   5.008  1.00  0.00     0.165 HD
ENDBRANCH   1   7
BRANCH   3  25
HETATM   25  O   UNL     1      39.884  -9.601   7.094  1.00  0.00    -0.353 OA
HETATM   26  C   UNL     1      38.871 -10.549   6.787  1.00  0.00     0.210 C 
ENDBRANCH   3  25
BRANCH   4  27
HETATM   27  O   UNL     1      41.509  -9.203   9.127  1.00  0.00    -0.272 OA
BRANCH  27  28
HETATM   28  C   UNL     1      41.945  -7.981   9.598  1.00  0.00     0.300 C 
HETATM   29  O   UNL     1      42.372  -7.023   8.979  1.00  0.00    -0.259 OA
BRANCH  28  30
HETATM   30  C   UNL     1      41.876  -8.032  11.065  1.00  0.00     0.061 A 
HETATM   31  C   UNL     1      42.943  -8.517  11.830  1.00  0.00     0.051 A 
HETATM   32 CL   UNL     1      44.401  -9.108  11.117  1.00  0.00    -0.083 Cl
HETATM   33  C   UNL     1      42.832  -8.564  13.221  1.00  0.00     0.048 A 
HETATM   34  C   UNL     1      41.656  -8.134  13.836  1.00  0.00     0.035 A 
HETATM   35 CL   UNL     1      41.523  -8.196  15.551  1.00  0.00    -0.084 Cl
HETATM   36  C   UNL     1      40.584  -7.665  13.076  1.00  0.00     0.025 A 
HETATM   37  C   UNL     1      40.689  -7.619  11.685  1.00  0.00     0.021 A 
ENDBRANCH  28  30
ENDBRANCH  27  28
ENDBRANCH   4  27
TORSDOF 5
ENDMDL
