MODEL 1
REMARK VINA RESULT:      -7.7      0.000      0.000
REMARK  5 active torsions:
REMARK  status: ('A' for Active; 'I' for Inactive)
REMARK    1  A    between atoms: C_2  and  C_3 
REMARK    2  A    between atoms: C_2  and  C_21 
REMARK       I    between atoms: C_3  and  N_4 
REMARK    3  A    between atoms: N_4  and  C_5 
REMARK    4  A    between atoms: C_8  and  O_9 
REMARK    5  A    between atoms: O_9  and  C_10 
ROOT
HETATM    1  C   UNL     1      41.252 -14.962   1.192  1.00  0.00     0.052 A 
HETATM    2  C   UNL     1      40.610 -15.735   2.158  1.00  0.00     0.149 A 
HETATM    3  N   UNL     1      41.183 -16.127   3.325  1.00  0.00    -0.235 NA
HETATM    4  C   UNL     1      42.453 -15.729   3.545  1.00  0.00     0.169 A 
HETATM    5  C   UNL     1      43.164 -14.923   2.671  1.00  0.00     0.060 A 
HETATM    6  C   UNL     1      42.555 -14.546   1.474  1.00  0.00     0.035 A 
ENDROOT
BRANCH   1   7
HETATM    7  N   UNL     1      40.706 -14.593  -0.057  1.00  0.00    -0.325 N 
HETATM    8  C   UNL     1      39.835 -13.547  -0.306  1.00  0.00     0.231 C 
HETATM    9  O   UNL     1      39.482 -12.727   0.536  1.00  0.00    -0.272 OA
HETATM   10  H   UNL     1      40.978 -15.175  -0.839  1.00  0.00     0.169 HD
BRANCH   8  11
HETATM   11  C   UNL     1      39.296 -13.487  -1.755  1.00  0.00     0.046 C 
HETATM   12  C   UNL     1      40.333 -12.813  -2.671  1.00  0.00     0.026 C 
HETATM   13  C   UNL     1      39.014 -14.922  -2.236  1.00  0.00     0.026 C 
BRANCH  11  14
HETATM   14  C   UNL     1      37.987 -12.660  -1.716  1.00  0.00     0.133 C 
HETATM   15 CL   UNL     1      36.771 -13.160  -2.927  1.00  0.00    -0.129 Cl
ENDBRANCH  11  14
ENDBRANCH   8  11
ENDBRANCH   1   7
BRANCH   4  16
HETATM   16  O   UNL     1      43.101 -16.104   4.711  1.00  0.00    -0.289 OA
BRANCH  16  17
HETATM   17  C   UNL     1      43.378 -17.441   4.881  1.00  0.00     0.116 A 
HETATM   18  C   UNL     1      43.198 -17.977   6.157  1.00  0.00     0.153 A 
HETATM   19  F   UNL     1      42.723 -17.208   7.150  1.00  0.00    -0.203 F 
HETATM   20  C   UNL     1      43.513 -19.303   6.429  1.00  0.00     0.087 A 
HETATM   21  C   UNL     1      44.027 -20.093   5.411  1.00  0.00     0.119 A 
HETATM   22  F   UNL     1      44.338 -21.371   5.661  1.00  0.00    -0.206 F 
HETATM   23  C   UNL     1      44.235 -19.577   4.135  1.00  0.00     0.045 A 
HETATM   24  C   UNL     1      43.921 -18.243   3.868  1.00  0.00     0.043 A 
ENDBRANCH  16  17
ENDBRANCH   4  16
TORSDOF 5
ENDMDL
MODEL 2
REMARK VINA RESULT:      -7.7      1.597      1.938
REMARK  5 active torsions:
REMARK  status: ('A' for Active; 'I' for Inactive)
REMARK    1  A    between atoms: C_2  and  C_3 
REMARK    2  A    between atoms: C_2  and  C_21 
REMARK       I    between atoms: C_3  and  N_4 
REMARK    3  A    between atoms: N_4  and  C_5 
REMARK    4  A    between atoms: C_8  and  O_9 
REMARK    5  A    between atoms: O_9  and  C_10 
ROOT
HETATM    1  C   UNL     1      40.846 -13.990   1.647  1.00  0.00     0.052 A 
HETATM    2  C   UNL     1      40.339 -14.762   2.690  1.00  0.00     0.149 A 
HETATM    3  N   UNL     1      41.103 -15.508   3.528  1.00  0.00    -0.235 NA
HETATM    4  C   UNL     1      42.437 -15.483   3.322  1.00  0.00     0.169 A 
HETATM    5  C   UNL     1      43.045 -14.715   2.344  1.00  0.00     0.060 A 
HETATM    6  C   UNL     1      42.234 -13.968   1.489  1.00  0.00     0.035 A 
ENDROOT
BRANCH   1   7
HETATM    7  N   UNL     1      40.074 -13.256   0.721  1.00  0.00    -0.325 N 
HETATM    8  C   UNL     1      39.516 -13.728  -0.454  1.00  0.00     0.231 C 
HETATM    9  O   UNL     1      39.548 -14.903  -0.810  1.00  0.00    -0.272 OA
HETATM   10  H   UNL     1      39.936 -12.279   0.946  1.00  0.00     0.169 HD
BRANCH   8  11
HETATM   11  C   UNL     1      38.848 -12.645  -1.333  1.00  0.00     0.046 C 
HETATM   12  C   UNL     1      38.028 -13.312  -2.452  1.00  0.00     0.026 C 
HETATM   13  C   UNL     1      37.933 -11.782  -0.445  1.00  0.00     0.026 C 
BRANCH  11  14
HETATM   14  C   UNL     1      39.988 -11.786  -1.935  1.00  0.00     0.133 C 
HETATM   15 CL   UNL     1      41.024 -12.659  -3.100  1.00  0.00    -0.129 Cl
ENDBRANCH  11  14
ENDBRANCH   8  11
ENDBRANCH   1   7
BRANCH   4  16
HETATM   16  O   UNL     1      43.274 -16.232   4.134  1.00  0.00    -0.289 OA
BRANCH  16  17
HETATM   17  C   UNL     1      43.415 -17.568   3.839  1.00  0.00     0.116 A 
HETATM   18  C   UNL     1      43.929 -18.396   4.839  1.00  0.00     0.153 A 
HETATM   19  F   UNL     1      44.217 -17.891   6.049  1.00  0.00    -0.203 F 
HETATM   20  C   UNL     1      44.161 -19.746   4.604  1.00  0.00     0.087 A 
HETATM   21  C   UNL     1      43.887 -20.264   3.346  1.00  0.00     0.119 A 
HETATM   22  F   UNL     1      44.111 -21.563   3.105  1.00  0.00    -0.206 F 
HETATM   23  C   UNL     1      43.395 -19.456   2.326  1.00  0.00     0.045 A 
HETATM   24  C   UNL     1      43.167 -18.100   2.567  1.00  0.00     0.043 A 
ENDBRANCH  16  17
ENDBRANCH   4  16
TORSDOF 5
ENDMDL
MODEL 3
REMARK VINA RESULT:      -7.5      4.641      5.390
REMARK  5 active torsions:
REMARK  status: ('A' for Active; 'I' for Inactive)
REMARK    1  A    between atoms: C_2  and  C_3 
REMARK    2  A    between atoms: C_2  and  C_21 
REMARK       I    between atoms: C_3  and  N_4 
REMARK    3  A    between atoms: N_4  and  C_5 
REMARK    4  A    between atoms: C_8  and  O_9 
REMARK    5  A    between atoms: O_9  and  C_10 
ROOT
HETATM    1  C   UNL     1      42.127 -14.454   6.425  1.00  0.00     0.052 A 
HETATM    2  C   UNL     1      41.445 -15.666   6.327  1.00  0.00     0.149 A 
HETATM    3  N   UNL     1      42.050 -16.868   6.146  1.00  0.00    -0.235 NA
HETATM    4  C   UNL     1      43.397 -16.867   6.064  1.00  0.00     0.169 A 
HETATM    5  C   UNL     1      44.170 -15.726   6.193  1.00  0.00     0.060 A 
HETATM    6  C   UNL     1      43.522 -14.503   6.365  1.00  0.00     0.035 A 
ENDROOT
BRANCH   1   7
HETATM    7  N   UNL     1      41.524 -13.184   6.548  1.00  0.00    -0.325 N 
HETATM    8  C   UNL     1      41.071 -12.376   5.519  1.00  0.00     0.231 C 
HETATM    9  O   UNL     1      41.056 -12.708   4.337  1.00  0.00    -0.272 OA
HETATM   10  H   UNL     1      41.436 -12.833   7.493  1.00  0.00     0.169 HD
BRANCH   8  11
HETATM   11  C   UNL     1      40.594 -10.973   5.962  1.00  0.00     0.046 C 
HETATM   12  C   UNL     1      39.326 -11.102   6.826  1.00  0.00     0.026 C 
HETATM   13  C   UNL     1      41.720 -10.299   6.766  1.00  0.00     0.026 C 
BRANCH  11  14
HETATM   14  C   UNL     1      40.292 -10.170   4.672  1.00  0.00     0.133 C 
HETATM   15 CL   UNL     1      38.572 -10.186   4.187  1.00  0.00    -0.129 Cl
ENDBRANCH  11  14
ENDBRANCH   8  11
ENDBRANCH   1   7
BRANCH   4  16
HETATM   16  O   UNL     1      44.077 -18.059   5.867  1.00  0.00    -0.289 OA
BRANCH  16  17
HETATM   17  C   UNL     1      43.856 -18.728   4.686  1.00  0.00     0.116 A 
HETATM   18  C   UNL     1      44.023 -20.114   4.692  1.00  0.00     0.153 A 
HETATM   19  F   UNL     1      44.335 -20.750   5.832  1.00  0.00    -0.203 F 
HETATM   20  C   UNL     1      43.880 -20.859   3.527  1.00  0.00     0.087 A 
HETATM   21  C   UNL     1      43.581 -20.201   2.343  1.00  0.00     0.119 A 
HETATM   22  F   UNL     1      43.445 -20.906   1.212  1.00  0.00    -0.206 F 
HETATM   23  C   UNL     1      43.431 -18.818   2.306  1.00  0.00     0.045 A 
HETATM   24  C   UNL     1      43.579 -18.074   3.478  1.00  0.00     0.043 A 
ENDBRANCH  16  17
ENDBRANCH   4  16
TORSDOF 5
ENDMDL
MODEL 4
REMARK VINA RESULT:      -7.5      6.117      7.981
REMARK  5 active torsions:
REMARK  status: ('A' for Active; 'I' for Inactive)
REMARK    1  A    between atoms: C_2  and  C_3 
REMARK    2  A    between atoms: C_2  and  C_21 
REMARK       I    between atoms: C_3  and  N_4 
REMARK    3  A    between atoms: N_4  and  C_5 
REMARK    4  A    between atoms: C_8  and  O_9 
REMARK    5  A    between atoms: O_9  and  C_10 
ROOT
HETATM    1  C   UNL     1      43.889 -12.581   6.862  1.00  0.00     0.052 A 
HETATM    2  C   UNL     1      43.343 -13.751   7.386  1.00  0.00     0.149 A 
HETATM    3  N   UNL     1      42.658 -14.667   6.654  1.00  0.00    -0.235 NA
HETATM    4  C   UNL     1      42.511 -14.409   5.337  1.00  0.00     0.169 A 
HETATM    5  C   UNL     1      43.052 -13.300   4.710  1.00  0.00     0.060 A 
HETATM    6  C   UNL     1      43.740 -12.369   5.489  1.00  0.00     0.035 A 
ENDROOT
BRANCH   1   7
HETATM    7  N   UNL     1      44.550 -11.580   7.607  1.00  0.00    -0.325 N 
HETATM    8  C   UNL     1      44.008 -10.392   8.065  1.00  0.00     0.231 C 
HETATM    9  O   UNL     1      42.825 -10.084   7.953  1.00  0.00    -0.272 OA
HETATM   10  H   UNL     1      45.526 -11.759   7.805  1.00  0.00     0.169 HD
BRANCH   8  11
HETATM   11  C   UNL     1      45.025  -9.431   8.725  1.00  0.00     0.046 C 
HETATM   12  C   UNL     1      46.335  -9.421   7.917  1.00  0.00     0.026 C 
HETATM   13  C   UNL     1      44.415  -8.018   8.767  1.00  0.00     0.026 C 
BRANCH  11  14
HETATM   14  C   UNL     1      45.277  -9.957  10.161  1.00  0.00     0.133 C 
HETATM   15 CL   UNL     1      43.941  -9.634  11.302  1.00  0.00    -0.129 Cl
ENDBRANCH  11  14
ENDBRANCH   8  11
ENDBRANCH   1   7
BRANCH   4  16
HETATM   16  O   UNL     1      41.811 -15.297   4.535  1.00  0.00    -0.289 OA
BRANCH  16  17
HETATM   17  C   UNL     1      42.506 -16.363   4.012  1.00  0.00     0.116 A 
HETATM   18  C   UNL     1      42.063 -16.881   2.794  1.00  0.00     0.153 A 
HETATM   19  F   UNL     1      41.030 -16.312   2.154  1.00  0.00    -0.203 F 
HETATM   20  C   UNL     1      42.670 -17.996   2.226  1.00  0.00     0.087 A 
HETATM   21  C   UNL     1      43.722 -18.602   2.898  1.00  0.00     0.119 A 
HETATM   22  F   UNL     1      44.313 -19.679   2.365  1.00  0.00    -0.206 F 
HETATM   23  C   UNL     1      44.169 -18.116   4.124  1.00  0.00     0.045 A 
HETATM   24  C   UNL     1      43.553 -16.999   4.691  1.00  0.00     0.043 A 
ENDBRANCH  16  17
ENDBRANCH   4  16
TORSDOF 5
ENDMDL
MODEL 5
REMARK VINA RESULT:      -7.2      3.834      4.793
REMARK  5 active torsions:
REMARK  status: ('A' for Active; 'I' for Inactive)
REMARK    1  A    between atoms: C_2  and  C_3 
REMARK    2  A    between atoms: C_2  and  C_21 
REMARK       I    between atoms: C_3  and  N_4 
REMARK    3  A    between atoms: N_4  and  C_5 
REMARK    4  A    between atoms: C_8  and  O_9 
REMARK    5  A    between atoms: O_9  and  C_10 
ROOT
HETATM    1  C   UNL     1      41.840 -14.060   2.780  1.00  0.00     0.052 A 
HETATM    2  C   UNL     1      43.056 -14.270   2.133  1.00  0.00     0.149 A 
HETATM    3  N   UNL     1      43.532 -15.492   1.784  1.00  0.00    -0.235 NA
HETATM    4  C   UNL     1      42.762 -16.557   2.088  1.00  0.00     0.169 A 
HETATM    5  C   UNL     1      41.519 -16.455   2.689  1.00  0.00     0.060 A 
HETATM    6  C   UNL     1      41.060 -15.188   3.048  1.00  0.00     0.035 A 
ENDROOT
BRANCH   1   7
HETATM    7  N   UNL     1      41.348 -12.810   3.214  1.00  0.00    -0.325 N 
HETATM    8  C   UNL     1      41.704 -12.132   4.367  1.00  0.00     0.231 C 
HETATM    9  O   UNL     1      42.582 -12.500   5.140  1.00  0.00    -0.272 OA
HETATM   10  H   UNL     1      40.651 -12.386   2.616  1.00  0.00     0.169 HD
BRANCH   8  11
HETATM   11  C   UNL     1      40.880 -10.852   4.643  1.00  0.00     0.046 C 
HETATM   12  C   UNL     1      41.741  -9.606   4.364  1.00  0.00     0.026 C 
HETATM   13  C   UNL     1      39.639 -10.856   3.731  1.00  0.00     0.026 C 
BRANCH  11  14
HETATM   14  C   UNL     1      40.459 -10.897   6.133  1.00  0.00     0.133 C 
HETATM   15 CL   UNL     1      38.698 -11.058   6.389  1.00  0.00    -0.129 Cl
ENDBRANCH  11  14
ENDBRANCH   8  11
ENDBRANCH   1   7
BRANCH   4  16
HETATM   16  O   UNL     1      43.195 -17.835   1.770  1.00  0.00    -0.289 OA
BRANCH  16  17
HETATM   17  C   UNL     1      43.567 -18.656   2.809  1.00  0.00     0.116 A 
HETATM   18  C   UNL     1      43.584 -20.031   2.566  1.00  0.00     0.153 A 
HETATM   19  F   UNL     1      43.294 -20.503   1.344  1.00  0.00    -0.203 F 
HETATM   20  C   UNL     1      43.889 -20.934   3.579  1.00  0.00     0.087 A 
HETATM   21  C   UNL     1      44.165 -20.449   4.849  1.00  0.00     0.119 A 
HETATM   22  F   UNL     1      44.455 -21.308   5.835  1.00  0.00    -0.206 F 
HETATM   23  C   UNL     1      44.134 -19.084   5.122  1.00  0.00     0.045 A 
HETATM   24  C   UNL     1      43.823 -18.182   4.102  1.00  0.00     0.043 A 
ENDBRANCH  16  17
ENDBRANCH   4  16
TORSDOF 5
ENDMDL
MODEL 6
REMARK VINA RESULT:      -7.2      3.295      3.963
REMARK  5 active torsions:
REMARK  status: ('A' for Active; 'I' for Inactive)
REMARK    1  A    between atoms: C_2  and  C_3 
REMARK    2  A    between atoms: C_2  and  C_21 
REMARK       I    between atoms: C_3  and  N_4 
REMARK    3  A    between atoms: N_4  and  C_5 
REMARK    4  A    between atoms: C_8  and  O_9 
REMARK    5  A    between atoms: O_9  and  C_10 
ROOT
HETATM    1  C   UNL     1      41.291 -14.257   2.935  1.00  0.00     0.052 A 
HETATM    2  C   UNL     1      40.702 -15.514   3.059  1.00  0.00     0.149 A 
HETATM    3  N   UNL     1      41.315 -16.680   2.729  1.00  0.00    -0.235 NA
HETATM    4  C   UNL     1      42.576 -16.593   2.256  1.00  0.00     0.169 A 
HETATM    5  C   UNL     1      43.267 -15.400   2.135  1.00  0.00     0.060 A 
HETATM    6  C   UNL     1      42.609 -14.217   2.470  1.00  0.00     0.035 A 
ENDROOT
BRANCH   1   7
HETATM    7  N   UNL     1      40.659 -13.025   3.208  1.00  0.00    -0.325 N 
HETATM    8  C   UNL     1      39.934 -12.249   2.321  1.00  0.00     0.231 C 
HETATM    9  O   UNL     1      39.668 -12.583   1.170  1.00  0.00    -0.272 OA
HETATM   10  H   UNL     1      40.769 -12.680   4.153  1.00  0.00     0.169 HD
BRANCH   8  11
HETATM   11  C   UNL     1      39.489 -10.877   2.879  1.00  0.00     0.046 C 
HETATM   12  C   UNL     1      38.214 -10.407   2.155  1.00  0.00     0.026 C 
HETATM   13  C   UNL     1      39.221 -11.020   4.388  1.00  0.00     0.026 C 
BRANCH  11  14
HETATM   14  C   UNL     1      40.652  -9.886   2.625  1.00  0.00     0.133 C 
HETATM   15 CL   UNL     1      41.826  -9.779   3.968  1.00  0.00    -0.129 Cl
ENDBRANCH  11  14
ENDBRANCH   8  11
ENDBRANCH   1   7
BRANCH   4  16
HETATM   16  O   UNL     1      43.255 -17.744   1.888  1.00  0.00    -0.289 OA
BRANCH  16  17
HETATM   17  C   UNL     1      43.603 -18.623   2.888  1.00  0.00     0.116 A 
HETATM   18  C   UNL     1      43.617 -19.982   2.572  1.00  0.00     0.153 A 
HETATM   19  F   UNL     1      43.348 -20.386   1.321  1.00  0.00    -0.203 F 
HETATM   20  C   UNL     1      43.898 -20.940   3.540  1.00  0.00     0.087 A 
HETATM   21  C   UNL     1      44.152 -20.526   4.840  1.00  0.00     0.119 A 
HETATM   22  F   UNL     1      44.419 -21.440   5.783  1.00  0.00    -0.206 F 
HETATM   23  C   UNL     1      44.123 -19.178   5.185  1.00  0.00     0.045 A 
HETATM   24  C   UNL     1      43.837 -18.221   4.210  1.00  0.00     0.043 A 
ENDBRANCH  16  17
ENDBRANCH   4  16
TORSDOF 5
ENDMDL
MODEL 7
REMARK VINA RESULT:      -7.1      7.194      8.966
REMARK  5 active torsions:
REMARK  status: ('A' for Active; 'I' for Inactive)
REMARK    1  A    between atoms: C_2  and  C_3 
REMARK    2  A    between atoms: C_2  and  C_21 
REMARK       I    between atoms: C_3  and  N_4 
REMARK    3  A    between atoms: N_4  and  C_5 
REMARK    4  A    between atoms: C_8  and  O_9 
REMARK    5  A    between atoms: O_9  and  C_10 
ROOT
HETATM    1  C   UNL     1      43.454 -12.281   6.043  1.00  0.00     0.052 A 
HETATM    2  C   UNL     1      42.576 -11.284   6.465  1.00  0.00     0.149 A 
HETATM    3  N   UNL     1      42.891 -10.326   7.375  1.00  0.00    -0.235 NA
HETATM    4  C   UNL     1      44.139 -10.358   7.888  1.00  0.00     0.169 A 
HETATM    5  C   UNL     1      45.100 -11.278   7.503  1.00  0.00     0.060 A 
HETATM    6  C   UNL     1      44.745 -12.258   6.576  1.00  0.00     0.035 A 
ENDROOT
BRANCH   1   7
HETATM    7  N   UNL     1      43.137 -13.326   5.149  1.00  0.00    -0.325 N 
HETATM    8  C   UNL     1      42.770 -14.619   5.479  1.00  0.00     0.231 C 
HETATM    9  O   UNL     1      42.583 -15.011   6.627  1.00  0.00    -0.272 OA
HETATM   10  H   UNL     1      43.205 -13.094   4.166  1.00  0.00     0.169 HD
BRANCH   8  11
HETATM   11  C   UNL     1      42.630 -15.578   4.274  1.00  0.00     0.046 C 
HETATM   12  C   UNL     1      43.601 -16.762   4.433  1.00  0.00     0.026 C 
HETATM   13  C   UNL     1      41.177 -16.086   4.213  1.00  0.00     0.026 C 
BRANCH  11  14
HETATM   14  C   UNL     1      42.973 -14.761   3.003  1.00  0.00     0.133 C 
HETATM   15 CL   UNL     1      43.504 -15.756   1.617  1.00  0.00    -0.129 Cl
ENDBRANCH  11  14
ENDBRANCH   8  11
ENDBRANCH   1   7
BRANCH   4  16
HETATM   16  O   UNL     1      44.521  -9.417   8.831  1.00  0.00    -0.289 OA
BRANCH  16  17
HETATM   17  C   UNL     1      43.931  -9.486  10.072  1.00  0.00     0.116 A 
HETATM   18  C   UNL     1      43.490  -8.290  10.639  1.00  0.00     0.153 A 
HETATM   19  F   UNL     1      43.602  -7.139   9.958  1.00  0.00    -0.203 F 
HETATM   20  C   UNL     1      42.939  -8.262  11.916  1.00  0.00     0.087 A 
HETATM   21  C   UNL     1      42.844  -9.447  12.631  1.00  0.00     0.119 A 
HETATM   22  F   UNL     1      42.320  -9.434  13.863  1.00  0.00    -0.206 F 
HETATM   23  C   UNL     1      43.297 -10.650  12.095  1.00  0.00     0.045 A 
HETATM   24  C   UNL     1      43.853 -10.671  10.815  1.00  0.00     0.043 A 
ENDBRANCH  16  17
ENDBRANCH   4  16
TORSDOF 5
ENDMDL
MODEL 8
REMARK VINA RESULT:      -7.0      6.591      8.314
REMARK  5 active torsions:
REMARK  status: ('A' for Active; 'I' for Inactive)
REMARK    1  A    between atoms: C_2  and  C_3 
REMARK    2  A    between atoms: C_2  and  C_21 
REMARK       I    between atoms: C_3  and  N_4 
REMARK    3  A    between atoms: N_4  and  C_5 
REMARK    4  A    between atoms: C_8  and  O_9 
REMARK    5  A    between atoms: O_9  and  C_10 
ROOT
HETATM    1  C   UNL     1      42.999 -13.009   5.804  1.00  0.00     0.052 A 
HETATM    2  C   UNL     1      42.136 -11.922   5.676  1.00  0.00     0.149 A 
HETATM    3  N   UNL     1      42.324 -10.723   6.285  1.00  0.00    -0.235 NA
HETATM    4  C   UNL     1      43.425 -10.596   7.055  1.00  0.00     0.169 A 
HETATM    5  C   UNL     1      44.368 -11.598   7.212  1.00  0.00     0.060 A 
HETATM    6  C   UNL     1      44.143 -12.823   6.585  1.00  0.00     0.035 A 
ENDROOT
BRANCH   1   7
HETATM    7  N   UNL     1      42.797 -14.286   5.236  1.00  0.00    -0.325 N 
HETATM    8  C   UNL     1      42.874 -14.620   3.896  1.00  0.00     0.231 C 
HETATM    9  O   UNL     1      43.222 -13.845   3.010  1.00  0.00    -0.272 OA
HETATM   10  H   UNL     1      42.556 -15.019   5.890  1.00  0.00     0.169 HD
BRANCH   8  11
HETATM   11  C   UNL     1      42.454 -16.072   3.568  1.00  0.00     0.046 C 
HETATM   12  C   UNL     1      42.916 -16.441   2.146  1.00  0.00     0.026 C 
HETATM   13  C   UNL     1      43.098 -17.018   4.599  1.00  0.00     0.026 C 
BRANCH  11  14
HETATM   14  C   UNL     1      40.909 -16.130   3.668  1.00  0.00     0.133 C 
HETATM   15 CL   UNL     1      40.064 -15.777   2.133  1.00  0.00    -0.129 Cl
ENDBRANCH  11  14
ENDBRANCH   8  11
ENDBRANCH   1   7
BRANCH   4  16
HETATM   16  O   UNL     1      43.672  -9.402   7.715  1.00  0.00    -0.289 OA
BRANCH  16  17
HETATM   17  C   UNL     1      43.392  -9.352   9.061  1.00  0.00     0.116 A 
HETATM   18  C   UNL     1      44.473  -9.248   9.938  1.00  0.00     0.153 A 
HETATM   19  F   UNL     1      45.723  -9.150   9.458  1.00  0.00    -0.203 F 
HETATM   20  C   UNL     1      44.282  -9.253  11.315  1.00  0.00     0.087 A 
HETATM   21  C   UNL     1      42.993  -9.379  11.813  1.00  0.00     0.119 A 
HETATM   22  F   UNL     1      42.796  -9.390  13.138  1.00  0.00    -0.206 F 
HETATM   23  C   UNL     1      41.901  -9.506  10.959  1.00  0.00     0.045 A 
HETATM   24  C   UNL     1      42.099  -9.504   9.578  1.00  0.00     0.043 A 
ENDBRANCH  16  17
ENDBRANCH   4  16
TORSDOF 5
ENDMDL
MODEL 9
REMARK VINA RESULT:      -7.0      6.019      8.011
REMARK  5 active torsions:
REMARK  status: ('A' for Active; 'I' for Inactive)
REMARK    1  A    between atoms: C_2  and  C_3 
REMARK    2  A    between atoms: C_2  and  C_21 
REMARK       I    between atoms: C_3  and  N_4 
REMARK    3  A    between atoms: N_4  and  C_5 
REMARK    4  A    between atoms: C_8  and  O_9 
REMARK    5  A    between atoms: O_9  and  C_10 
ROOT
HETATM    1  C   UNL     1      42.831 -11.119   5.807  1.00  0.00     0.052 A 
HETATM    2  C   UNL     1      41.614 -11.786   5.935  1.00  0.00     0.149 A 
HETATM    3  N   UNL     1      41.060 -12.554   4.962  1.00  0.00    -0.235 NA
HETATM    4  C   UNL     1      41.750 -12.669   3.808  1.00  0.00     0.169 A 
HETATM    5  C   UNL     1      42.987 -12.084   3.595  1.00  0.00     0.060 A 
HETATM    6  C   UNL     1      43.526 -11.290   4.607  1.00  0.00     0.035 A 
ENDROOT
BRANCH   1   7
HETATM    7  N   UNL     1      43.400 -10.263   6.774  1.00  0.00    -0.325 N 
HETATM    8  C   UNL     1      44.036 -10.639   7.945  1.00  0.00     0.231 C 
HETATM    9  O   UNL     1      44.270 -11.802   8.260  1.00  0.00    -0.272 OA
HETATM   10  H   UNL     1      43.312  -9.273   6.585  1.00  0.00     0.169 HD
BRANCH   8  11
HETATM   11  C   UNL     1      44.424  -9.465   8.874  1.00  0.00     0.046 C 
HETATM   12  C   UNL     1      44.616  -9.979  10.313  1.00  0.00     0.026 C 
HETATM   13  C   UNL     1      45.729  -8.834   8.356  1.00  0.00     0.026 C 
BRANCH  11  14
HETATM   14  C   UNL     1      43.264  -8.440   8.816  1.00  0.00     0.133 C 
HETATM   15 CL   UNL     1      43.743  -6.771   9.239  1.00  0.00    -0.129 Cl
ENDBRANCH  11  14
ENDBRANCH   8  11
ENDBRANCH   1   7
BRANCH   4  16
HETATM   16  O   UNL     1      41.235 -13.428   2.769  1.00  0.00    -0.289 OA
BRANCH  16  17
HETATM   17  C   UNL     1      41.813 -14.654   2.533  1.00  0.00     0.116 A 
HETATM   18  C   UNL     1      41.341 -15.739   3.273  1.00  0.00     0.153 A 
HETATM   19  F   UNL     1      40.328 -15.575   4.138  1.00  0.00    -0.203 F 
HETATM   20  C   UNL     1      41.911 -17.000   3.141  1.00  0.00     0.087 A 
HETATM   21  C   UNL     1      42.975 -17.167   2.266  1.00  0.00     0.119 A 
HETATM   22  F   UNL     1      43.536 -18.375   2.132  1.00  0.00    -0.206 F 
HETATM   23  C   UNL     1      43.477 -16.096   1.531  1.00  0.00     0.045 A 
HETATM   24  C   UNL     1      42.903 -14.831   1.671  1.00  0.00     0.043 A 
ENDBRANCH  16  17
ENDBRANCH   4  16
TORSDOF 5
ENDMDL
MODEL 10
REMARK VINA RESULT:      -7.0      6.195      8.598
REMARK  5 active torsions:
REMARK  status: ('A' for Active; 'I' for Inactive)
REMARK    1  A    between atoms: C_2  and  C_3 
REMARK    2  A    between atoms: C_2  and  C_21 
REMARK       I    between atoms: C_3  and  N_4 
REMARK    3  A    between atoms: N_4  and  C_5 
REMARK    4  A    between atoms: C_8  and  O_9 
REMARK    5  A    between atoms: O_9  and  C_10 
ROOT
HETATM    1  C   UNL     1      43.312 -12.335   6.698  1.00  0.00     0.052 A 
HETATM    2  C   UNL     1      43.039 -12.200   5.338  1.00  0.00     0.149 A 
HETATM    3  N   UNL     1      42.952 -13.241   4.470  1.00  0.00    -0.235 NA
HETATM    4  C   UNL     1      43.142 -14.476   4.979  1.00  0.00     0.169 A 
HETATM    5  C   UNL     1      43.375 -14.723   6.321  1.00  0.00     0.060 A 
HETATM    6  C   UNL     1      43.471 -13.634   7.187  1.00  0.00     0.035 A 
ENDROOT
BRANCH   1   7
HETATM    7  N   UNL     1      43.472 -11.271   7.611  1.00  0.00    -0.325 N 
HETATM    8  C   UNL     1      44.666 -10.743   8.071  1.00  0.00     0.231 C 
HETATM    9  O   UNL     1      45.773 -11.086   7.666  1.00  0.00    -0.272 OA
HETATM   10  H   UNL     1      42.614 -10.873   7.970  1.00  0.00     0.169 HD
BRANCH   8  11
HETATM   11  C   UNL     1      44.516  -9.678   9.182  1.00  0.00     0.046 C 
HETATM   12  C   UNL     1      45.383 -10.061  10.394  1.00  0.00     0.026 C 
HETATM   13  C   UNL     1      44.957  -8.313   8.621  1.00  0.00     0.026 C 
BRANCH  11  14
HETATM   14  C   UNL     1      43.018  -9.644   9.576  1.00  0.00     0.133 C 
HETATM   15 CL   UNL     1      42.597  -8.350  10.734  1.00  0.00    -0.129 Cl
ENDBRANCH  11  14
ENDBRANCH   8  11
ENDBRANCH   1   7
BRANCH   4  16
HETATM   16  O   UNL     1      43.080 -15.582   4.145  1.00  0.00    -0.289 OA
BRANCH  16  17
HETATM   17  C   UNL     1      42.140 -15.568   3.141  1.00  0.00     0.116 A 
HETATM   18  C   UNL     1      42.571 -15.206   1.864  1.00  0.00     0.153 A 
HETATM   19  F   UNL     1      43.867 -14.938   1.641  1.00  0.00    -0.203 F 
HETATM   20  C   UNL     1      41.675 -15.106   0.806  1.00  0.00     0.087 A 
HETATM   21  C   UNL     1      40.331 -15.359   1.039  1.00  0.00     0.119 A 
HETATM   22  F   UNL     1      39.456 -15.261   0.030  1.00  0.00    -0.206 F 
HETATM   23  C   UNL     1      39.872 -15.700   2.309  1.00  0.00     0.045 A 
HETATM   24  C   UNL     1      40.776 -15.795   3.368  1.00  0.00     0.043 A 
ENDBRANCH  16  17
ENDBRANCH   4  16
TORSDOF 5
ENDMDL
