MODEL 1
REMARK VINA RESULT:      -9.8      0.000      0.000
REMARK  8 active torsions:
REMARK  status: ('A' for Active; 'I' for Inactive)
REMARK    1  A    between atoms: C_3  and  C_4 
REMARK       I    between atoms: C_4  and  N_5 
REMARK    2  A    between atoms: N_5  and  C_6 
REMARK    3  A    between atoms: C_14  and  N_15 
REMARK       I    between atoms: N_15  and  C_16 
REMARK    4  A    between atoms: C_16  and  C_17 
REMARK       I    between atoms: C_17  and  N_18 
REMARK    5  A    between atoms: N_18  and  N_19 
REMARK    6  A    between atoms: C_20  and  C_21 
REMARK    7  A    between atoms: C_22  and  O_23 
REMARK    8  A    between atoms: C_25  and  O_26 
ROOT
HETATM    1  N   UNL     1      43.572 -16.966   5.315  1.00  0.00    -0.318 N 
HETATM    2  C   UNL     1      43.386 -17.082   6.674  1.00  0.00     0.315 C 
HETATM    3  O   UNL     1      43.314 -18.100   7.352  1.00  0.00    -0.262 OA
HETATM    4  H   UNL     1      43.674 -16.006   4.962  1.00  0.00     0.169 HD
ENDROOT
BRANCH   1   5
HETATM    5  C   UNL     1      43.616 -18.000   4.351  1.00  0.00     0.051 A 
HETATM    6  C   UNL     1      43.146 -17.759   3.041  1.00  0.00     0.059 A 
HETATM    7  C   UNL     1      43.117 -18.798   2.093  1.00  0.00     0.019 A 
HETATM    8  C   UNL     1      43.592 -20.065   2.425  1.00  0.00     0.001 A 
HETATM    9  C   UNL     1      44.092 -20.299   3.703  1.00  0.00     0.002 A 
HETATM   10  C   UNL     1      44.100 -19.277   4.658  1.00  0.00     0.030 A 
BRANCH   6  11
HETATM   11  C   UNL     1      42.699 -16.393   2.636  1.00  0.00     0.258 C 
HETATM   12  N   UNL     1      41.390 -16.318   2.191  1.00  0.00    -0.323 N 
HETATM   13  H   UNL     1      40.882 -17.190   2.110  1.00  0.00     0.169 HD
HETATM   14  O   UNL     1      43.518 -15.483   2.667  1.00  0.00    -0.267 OA
BRANCH  12  15
HETATM   15  C   UNL     1      40.706 -15.172   1.734  1.00  0.00     0.035 A 
HETATM   16  C   UNL     1      40.623 -14.793   0.392  1.00  0.00     0.031 A 
HETATM   17  C   UNL     1      39.919 -13.642   0.022  1.00  0.00     0.026 A 
HETATM   18  C   UNL     1      39.299 -12.862   0.994  1.00  0.00     0.034 A 
HETATM   19 CL   UNL     1      38.433 -11.448   0.538  1.00  0.00    -0.084 Cl
HETATM   20  C   UNL     1      39.376 -13.225   2.335  1.00  0.00     0.026 A 
HETATM   21  C   UNL     1      40.079 -14.375   2.703  1.00  0.00     0.031 A 
ENDBRANCH  12  15
ENDBRANCH   6  11
ENDBRANCH   1   5
BRANCH   2  22
HETATM   22  C   UNL     1      43.330 -15.725   7.398  1.00  0.00     0.329 C 
HETATM   23  N   UNL     1      43.320 -14.670   6.503  1.00  0.00    -0.239 N 
HETATM   24  H   UNL     1      43.362 -14.891   5.509  1.00  0.00     0.192 HD
HETATM   25  O   UNL     1      43.281 -15.675   8.618  1.00  0.00    -0.261 OA
BRANCH  23  26
HETATM   26  N   UNL     1      43.301 -13.382   6.940  1.00  0.00    -0.183 NA
HETATM   27  C   UNL     1      44.421 -12.744   6.814  1.00  0.00     0.153 C 
BRANCH  27  28
HETATM   28  C   UNL     1      44.561 -11.349   7.274  1.00  0.00     0.016 A 
HETATM   29  C   UNL     1      43.457 -10.502   7.437  1.00  0.00     0.080 A 
HETATM   30  C   UNL     1      43.630  -9.199   7.899  1.00  0.00     0.074 A 
HETATM   31  C   UNL     1      44.914  -8.744   8.186  1.00  0.00     0.068 A 
HETATM   32  C   UNL     1      46.021  -9.571   8.021  1.00  0.00     0.037 A 
HETATM   33  C   UNL     1      45.847 -10.880   7.567  1.00  0.00     0.018 A 
BRANCH  29  34
HETATM   34  O   UNL     1      42.171 -10.886   7.170  1.00  0.00    -0.360 OA
HETATM   35  H   UNL     1      41.591 -10.093   7.239  1.00  0.00     0.217 HD
ENDBRANCH  29  34
BRANCH  31  36
HETATM   36  O   UNL     1      45.133  -7.478   8.639  1.00  0.00    -0.361 OA
HETATM   37  H   UNL     1      44.305  -6.973   8.562  1.00  0.00     0.217 HD
ENDBRANCH  31  36
ENDBRANCH  27  28
ENDBRANCH  23  26
ENDBRANCH   2  22
TORSDOF 8
ENDMDL
MODEL 2
REMARK VINA RESULT:      -8.8      2.231      2.756
REMARK  8 active torsions:
REMARK  status: ('A' for Active; 'I' for Inactive)
REMARK    1  A    between atoms: C_3  and  C_4 
REMARK       I    between atoms: C_4  and  N_5 
REMARK    2  A    between atoms: N_5  and  C_6 
REMARK    3  A    between atoms: C_14  and  N_15 
REMARK       I    between atoms: N_15  and  C_16 
REMARK    4  A    between atoms: C_16  and  C_17 
REMARK       I    between atoms: C_17  and  N_18 
REMARK    5  A    between atoms: N_18  and  N_19 
REMARK    6  A    between atoms: C_20  and  C_21 
REMARK    7  A    between atoms: C_22  and  O_23 
REMARK    8  A    between atoms: C_25  and  O_26 
ROOT
HETATM    1  N   UNL     1      42.661 -15.233   4.726  1.00  0.00    -0.318 N 
HETATM    2  C   UNL     1      42.897 -13.935   4.334  1.00  0.00     0.315 C 
HETATM    3  O   UNL     1      43.348 -13.527   3.271  1.00  0.00    -0.262 OA
HETATM    4  H   UNL     1      42.207 -15.344   5.642  1.00  0.00     0.169 HD
ENDROOT
BRANCH   1   5
HETATM    5  C   UNL     1      42.985 -16.424   4.035  1.00  0.00     0.051 A 
HETATM    6  C   UNL     1      42.242 -16.797   2.893  1.00  0.00     0.059 A 
HETATM    7  C   UNL     1      42.506 -18.015   2.239  1.00  0.00     0.019 A 
HETATM    8  C   UNL     1      43.532 -18.845   2.688  1.00  0.00     0.001 A 
HETATM    9  C   UNL     1      44.293 -18.465   3.789  1.00  0.00     0.002 A 
HETATM   10  C   UNL     1      44.019 -17.268   4.459  1.00  0.00     0.030 A 
BRANCH   6  11
HETATM   11  C   UNL     1      41.186 -15.893   2.348  1.00  0.00     0.258 C 
HETATM   12  N   UNL     1      41.548 -15.201   1.205  1.00  0.00    -0.323 N 
HETATM   13  H   UNL     1      42.503 -15.308   0.886  1.00  0.00     0.169 HD
HETATM   14  O   UNL     1      40.137 -15.788   2.970  1.00  0.00    -0.267 OA
BRANCH  12  15
HETATM   15  C   UNL     1      40.768 -14.273   0.484  1.00  0.00     0.035 A 
HETATM   16  C   UNL     1      40.813 -12.891   0.682  1.00  0.00     0.031 A 
HETATM   17  C   UNL     1      40.007 -12.038  -0.081  1.00  0.00     0.026 A 
HETATM   18  C   UNL     1      39.151 -12.565  -1.043  1.00  0.00     0.034 A 
HETATM   19 CL   UNL     1      38.162 -11.516  -1.980  1.00  0.00    -0.084 Cl
HETATM   20  C   UNL     1      39.092 -13.940  -1.249  1.00  0.00     0.026 A 
HETATM   21  C   UNL     1      39.898 -14.790  -0.487  1.00  0.00     0.031 A 
ENDBRANCH  12  15
ENDBRANCH   6  11
ENDBRANCH   1   5
BRANCH   2  22
HETATM   22  C   UNL     1      42.461 -12.895   5.382  1.00  0.00     0.329 C 
HETATM   23  N   UNL     1      43.517 -12.091   5.772  1.00  0.00    -0.239 N 
HETATM   24  H   UNL     1      44.430 -12.272   5.356  1.00  0.00     0.192 HD
HETATM   25  O   UNL     1      41.299 -12.841   5.754  1.00  0.00    -0.261 OA
BRANCH  23  26
HETATM   26  N   UNL     1      43.350 -11.124   6.713  1.00  0.00    -0.183 NA
HETATM   27  C   UNL     1      43.885 -11.381   7.865  1.00  0.00     0.153 C 
BRANCH  27  28
HETATM   28  C   UNL     1      43.758 -10.439   8.993  1.00  0.00     0.016 A 
HETATM   29  C   UNL     1      42.575  -9.735   9.248  1.00  0.00     0.080 A 
HETATM   30  C   UNL     1      42.488  -8.874  10.341  1.00  0.00     0.074 A 
HETATM   31  C   UNL     1      43.595  -8.714  11.169  1.00  0.00     0.068 A 
HETATM   32  C   UNL     1      44.780  -9.401  10.924  1.00  0.00     0.037 A 
HETATM   33  C   UNL     1      44.865 -10.271   9.835  1.00  0.00     0.018 A 
BRANCH  29  34
HETATM   34  O   UNL     1      41.453  -9.845   8.472  1.00  0.00    -0.360 OA
HETATM   35  H   UNL     1      41.344  -9.008   7.965  1.00  0.00     0.217 HD
ENDBRANCH  29  34
BRANCH  31  36
HETATM   36  O   UNL     1      43.558  -7.882  12.249  1.00  0.00    -0.361 OA
HETATM   37  H   UNL     1      42.862  -7.218  12.105  1.00  0.00     0.217 HD
ENDBRANCH  31  36
ENDBRANCH  27  28
ENDBRANCH  23  26
ENDBRANCH   2  22
TORSDOF 8
ENDMDL
MODEL 3
REMARK VINA RESULT:      -8.8      3.612      6.017
REMARK  8 active torsions:
REMARK  status: ('A' for Active; 'I' for Inactive)
REMARK    1  A    between atoms: C_3  and  C_4 
REMARK       I    between atoms: C_4  and  N_5 
REMARK    2  A    between atoms: N_5  and  C_6 
REMARK    3  A    between atoms: C_14  and  N_15 
REMARK       I    between atoms: N_15  and  C_16 
REMARK    4  A    between atoms: C_16  and  C_17 
REMARK       I    between atoms: C_17  and  N_18 
REMARK    5  A    between atoms: N_18  and  N_19 
REMARK    6  A    between atoms: C_20  and  C_21 
REMARK    7  A    between atoms: C_22  and  O_23 
REMARK    8  A    between atoms: C_25  and  O_26 
ROOT
HETATM    1  N   UNL     1      42.603 -11.696   4.322  1.00  0.00    -0.318 N 
HETATM    2  C   UNL     1      43.917 -11.514   4.691  1.00  0.00     0.315 C 
HETATM    3  O   UNL     1      44.890 -11.302   3.976  1.00  0.00    -0.262 OA
HETATM    4  H   UNL     1      41.935 -11.788   5.098  1.00  0.00     0.169 HD
ENDROOT
BRANCH   1   5
HETATM    5  C   UNL     1      42.070 -11.792   3.016  1.00  0.00     0.051 A 
HETATM    6  C   UNL     1      41.793 -13.062   2.462  1.00  0.00     0.059 A 
HETATM    7  C   UNL     1      41.331 -13.175   1.138  1.00  0.00     0.019 A 
HETATM    8  C   UNL     1      41.104 -12.033   0.374  1.00  0.00     0.001 A 
HETATM    9  C   UNL     1      41.339 -10.777   0.925  1.00  0.00     0.002 A 
HETATM   10  C   UNL     1      41.822 -10.658   2.232  1.00  0.00     0.030 A 
BRANCH   6  11
HETATM   11  C   UNL     1      41.958 -14.298   3.283  1.00  0.00     0.258 C 
HETATM   12  N   UNL     1      42.967 -15.146   2.859  1.00  0.00    -0.323 N 
HETATM   13  H   UNL     1      43.447 -14.897   2.003  1.00  0.00     0.169 HD
HETATM   14  O   UNL     1      41.172 -14.492   4.202  1.00  0.00    -0.267 OA
BRANCH  12  15
HETATM   15  C   UNL     1      43.340 -16.382   3.426  1.00  0.00     0.035 A 
HETATM   16  C   UNL     1      43.710 -16.552   4.762  1.00  0.00     0.031 A 
HETATM   17  C   UNL     1      44.062 -17.817   5.246  1.00  0.00     0.026 A 
HETATM   18  C   UNL     1      44.051 -18.917   4.394  1.00  0.00     0.034 A 
HETATM   19 CL   UNL     1      44.484 -20.471   4.989  1.00  0.00    -0.084 Cl
HETATM   20  C   UNL     1      43.689 -18.763   3.059  1.00  0.00     0.026 A 
HETATM   21  C   UNL     1      43.337 -17.499   2.577  1.00  0.00     0.031 A 
ENDBRANCH  12  15
ENDBRANCH   6  11
ENDBRANCH   1   5
BRANCH   2  22
HETATM   22  C   UNL     1      44.128 -11.524   6.215  1.00  0.00     0.329 C 
HETATM   23  N   UNL     1      43.229 -10.692   6.860  1.00  0.00    -0.239 N 
HETATM   24  H   UNL     1      42.565 -10.176   6.285  1.00  0.00     0.192 HD
HETATM   25  O   UNL     1      44.994 -12.226   6.716  1.00  0.00    -0.261 OA
BRANCH  23  26
HETATM   26  N   UNL     1      43.265 -10.536   8.210  1.00  0.00    -0.183 NA
HETATM   27  C   UNL     1      42.515  -9.585   8.672  1.00  0.00     0.153 C 
BRANCH  27  28
HETATM   28  C   UNL     1      42.476  -9.277  10.114  1.00  0.00     0.016 A 
HETATM   29  C   UNL     1      41.324  -9.472  10.889  1.00  0.00     0.080 A 
HETATM   30  C   UNL     1      41.338  -9.192  12.254  1.00  0.00     0.074 A 
HETATM   31  C   UNL     1      42.504  -8.707  12.837  1.00  0.00     0.068 A 
HETATM   32  C   UNL     1      43.653  -8.500  12.079  1.00  0.00     0.037 A 
HETATM   33  C   UNL     1      43.644  -8.789  10.713  1.00  0.00     0.018 A 
BRANCH  29  34
HETATM   34  O   UNL     1      40.146  -9.943  10.377  1.00  0.00    -0.360 OA
HETATM   35  H   UNL     1      39.499  -9.202  10.358  1.00  0.00     0.217 HD
ENDBRANCH  29  34
BRANCH  31  36
HETATM   36  O   UNL     1      42.564  -8.418  14.168  1.00  0.00    -0.361 OA
HETATM   37  H   UNL     1      43.252  -8.973  14.574  1.00  0.00     0.217 HD
ENDBRANCH  31  36
ENDBRANCH  27  28
ENDBRANCH  23  26
ENDBRANCH   2  22
TORSDOF 8
ENDMDL
MODEL 4
REMARK VINA RESULT:      -8.7      3.189      7.938
REMARK  8 active torsions:
REMARK  status: ('A' for Active; 'I' for Inactive)
REMARK    1  A    between atoms: C_3  and  C_4 
REMARK       I    between atoms: C_4  and  N_5 
REMARK    2  A    between atoms: N_5  and  C_6 
REMARK    3  A    between atoms: C_14  and  N_15 
REMARK       I    between atoms: N_15  and  C_16 
REMARK    4  A    between atoms: C_16  and  C_17 
REMARK       I    between atoms: C_17  and  N_18 
REMARK    5  A    between atoms: N_18  and  N_19 
REMARK    6  A    between atoms: C_20  and  C_21 
REMARK    7  A    between atoms: C_22  and  O_23 
REMARK    8  A    between atoms: C_25  and  O_26 
ROOT
HETATM    1  N   UNL     1      40.978 -11.651   4.800  1.00  0.00    -0.318 N 
HETATM    2  C   UNL     1      42.274 -11.945   4.437  1.00  0.00     0.315 C 
HETATM    3  O   UNL     1      43.113 -11.208   3.934  1.00  0.00    -0.262 OA
HETATM    4  H   UNL     1      40.470 -12.407   5.276  1.00  0.00     0.169 HD
ENDROOT
BRANCH   1   5
HETATM    5  C   UNL     1      40.263 -10.451   4.580  1.00  0.00     0.051 A 
HETATM    6  C   UNL     1      39.399 -10.342   3.468  1.00  0.00     0.059 A 
HETATM    7  C   UNL     1      38.738  -9.130   3.196  1.00  0.00     0.019 A 
HETATM    8  C   UNL     1      38.897  -8.038   4.046  1.00  0.00     0.001 A 
HETATM    9  C   UNL     1      39.716  -8.150   5.165  1.00  0.00     0.002 A 
HETATM   10  C   UNL     1      40.397  -9.344   5.427  1.00  0.00     0.030 A 
BRANCH   6  11
HETATM   11  C   UNL     1      39.155 -11.519   2.582  1.00  0.00     0.258 C 
HETATM   12  N   UNL     1      39.229 -11.250   1.225  1.00  0.00    -0.323 N 
HETATM   13  H   UNL     1      39.366 -10.284   0.956  1.00  0.00     0.169 HD
HETATM   14  O   UNL     1      38.854 -12.584   3.104  1.00  0.00    -0.267 OA
BRANCH  12  15
HETATM   15  C   UNL     1      39.030 -12.154   0.162  1.00  0.00     0.035 A 
HETATM   16  C   UNL     1      38.027 -12.021  -0.802  1.00  0.00     0.031 A 
HETATM   17  C   UNL     1      37.902 -12.963  -1.830  1.00  0.00     0.026 A 
HETATM   18  C   UNL     1      38.775 -14.044  -1.895  1.00  0.00     0.034 A 
HETATM   19 CL   UNL     1      38.620 -15.199  -3.159  1.00  0.00    -0.084 Cl
HETATM   20  C   UNL     1      39.777 -14.192  -0.940  1.00  0.00     0.026 A 
HETATM   21  C   UNL     1      39.901 -13.250   0.085  1.00  0.00     0.031 A 
ENDBRANCH  12  15
ENDBRANCH   6  11
ENDBRANCH   1   5
BRANCH   2  22
HETATM   22  C   UNL     1      42.692 -13.384   4.788  1.00  0.00     0.329 C 
HETATM   23  N   UNL     1      42.034 -14.312   4.001  1.00  0.00    -0.239 N 
HETATM   24  H   UNL     1      41.365 -13.963   3.316  1.00  0.00     0.192 HD
HETATM   25  O   UNL     1      43.527 -13.592   5.656  1.00  0.00    -0.261 OA
BRANCH  23  26
HETATM   26  N   UNL     1      42.240 -15.646   4.171  1.00  0.00    -0.183 NA
HETATM   27  C   UNL     1      43.103 -16.174   3.362  1.00  0.00     0.153 C 
BRANCH  27  28
HETATM   28  C   UNL     1      43.407 -17.617   3.406  1.00  0.00     0.016 A 
HETATM   29  C   UNL     1      43.945 -18.233   4.544  1.00  0.00     0.080 A 
HETATM   30  C   UNL     1      44.193 -19.604   4.553  1.00  0.00     0.074 A 
HETATM   31  C   UNL     1      43.909 -20.354   3.415  1.00  0.00     0.068 A 
HETATM   32  C   UNL     1      43.381 -19.755   2.275  1.00  0.00     0.037 A 
HETATM   33  C   UNL     1      43.124 -18.383   2.268  1.00  0.00     0.018 A 
BRANCH  29  34
HETATM   34  O   UNL     1      44.249 -17.553   5.692  1.00  0.00    -0.360 OA
HETATM   35  H   UNL     1      45.099 -17.076   5.553  1.00  0.00     0.217 HD
ENDBRANCH  29  34
BRANCH  31  36
HETATM   36  O   UNL     1      44.135 -21.697   3.377  1.00  0.00    -0.361 OA
HETATM   37  H   UNL     1      43.886 -22.078   4.236  1.00  0.00     0.217 HD
ENDBRANCH  31  36
ENDBRANCH  27  28
ENDBRANCH  23  26
ENDBRANCH   2  22
TORSDOF 8
ENDMDL
MODEL 5
REMARK VINA RESULT:      -8.6      3.798      8.838
REMARK  8 active torsions:
REMARK  status: ('A' for Active; 'I' for Inactive)
REMARK    1  A    between atoms: C_3  and  C_4 
REMARK       I    between atoms: C_4  and  N_5 
REMARK    2  A    between atoms: N_5  and  C_6 
REMARK    3  A    between atoms: C_14  and  N_15 
REMARK       I    between atoms: N_15  and  C_16 
REMARK    4  A    between atoms: C_16  and  C_17 
REMARK       I    between atoms: C_17  and  N_18 
REMARK    5  A    between atoms: N_18  and  N_19 
REMARK    6  A    between atoms: C_20  and  C_21 
REMARK    7  A    between atoms: C_22  and  O_23 
REMARK    8  A    between atoms: C_25  and  O_26 
ROOT
HETATM    1  N   UNL     1      41.403 -11.359   4.367  1.00  0.00    -0.318 N 
HETATM    2  C   UNL     1      40.279 -10.571   4.256  1.00  0.00     0.315 C 
HETATM    3  O   UNL     1      39.866  -9.714   5.029  1.00  0.00    -0.262 OA
HETATM    4  H   UNL     1      41.599 -11.966   3.561  1.00  0.00     0.169 HD
ENDROOT
BRANCH   1   5
HETATM    5  C   UNL     1      42.300 -11.448   5.457  1.00  0.00     0.051 A 
HETATM    6  C   UNL     1      43.135 -12.580   5.588  1.00  0.00     0.059 A 
HETATM    7  C   UNL     1      43.979 -12.715   6.705  1.00  0.00     0.019 A 
HETATM    8  C   UNL     1      44.030 -11.714   7.672  1.00  0.00     0.001 A 
HETATM    9  C   UNL     1      43.239 -10.578   7.530  1.00  0.00     0.002 A 
HETATM   10  C   UNL     1      42.378 -10.449   6.435  1.00  0.00     0.030 A 
BRANCH   6  11
HETATM   11  C   UNL     1      43.154 -13.633   4.530  1.00  0.00     0.258 C 
HETATM   12  N   UNL     1      43.106 -14.933   5.004  1.00  0.00    -0.323 N 
HETATM   13  H   UNL     1      43.136 -15.057   6.009  1.00  0.00     0.169 HD
HETATM   14  O   UNL     1      43.270 -13.280   3.364  1.00  0.00    -0.267 OA
BRANCH  12  15
HETATM   15  C   UNL     1      43.124 -16.122   4.246  1.00  0.00     0.035 A 
HETATM   16  C   UNL     1      42.296 -16.363   3.147  1.00  0.00     0.031 A 
HETATM   17  C   UNL     1      42.382 -17.571   2.445  1.00  0.00     0.026 A 
HETATM   18  C   UNL     1      43.294 -18.544   2.842  1.00  0.00     0.034 A 
HETATM   19 CL   UNL     1      43.400 -20.027   1.978  1.00  0.00    -0.084 Cl
HETATM   20  C   UNL     1      44.123 -18.320   3.937  1.00  0.00     0.026 A 
HETATM   21  C   UNL     1      44.037 -17.113   4.637  1.00  0.00     0.031 A 
ENDBRANCH  12  15
ENDBRANCH   6  11
ENDBRANCH   1   5
BRANCH   2  22
HETATM   22  C   UNL     1      39.510 -10.791   2.942  1.00  0.00     0.329 C 
HETATM   23  N   UNL     1      40.297 -11.411   1.988  1.00  0.00    -0.239 N 
HETATM   24  H   UNL     1      41.259 -11.633   2.239  1.00  0.00     0.192 HD
HETATM   25  O   UNL     1      38.341 -10.448   2.844  1.00  0.00    -0.261 OA
BRANCH  23  26
HETATM   26  N   UNL     1      39.814 -11.671   0.744  1.00  0.00    -0.183 NA
HETATM   27  C   UNL     1      39.581 -12.922   0.496  1.00  0.00     0.153 C 
BRANCH  27  28
HETATM   28  C   UNL     1      39.086 -13.359  -0.823  1.00  0.00     0.016 A 
HETATM   29  C   UNL     1      38.045 -12.697  -1.487  1.00  0.00     0.080 A 
HETATM   30  C   UNL     1      37.625 -13.127  -2.744  1.00  0.00     0.074 A 
HETATM   31  C   UNL     1      38.243 -14.229  -3.328  1.00  0.00     0.068 A 
HETATM   32  C   UNL     1      39.273 -14.901  -2.677  1.00  0.00     0.037 A 
HETATM   33  C   UNL     1      39.701 -14.465  -1.421  1.00  0.00     0.018 A 
BRANCH  29  34
HETATM   34  O   UNL     1      37.394 -11.611  -0.968  1.00  0.00    -0.360 OA
HETATM   35  H   UNL     1      37.806 -11.388  -0.102  1.00  0.00     0.217 HD
ENDBRANCH  29  34
BRANCH  31  36
HETATM   36  O   UNL     1      37.866 -14.686  -4.555  1.00  0.00    -0.361 OA
HETATM   37  H   UNL     1      37.179 -14.096  -4.908  1.00  0.00     0.217 HD
ENDBRANCH  31  36
ENDBRANCH  27  28
ENDBRANCH  23  26
ENDBRANCH   2  22
TORSDOF 8
ENDMDL
MODEL 6
REMARK VINA RESULT:      -8.6      3.251      5.950
REMARK  8 active torsions:
REMARK  status: ('A' for Active; 'I' for Inactive)
REMARK    1  A    between atoms: C_3  and  C_4 
REMARK       I    between atoms: C_4  and  N_5 
REMARK    2  A    between atoms: N_5  and  C_6 
REMARK    3  A    between atoms: C_14  and  N_15 
REMARK       I    between atoms: N_15  and  C_16 
REMARK    4  A    between atoms: C_16  and  C_17 
REMARK       I    between atoms: C_17  and  N_18 
REMARK    5  A    between atoms: N_18  and  N_19 
REMARK    6  A    between atoms: C_20  and  C_21 
REMARK    7  A    between atoms: C_22  and  O_23 
REMARK    8  A    between atoms: C_25  and  O_26 
ROOT
HETATM    1  N   UNL     1      40.049 -12.128   1.368  1.00  0.00    -0.318 N 
HETATM    2  C   UNL     1      41.104 -11.263   1.550  1.00  0.00     0.315 C 
HETATM    3  O   UNL     1      41.877 -10.812   0.712  1.00  0.00    -0.262 OA
HETATM    4  H   UNL     1      39.485 -12.321   2.206  1.00  0.00     0.169 HD
ENDROOT
BRANCH   1   5
HETATM    5  C   UNL     1      39.664 -12.796   0.182  1.00  0.00     0.051 A 
HETATM    6  C   UNL     1      39.816 -14.197   0.084  1.00  0.00     0.059 A 
HETATM    7  C   UNL     1      39.506 -14.864  -1.116  1.00  0.00     0.019 A 
HETATM    8  C   UNL     1      39.005 -14.153  -2.204  1.00  0.00     0.001 A 
HETATM    9  C   UNL     1      38.816 -12.778  -2.102  1.00  0.00     0.002 A 
HETATM   10  C   UNL     1      39.147 -12.105  -0.921  1.00  0.00     0.030 A 
BRANCH   6  11
HETATM   11  C   UNL     1      40.282 -14.992   1.258  1.00  0.00     0.258 C 
HETATM   12  N   UNL     1      41.619 -15.349   1.224  1.00  0.00    -0.323 N 
HETATM   13  H   UNL     1      42.138 -15.109   0.388  1.00  0.00     0.169 HD
HETATM   14  O   UNL     1      39.458 -15.312   2.105  1.00  0.00    -0.267 OA
BRANCH  12  15
HETATM   15  C   UNL     1      42.327 -16.106   2.180  1.00  0.00     0.035 A 
HETATM   16  C   UNL     1      42.719 -15.621   3.431  1.00  0.00     0.031 A 
HETATM   17  C   UNL     1      43.416 -16.443   4.324  1.00  0.00     0.026 A 
HETATM   18  C   UNL     1      43.729 -17.751   3.969  1.00  0.00     0.034 A 
HETATM   19 CL   UNL     1      44.585 -18.759   5.067  1.00  0.00    -0.084 Cl
HETATM   20  C   UNL     1      43.350 -18.247   2.724  1.00  0.00     0.026 A 
HETATM   21  C   UNL     1      42.653 -17.426   1.834  1.00  0.00     0.031 A 
ENDBRANCH  12  15
ENDBRANCH   6  11
ENDBRANCH   1   5
BRANCH   2  22
HETATM   22  C   UNL     1      41.252 -10.781   3.003  1.00  0.00     0.329 C 
HETATM   23  N   UNL     1      42.580 -10.610   3.352  1.00  0.00    -0.239 N 
HETATM   24  H   UNL     1      43.286 -10.825   2.648  1.00  0.00     0.192 HD
HETATM   25  O   UNL     1      40.263 -10.577   3.692  1.00  0.00    -0.261 OA
BRANCH  23  26
HETATM   26  N   UNL     1      42.930 -10.215   4.605  1.00  0.00    -0.183 NA
HETATM   27  C   UNL     1      43.621 -11.079   5.280  1.00  0.00     0.153 C 
BRANCH  27  28
HETATM   28  C   UNL     1      44.045 -10.802   6.665  1.00  0.00     0.016 A 
HETATM   29  C   UNL     1      43.130 -10.471   7.674  1.00  0.00     0.080 A 
HETATM   30  C   UNL     1      43.569 -10.243   8.976  1.00  0.00     0.074 A 
HETATM   31  C   UNL     1      44.928 -10.337   9.262  1.00  0.00     0.068 A 
HETATM   32  C   UNL     1      45.849 -10.658   8.270  1.00  0.00     0.037 A 
HETATM   33  C   UNL     1      45.409 -10.896   6.966  1.00  0.00     0.018 A 
BRANCH  29  34
HETATM   34  O   UNL     1      41.783 -10.358   7.459  1.00  0.00    -0.360 OA
HETATM   35  H   UNL     1      41.372  -9.977   8.268  1.00  0.00     0.217 HD
ENDBRANCH  29  34
BRANCH  31  36
HETATM   36  O   UNL     1      45.405 -10.122  10.521  1.00  0.00    -0.361 OA
HETATM   37  H   UNL     1      46.363 -10.289  10.522  1.00  0.00     0.217 HD
ENDBRANCH  31  36
ENDBRANCH  27  28
ENDBRANCH  23  26
ENDBRANCH   2  22
TORSDOF 8
ENDMDL
MODEL 7
REMARK VINA RESULT:      -8.3     15.991     18.223
REMARK  8 active torsions:
REMARK  status: ('A' for Active; 'I' for Inactive)
REMARK    1  A    between atoms: C_3  and  C_4 
REMARK       I    between atoms: C_4  and  N_5 
REMARK    2  A    between atoms: N_5  and  C_6 
REMARK    3  A    between atoms: C_14  and  N_15 
REMARK       I    between atoms: N_15  and  C_16 
REMARK    4  A    between atoms: C_16  and  C_17 
REMARK       I    between atoms: C_17  and  N_18 
REMARK    5  A    between atoms: N_18  and  N_19 
REMARK    6  A    between atoms: C_20  and  C_21 
REMARK    7  A    between atoms: C_22  and  O_23 
REMARK    8  A    between atoms: C_25  and  O_26 
ROOT
HETATM    1  N   UNL     1      44.271 -29.785   0.908  1.00  0.00    -0.318 N 
HETATM    2  C   UNL     1      43.031 -29.494   1.429  1.00  0.00     0.315 C 
HETATM    3  O   UNL     1      42.164 -28.757   0.974  1.00  0.00    -0.262 OA
HETATM    4  H   UNL     1      44.813 -30.491   1.422  1.00  0.00     0.169 HD
ENDROOT
BRANCH   1   5
HETATM    5  C   UNL     1      44.894 -29.217  -0.228  1.00  0.00     0.051 A 
HETATM    6  C   UNL     1      46.178 -28.640  -0.111  1.00  0.00     0.059 A 
HETATM    7  C   UNL     1      46.777 -28.008  -1.216  1.00  0.00     0.019 A 
HETATM    8  C   UNL     1      46.128 -27.982  -2.448  1.00  0.00     0.001 A 
HETATM    9  C   UNL     1      44.879 -28.582  -2.580  1.00  0.00     0.002 A 
HETATM   10  C   UNL     1      44.266 -29.190  -1.480  1.00  0.00     0.030 A 
BRANCH   6  11
HETATM   11  C   UNL     1      46.927 -28.717   1.178  1.00  0.00     0.258 C 
HETATM   12  N   UNL     1      47.877 -29.723   1.238  1.00  0.00    -0.323 N 
HETATM   13  H   UNL     1      47.929 -30.354   0.448  1.00  0.00     0.169 HD
HETATM   14  O   UNL     1      46.611 -27.950   2.078  1.00  0.00    -0.267 OA
BRANCH  12  15
HETATM   15  C   UNL     1      48.718 -30.042   2.325  1.00  0.00     0.035 A 
HETATM   16  C   UNL     1      48.257 -30.421   3.587  1.00  0.00     0.031 A 
HETATM   17  C   UNL     1      49.162 -30.726   4.611  1.00  0.00     0.026 A 
HETATM   18  C   UNL     1      50.531 -30.647   4.378  1.00  0.00     0.034 A 
HETATM   19 CL   UNL     1      51.641 -31.022   5.636  1.00  0.00    -0.084 Cl
HETATM   20  C   UNL     1      51.006 -30.266   3.126  1.00  0.00     0.026 A 
HETATM   21  C   UNL     1      50.101 -29.963   2.104  1.00  0.00     0.031 A 
ENDBRANCH  12  15
ENDBRANCH   6  11
ENDBRANCH   1   5
BRANCH   2  22
HETATM   22  C   UNL     1      42.716 -30.270   2.720  1.00  0.00     0.329 C 
HETATM   23  N   UNL     1      41.467 -29.944   3.219  1.00  0.00    -0.239 N 
HETATM   24  H   UNL     1      40.921 -29.249   2.713  1.00  0.00     0.192 HD
HETATM   25  O   UNL     1      43.519 -31.074   3.170  1.00  0.00    -0.261 OA
BRANCH  23  26
HETATM   26  N   UNL     1      41.008 -30.500   4.372  1.00  0.00    -0.183 NA
HETATM   27  C   UNL     1      40.333 -31.596   4.222  1.00  0.00     0.153 C 
BRANCH  27  28
HETATM   28  C   UNL     1      39.745 -32.294   5.381  1.00  0.00     0.016 A 
HETATM   29  C   UNL     1      40.279 -32.182   6.671  1.00  0.00     0.080 A 
HETATM   30  C   UNL     1      39.677 -32.838   7.743  1.00  0.00     0.074 A 
HETATM   31  C   UNL     1      38.544 -33.614   7.516  1.00  0.00     0.068 A 
HETATM   32  C   UNL     1      38.007 -33.741   6.238  1.00  0.00     0.037 A 
HETATM   33  C   UNL     1      38.604 -33.077   5.165  1.00  0.00     0.018 A 
BRANCH  29  34
HETATM   34  O   UNL     1      41.390 -31.438   6.961  1.00  0.00    -0.360 OA
HETATM   35  H   UNL     1      41.249 -30.525   6.620  1.00  0.00     0.217 HD
ENDBRANCH  29  34
BRANCH  31  36
HETATM   36  O   UNL     1      37.921 -34.275   8.532  1.00  0.00    -0.361 OA
HETATM   37  H   UNL     1      38.262 -33.935   9.377  1.00  0.00     0.217 HD
ENDBRANCH  31  36
ENDBRANCH  27  28
ENDBRANCH  23  26
ENDBRANCH   2  22
TORSDOF 8
ENDMDL
MODEL 8
REMARK VINA RESULT:      -8.3      3.172      5.626
REMARK  8 active torsions:
REMARK  status: ('A' for Active; 'I' for Inactive)
REMARK    1  A    between atoms: C_3  and  C_4 
REMARK       I    between atoms: C_4  and  N_5 
REMARK    2  A    between atoms: N_5  and  C_6 
REMARK    3  A    between atoms: C_14  and  N_15 
REMARK       I    between atoms: N_15  and  C_16 
REMARK    4  A    between atoms: C_16  and  C_17 
REMARK       I    between atoms: C_17  and  N_18 
REMARK    5  A    between atoms: N_18  and  N_19 
REMARK    6  A    between atoms: C_20  and  C_21 
REMARK    7  A    between atoms: C_22  and  O_23 
REMARK    8  A    between atoms: C_25  and  O_26 
ROOT
HETATM    1  N   UNL     1      40.376 -12.975   3.268  1.00  0.00    -0.318 N 
HETATM    2  C   UNL     1      41.562 -12.577   3.840  1.00  0.00     0.315 C 
HETATM    3  O   UNL     1      42.634 -12.341   3.295  1.00  0.00    -0.262 OA
HETATM    4  H   UNL     1      39.576 -13.046   3.909  1.00  0.00     0.169 HD
ENDROOT
BRANCH   1   5
HETATM    5  C   UNL     1      40.132 -13.317   1.917  1.00  0.00     0.051 A 
HETATM    6  C   UNL     1      40.389 -14.631   1.468  1.00  0.00     0.059 A 
HETATM    7  C   UNL     1      40.221 -14.966   0.111  1.00  0.00     0.019 A 
HETATM    8  C   UNL     1      39.758 -14.013  -0.794  1.00  0.00     0.001 A 
HETATM    9  C   UNL     1      39.466 -12.727  -0.351  1.00  0.00     0.002 A 
HETATM   10  C   UNL     1      39.656 -12.380   0.991  1.00  0.00     0.030 A 
BRANCH   6  11
HETATM   11  C   UNL     1      40.816 -15.690   2.430  1.00  0.00     0.258 C 
HETATM   12  N   UNL     1      42.077 -16.212   2.197  1.00  0.00    -0.323 N 
HETATM   13  H   UNL     1      42.561 -15.892   1.368  1.00  0.00     0.169 HD
HETATM   14  O   UNL     1      40.019 -16.049   3.287  1.00  0.00    -0.267 OA
BRANCH  12  15
HETATM   15  C   UNL     1      42.732 -17.226   2.927  1.00  0.00     0.035 A 
HETATM   16  C   UNL     1      43.154 -17.089   4.251  1.00  0.00     0.031 A 
HETATM   17  C   UNL     1      43.794 -18.149   4.905  1.00  0.00     0.026 A 
HETATM   18  C   UNL     1      44.018 -19.347   4.235  1.00  0.00     0.034 A 
HETATM   19 CL   UNL     1      44.803 -20.648   5.040  1.00  0.00    -0.084 Cl
HETATM   20  C   UNL     1      43.607 -19.497   2.914  1.00  0.00     0.026 A 
HETATM   21  C   UNL     1      42.967 -18.439   2.263  1.00  0.00     0.031 A 
ENDBRANCH  12  15
ENDBRANCH   6  11
ENDBRANCH   1   5
BRANCH   2  22
HETATM   22  C   UNL     1      41.459 -12.351   5.359  1.00  0.00     0.329 C 
HETATM   23  N   UNL     1      42.065 -11.168   5.741  1.00  0.00    -0.239 N 
HETATM   24  H   UNL     1      42.507 -10.605   5.015  1.00  0.00     0.192 HD
HETATM   25  O   UNL     1      40.876 -13.159   6.067  1.00  0.00    -0.261 OA
BRANCH  23  26
HETATM   26  N   UNL     1      42.110 -10.794   7.048  1.00  0.00    -0.183 NA
HETATM   27  C   UNL     1      42.969  -9.864   7.324  1.00  0.00     0.153 C 
BRANCH  27  28
HETATM   28  C   UNL     1      43.152  -9.379   8.705  1.00  0.00     0.016 A 
HETATM   29  C   UNL     1      42.476  -8.256   9.198  1.00  0.00     0.080 A 
HETATM   30  C   UNL     1      42.658  -7.847  10.518  1.00  0.00     0.074 A 
HETATM   31  C   UNL     1      43.527  -8.560  11.337  1.00  0.00     0.068 A 
HETATM   32  C   UNL     1      44.212  -9.673  10.859  1.00  0.00     0.037 A 
HETATM   33  C   UNL     1      44.023 -10.090   9.539  1.00  0.00     0.018 A 
BRANCH  29  34
HETATM   34  O   UNL     1      41.610  -7.510   8.445  1.00  0.00    -0.360 OA
HETATM   35  H   UNL     1      42.135  -6.865   7.918  1.00  0.00     0.217 HD
ENDBRANCH  29  34
BRANCH  31  36
HETATM   36  O   UNL     1      43.738  -8.198  12.634  1.00  0.00    -0.361 OA
HETATM   37  H   UNL     1      43.647  -8.987  13.195  1.00  0.00     0.217 HD
ENDBRANCH  31  36
ENDBRANCH  27  28
ENDBRANCH  23  26
ENDBRANCH   2  22
TORSDOF 8
ENDMDL
MODEL 9
REMARK VINA RESULT:      -8.2      4.145      7.536
REMARK  8 active torsions:
REMARK  status: ('A' for Active; 'I' for Inactive)
REMARK    1  A    between atoms: C_3  and  C_4 
REMARK       I    between atoms: C_4  and  N_5 
REMARK    2  A    between atoms: N_5  and  C_6 
REMARK    3  A    between atoms: C_14  and  N_15 
REMARK       I    between atoms: N_15  and  C_16 
REMARK    4  A    between atoms: C_16  and  C_17 
REMARK       I    between atoms: C_17  and  N_18 
REMARK    5  A    between atoms: N_18  and  N_19 
REMARK    6  A    between atoms: C_20  and  C_21 
REMARK    7  A    between atoms: C_22  and  O_23 
REMARK    8  A    between atoms: C_25  and  O_26 
ROOT
HETATM    1  N   UNL     1      41.936 -15.418   1.788  1.00  0.00    -0.318 N 
HETATM    2  C   UNL     1      40.608 -15.300   1.446  1.00  0.00     0.315 C 
HETATM    3  O   UNL     1      39.658 -15.979   1.820  1.00  0.00    -0.262 OA
HETATM    4  H   UNL     1      42.557 -14.691   1.411  1.00  0.00     0.169 HD
ENDROOT
BRANCH   1   5
HETATM    5  C   UNL     1      42.547 -16.423   2.574  1.00  0.00     0.051 A 
HETATM    6  C   UNL     1      42.835 -16.173   3.934  1.00  0.00     0.059 A 
HETATM    7  C   UNL     1      43.508 -17.137   4.708  1.00  0.00     0.019 A 
HETATM    8  C   UNL     1      43.860 -18.364   4.150  1.00  0.00     0.001 A 
HETATM    9  C   UNL     1      43.545 -18.632   2.821  1.00  0.00     0.002 A 
HETATM   10  C   UNL     1      42.899 -17.669   2.039  1.00  0.00     0.030 A 
BRANCH   6  11
HETATM   11  C   UNL     1      42.406 -14.896   4.576  1.00  0.00     0.258 C 
HETATM   12  N   UNL     1      43.442 -14.062   4.961  1.00  0.00    -0.323 N 
HETATM   13  H   UNL     1      44.383 -14.415   4.843  1.00  0.00     0.169 HD
HETATM   14  O   UNL     1      41.209 -14.717   4.766  1.00  0.00    -0.267 OA
BRANCH  12  15
HETATM   15  C   UNL     1      43.339 -12.808   5.599  1.00  0.00     0.035 A 
HETATM   16  C   UNL     1      42.664 -11.709   5.064  1.00  0.00     0.031 A 
HETATM   17  C   UNL     1      42.606 -10.500   5.767  1.00  0.00     0.026 A 
HETATM   18  C   UNL     1      43.228 -10.384   7.006  1.00  0.00     0.034 A 
HETATM   19 CL   UNL     1      43.156  -8.899   7.869  1.00  0.00    -0.084 Cl
HETATM   20  C   UNL     1      43.909 -11.470   7.551  1.00  0.00     0.026 A 
HETATM   21  C   UNL     1      43.965 -12.676   6.848  1.00  0.00     0.031 A 
ENDBRANCH  12  15
ENDBRANCH   6  11
ENDBRANCH   1   5
BRANCH   2  22
HETATM   22  C   UNL     1      40.323 -14.106   0.519  1.00  0.00     0.329 C 
HETATM   23  N   UNL     1      41.042 -12.985   0.896  1.00  0.00    -0.239 N 
HETATM   24  H   UNL     1      41.643 -13.061   1.715  1.00  0.00     0.192 HD
HETATM   25  O   UNL     1      39.556 -14.224  -0.426  1.00  0.00    -0.261 OA
BRANCH  23  26
HETATM   26  N   UNL     1      40.912 -11.811   0.222  1.00  0.00    -0.183 NA
HETATM   27  C   UNL     1      41.403 -11.808  -0.977  1.00  0.00     0.153 C 
BRANCH  27  28
HETATM   28  C   UNL     1      41.364 -10.595  -1.815  1.00  0.00     0.016 A 
HETATM   29  C   UNL     1      41.872  -9.366  -1.375  1.00  0.00     0.080 A 
HETATM   30  C   UNL     1      41.840  -8.251  -2.209  1.00  0.00     0.074 A 
HETATM   31  C   UNL     1      41.287  -8.368  -3.480  1.00  0.00     0.068 A 
HETATM   32  C   UNL     1      40.772  -9.580  -3.929  1.00  0.00     0.037 A 
HETATM   33  C   UNL     1      40.812 -10.702  -3.098  1.00  0.00     0.018 A 
BRANCH  29  34
HETATM   34  O   UNL     1      42.425  -9.183  -0.136  1.00  0.00    -0.360 OA
HETATM   35  H   UNL     1      42.964  -8.359  -0.157  1.00  0.00     0.217 HD
ENDBRANCH  29  34
BRANCH  31  36
HETATM   36  O   UNL     1      41.232  -7.304  -4.331  1.00  0.00    -0.361 OA
HETATM   37  H   UNL     1      41.577  -7.582  -5.197  1.00  0.00     0.217 HD
ENDBRANCH  31  36
ENDBRANCH  27  28
ENDBRANCH  23  26
ENDBRANCH   2  22
TORSDOF 8
ENDMDL
MODEL 10
REMARK VINA RESULT:      -8.2      3.595      9.430
REMARK  8 active torsions:
REMARK  status: ('A' for Active; 'I' for Inactive)
REMARK    1  A    between atoms: C_3  and  C_4 
REMARK       I    between atoms: C_4  and  N_5 
REMARK    2  A    between atoms: N_5  and  C_6 
REMARK    3  A    between atoms: C_14  and  N_15 
REMARK       I    between atoms: N_15  and  C_16 
REMARK    4  A    between atoms: C_16  and  C_17 
REMARK       I    between atoms: C_17  and  N_18 
REMARK    5  A    between atoms: N_18  and  N_19 
REMARK    6  A    between atoms: C_20  and  C_21 
REMARK    7  A    between atoms: C_22  and  O_23 
REMARK    8  A    between atoms: C_25  and  O_26 
ROOT
HETATM    1  N   UNL     1      43.208 -10.307   9.220  1.00  0.00    -0.318 N 
HETATM    2  C   UNL     1      44.368 -10.840   8.706  1.00  0.00     0.315 C 
HETATM    3  O   UNL     1      45.481 -10.886   9.217  1.00  0.00    -0.262 OA
HETATM    4  H   UNL     1      42.365 -10.443   8.647  1.00  0.00     0.169 HD
ENDROOT
BRANCH   1   5
HETATM    5  C   UNL     1      43.041  -9.581  10.423  1.00  0.00     0.051 A 
HETATM    6  C   UNL     1      43.057  -8.169  10.398  1.00  0.00     0.059 A 
HETATM    7  C   UNL     1      42.965  -7.435  11.595  1.00  0.00     0.019 A 
HETATM    8  C   UNL     1      42.815  -8.095  12.813  1.00  0.00     0.001 A 
HETATM    9  C   UNL     1      42.759  -9.485  12.840  1.00  0.00     0.002 A 
HETATM   10  C   UNL     1      42.876 -10.222  11.657  1.00  0.00     0.030 A 
BRANCH   6  11
HETATM   11  C   UNL     1      43.144  -7.435   9.101  1.00  0.00     0.258 C 
HETATM   12  N   UNL     1      41.930  -7.000   8.597  1.00  0.00    -0.323 N 
HETATM   13  H   UNL     1      41.097  -7.276   9.103  1.00  0.00     0.169 HD
HETATM   14  O   UNL     1      44.241  -7.332   8.566  1.00  0.00    -0.267 OA
BRANCH  12  15
HETATM   15  C   UNL     1      41.704  -6.300   7.393  1.00  0.00     0.035 A 
HETATM   16  C   UNL     1      41.425  -4.933   7.323  1.00  0.00     0.031 A 
HETATM   17  C   UNL     1      41.218  -4.314   6.084  1.00  0.00     0.026 A 
HETATM   18  C   UNL     1      41.285  -5.061   4.912  1.00  0.00     0.034 A 
HETATM   19 CL   UNL     1      41.031  -4.300   3.392  1.00  0.00    -0.084 Cl
HETATM   20  C   UNL     1      41.558  -6.425   4.967  1.00  0.00     0.026 A 
HETATM   21  C   UNL     1      41.765  -7.041   6.204  1.00  0.00     0.031 A 
ENDBRANCH  12  15
ENDBRANCH   6  11
ENDBRANCH   1   5
BRANCH   2  22
HETATM   22  C   UNL     1      44.174 -11.511   7.335  1.00  0.00     0.329 C 
HETATM   23  N   UNL     1      43.583 -12.757   7.455  1.00  0.00    -0.239 N 
HETATM   24  H   UNL     1      43.364 -13.088   8.394  1.00  0.00     0.192 HD
HETATM   25  O   UNL     1      44.509 -10.935   6.311  1.00  0.00    -0.261 OA
BRANCH  23  26
HETATM   26  N   UNL     1      43.349 -13.529   6.361  1.00  0.00    -0.183 NA
HETATM   27  C   UNL     1      43.559 -14.797   6.530  1.00  0.00     0.153 C 
BRANCH  27  28
HETATM   28  C   UNL     1      43.379 -15.754   5.422  1.00  0.00     0.016 A 
HETATM   29  C   UNL     1      42.431 -15.555   4.410  1.00  0.00     0.080 A 
HETATM   30  C   UNL     1      42.311 -16.471   3.367  1.00  0.00     0.074 A 
HETATM   31  C   UNL     1      43.134 -17.592   3.348  1.00  0.00     0.068 A 
HETATM   32  C   UNL     1      44.075 -17.808   4.351  1.00  0.00     0.037 A 
HETATM   33  C   UNL     1      44.203 -16.886   5.392  1.00  0.00     0.018 A 
BRANCH  29  34
HETATM   34  O   UNL     1      41.590 -14.476   4.371  1.00  0.00    -0.360 OA
HETATM   35  H   UNL     1      40.976 -14.590   3.609  1.00  0.00     0.217 HD
ENDBRANCH  29  34
BRANCH  31  36
HETATM   36  O   UNL     1      43.052 -18.516   2.350  1.00  0.00    -0.361 OA
HETATM   37  H   UNL     1      43.579 -19.294   2.603  1.00  0.00     0.217 HD
ENDBRANCH  31  36
ENDBRANCH  27  28
ENDBRANCH  23  26
ENDBRANCH   2  22
TORSDOF 8
ENDMDL
