MODEL 1
REMARK VINA RESULT:      -7.2      0.000      0.000
REMARK  9 active torsions:
REMARK  status: ('A' for Active; 'I' for Inactive)
REMARK    1  A    between atoms: C_2  and  O_3 
REMARK    2  A    between atoms: O_3  and  C_4 
REMARK    3  A    between atoms: C_4  and  C_5 
REMARK    4  A    between atoms: C_11  and  O_12 
REMARK    5  A    between atoms: C_13  and  C_14 
REMARK    6  A    between atoms: C_14  and  N_15 
REMARK    7  A    between atoms: N_19  and  C_20 
REMARK    8  A    between atoms: C_26  and  C_27 
REMARK    9  A    between atoms: C_27  and  N_28 
ROOT
HETATM    1  C   UNL     1      41.138 -11.237   0.757  1.00  0.00     0.077 A 
HETATM    2  C   UNL     1      40.285 -11.968  -0.183  1.00  0.00     0.020 A 
HETATM    3  C   UNL     1      40.479 -13.327   0.099  1.00  0.00     0.053 A 
HETATM    4  C   UNL     1      39.881 -14.355  -0.657  1.00  0.00     0.053 A 
HETATM    5  C   UNL     1      39.139 -14.014  -1.775  1.00  0.00     0.047 A 
HETATM    6 BR   UNL     1      38.422 -15.399  -2.850  1.00  0.00    -0.048 Br
HETATM    7  C   UNL     1      38.924 -12.677  -2.090  1.00  0.00     0.092 A 
HETATM    8  C   UNL     1      39.408 -11.614  -1.283  1.00  0.00     0.016 A 
HETATM    9  N   UNL     1      41.294 -13.438   1.218  1.00  0.00    -0.312 N 
HETATM   10  C   UNL     1      41.737 -12.182   1.610  1.00  0.00     0.060 A 
ENDROOT
BRANCH  10  11
HETATM   11  C   UNL     1      42.841 -12.042   2.627  1.00  0.00     0.293 C 
BRANCH  11  12
HETATM   12  N   UNL     1      42.380 -11.895   4.050  1.00  0.00    -0.062 N 
HETATM   13  H   UNL     1      41.394 -12.187   4.058  1.00  0.00     0.280 HD
HETATM   14  C   UNL     1      43.140 -12.739   5.058  1.00  0.00     0.261 C 
HETATM   15  C   UNL     1      42.547 -12.520   6.455  1.00  0.00     0.195 C 
HETATM   16  O   UNL     1      42.595 -11.138   6.818  1.00  0.00    -0.388 OA
HETATM   17  C   UNL     1      41.848 -10.317   5.916  1.00  0.00     0.195 C 
HETATM   18  C   UNL     1      42.400 -10.428   4.491  1.00  0.00     0.261 C 
ENDBRANCH  11  12
ENDBRANCH  10  11
BRANCH   1  19
HETATM   19  C   UNL     1      41.412  -9.788   0.747  1.00  0.00     0.296 C 
HETATM   20  O   UNL     1      40.894  -9.006   1.528  1.00  0.00    -0.259 OA
BRANCH  19  21
HETATM   21  O   UNL     1      42.300  -9.401  -0.221  1.00  0.00    -0.318 OA
BRANCH  21  22
HETATM   22  C   UNL     1      42.138  -8.047  -0.699  1.00  0.00     0.174 C 
HETATM   23  C   UNL     1      43.210  -7.694  -1.716  1.00  0.00     0.034 C 
ENDBRANCH  21  22
ENDBRANCH  19  21
ENDBRANCH   1  19
BRANCH   9  24
HETATM   24  C   UNL     1      41.680 -14.671   1.801  1.00  0.00     0.040 A 
HETATM   25  C   UNL     1      42.823 -15.328   1.331  1.00  0.00     0.030 A 
HETATM   26  C   UNL     1      43.203 -16.537   1.914  1.00  0.00     0.002 A 
HETATM   27  C   UNL     1      42.445 -17.085   2.948  1.00  0.00     0.000 A 
HETATM   28  C   UNL     1      41.298 -16.432   3.403  1.00  0.00     0.002 A 
HETATM   29  C   UNL     1      40.909 -15.221   2.830  1.00  0.00     0.030 A 
ENDBRANCH   9  24
BRANCH   8  30
HETATM   30  C   UNL     1      39.060 -10.175  -1.645  1.00  0.00     0.276 C 
BRANCH  30  31
HETATM   31  N   UNL     1      39.461  -9.676  -3.019  1.00  0.00    -0.075 N 
HETATM   32  H   UNL     1      38.801 -10.144  -3.663  1.00  0.00     0.279 HD
HETATM   33  C   UNL     1      39.263  -8.204  -3.206  1.00  0.00     0.269 C 
HETATM   34  C   UNL     1      40.840 -10.113  -3.405  1.00  0.00     0.269 C 
ENDBRANCH  30  31
ENDBRANCH   8  30
BRANCH   7  35
HETATM   35  O   UNL     1      38.217 -12.366  -3.234  1.00  0.00    -0.359 OA
HETATM   36  H   UNL     1      38.025 -11.401  -3.197  1.00  0.00     0.218 HD
ENDBRANCH   7  35
TORSDOF 9
ENDMDL
MODEL 2
REMARK VINA RESULT:      -7.1      0.973      1.739
REMARK  9 active torsions:
REMARK  status: ('A' for Active; 'I' for Inactive)
REMARK    1  A    between atoms: C_2  and  O_3 
REMARK    2  A    between atoms: O_3  and  C_4 
REMARK    3  A    between atoms: C_4  and  C_5 
REMARK    4  A    between atoms: C_11  and  O_12 
REMARK    5  A    between atoms: C_13  and  C_14 
REMARK    6  A    between atoms: C_14  and  N_15 
REMARK    7  A    between atoms: N_19  and  C_20 
REMARK    8  A    between atoms: C_26  and  C_27 
REMARK    9  A    between atoms: C_27  and  N_28 
ROOT
HETATM    1  C   UNL     1      41.194 -11.242   0.859  1.00  0.00     0.077 A 
HETATM    2  C   UNL     1      40.363 -11.951  -0.118  1.00  0.00     0.020 A 
HETATM    3  C   UNL     1      40.535 -13.316   0.151  1.00  0.00     0.053 A 
HETATM    4  C   UNL     1      39.950 -14.327  -0.637  1.00  0.00     0.053 A 
HETATM    5  C   UNL     1      39.247 -13.963  -1.773  1.00  0.00     0.047 A 
HETATM    6 BR   UNL     1      38.549 -15.325  -2.889  1.00  0.00    -0.048 Br
HETATM    7  C   UNL     1      39.055 -12.620  -2.076  1.00  0.00     0.092 A 
HETATM    8  C   UNL     1      39.525 -11.572  -1.239  1.00  0.00     0.016 A 
HETATM    9  N   UNL     1      41.313 -13.451   1.293  1.00  0.00    -0.312 N 
HETATM   10  C   UNL     1      41.757 -12.205   1.716  1.00  0.00     0.060 A 
ENDROOT
BRANCH  10  11
HETATM   11  C   UNL     1      42.830 -12.092   2.769  1.00  0.00     0.293 C 
BRANCH  11  12
HETATM   12  N   UNL     1      42.452 -11.282   3.977  1.00  0.00    -0.062 N 
HETATM   13  H   UNL     1      42.481 -10.299   3.678  1.00  0.00     0.280 HD
HETATM   14  C   UNL     1      41.071 -11.575   4.536  1.00  0.00     0.261 C 
HETATM   15  C   UNL     1      40.802 -10.661   5.736  1.00  0.00     0.195 C 
HETATM   16  O   UNL     1      41.799 -10.838   6.745  1.00  0.00    -0.388 OA
HETATM   17  C   UNL     1      43.111 -10.524   6.268  1.00  0.00     0.195 C 
HETATM   18  C   UNL     1      43.495 -11.426   5.090  1.00  0.00     0.261 C 
ENDBRANCH  11  12
ENDBRANCH  10  11
BRANCH   1  19
HETATM   19  C   UNL     1      41.483  -9.797   0.878  1.00  0.00     0.296 C 
HETATM   20  O   UNL     1      42.166  -9.242   0.031  1.00  0.00    -0.259 OA
BRANCH  19  21
HETATM   21  O   UNL     1      40.916  -9.133   1.932  1.00  0.00    -0.318 OA
BRANCH  21  22
HETATM   22  C   UNL     1      39.543  -8.729   1.740  1.00  0.00     0.174 C 
HETATM   23  C   UNL     1      38.627  -9.401   2.748  1.00  0.00     0.034 C 
ENDBRANCH  21  22
ENDBRANCH  19  21
ENDBRANCH   1  19
BRANCH   9  24
HETATM   24  C   UNL     1      41.668 -14.696   1.870  1.00  0.00     0.040 A 
HETATM   25  C   UNL     1      42.796 -15.378   1.400  1.00  0.00     0.030 A 
HETATM   26  C   UNL     1      43.146 -16.598   1.977  1.00  0.00     0.002 A 
HETATM   27  C   UNL     1      42.372 -17.134   3.007  1.00  0.00     0.000 A 
HETATM   28  C   UNL     1      41.240 -16.456   3.461  1.00  0.00     0.002 A 
HETATM   29  C   UNL     1      40.881 -15.234   2.894  1.00  0.00     0.030 A 
ENDBRANCH   9  24
BRANCH   8  30
HETATM   30  C   UNL     1      39.204 -10.125  -1.592  1.00  0.00     0.276 C 
BRANCH  30  31
HETATM   31  N   UNL     1      40.301  -9.291  -2.222  1.00  0.00    -0.075 N 
HETATM   32  H   UNL     1      41.108  -9.406  -1.584  1.00  0.00     0.279 HD
HETATM   33  C   UNL     1      40.746  -9.795  -3.560  1.00  0.00     0.269 C 
HETATM   34  C   UNL     1      39.965  -7.833  -2.252  1.00  0.00     0.269 C 
ENDBRANCH  30  31
ENDBRANCH   8  30
BRANCH   7  35
HETATM   35  O   UNL     1      38.388 -12.285  -3.236  1.00  0.00    -0.359 OA
HETATM   36  H   UNL     1      38.957 -11.642  -3.718  1.00  0.00     0.218 HD
ENDBRANCH   7  35
TORSDOF 9
ENDMDL
MODEL 3
REMARK VINA RESULT:      -6.8      3.006      6.736
REMARK  9 active torsions:
REMARK  status: ('A' for Active; 'I' for Inactive)
REMARK    1  A    between atoms: C_2  and  O_3 
REMARK    2  A    between atoms: O_3  and  C_4 
REMARK    3  A    between atoms: C_4  and  C_5 
REMARK    4  A    between atoms: C_11  and  O_12 
REMARK    5  A    between atoms: C_13  and  C_14 
REMARK    6  A    between atoms: C_14  and  N_15 
REMARK    7  A    between atoms: N_19  and  C_20 
REMARK    8  A    between atoms: C_26  and  C_27 
REMARK    9  A    between atoms: C_27  and  N_28 
ROOT
HETATM    1  C   UNL     1      40.110 -13.034   3.758  1.00  0.00     0.077 A 
HETATM    2  C   UNL     1      40.966 -14.221   3.698  1.00  0.00     0.020 A 
HETATM    3  C   UNL     1      41.017 -14.590   2.346  1.00  0.00     0.053 A 
HETATM    4  C   UNL     1      41.688 -15.744   1.896  1.00  0.00     0.053 A 
HETATM    5  C   UNL     1      42.248 -16.596   2.832  1.00  0.00     0.047 A 
HETATM    6 BR   UNL     1      43.059 -18.200   2.235  1.00  0.00    -0.048 Br
HETATM    7  C   UNL     1      42.216 -16.269   4.183  1.00  0.00     0.092 A 
HETATM    8  C   UNL     1      41.657 -15.054   4.663  1.00  0.00     0.016 A 
HETATM    9  N   UNL     1      40.351 -13.629   1.597  1.00  0.00    -0.312 N 
HETATM   10  C   UNL     1      39.758 -12.696   2.438  1.00  0.00     0.060 A 
ENDROOT
BRANCH  10  11
HETATM   11  C   UNL     1      38.757 -11.706   1.899  1.00  0.00     0.293 C 
BRANCH  11  12
HETATM   12  N   UNL     1      39.014 -10.274   2.275  1.00  0.00    -0.062 N 
HETATM   13  H   UNL     1      38.959 -10.238   3.301  1.00  0.00     0.280 HD
HETATM   14  C   UNL     1      40.367  -9.734   1.846  1.00  0.00     0.261 C 
HETATM   15  C   UNL     1      40.511  -8.284   2.321  1.00  0.00     0.195 C 
HETATM   16  O   UNL     1      39.457  -7.470   1.800  1.00  0.00    -0.388 OA
HETATM   17  C   UNL     1      38.167  -7.921   2.223  1.00  0.00     0.195 C 
HETATM   18  C   UNL     1      37.907  -9.355   1.750  1.00  0.00     0.261 C 
ENDBRANCH  11  12
ENDBRANCH  10  11
BRANCH   1  19
HETATM   19  C   UNL     1      39.612 -12.374   4.979  1.00  0.00     0.296 C 
HETATM   20  O   UNL     1      38.942 -12.950   5.821  1.00  0.00    -0.259 OA
BRANCH  19  21
HETATM   21  O   UNL     1      39.969 -11.056   5.079  1.00  0.00    -0.318 OA
BRANCH  21  22
HETATM   22  C   UNL     1      41.169 -10.799   5.842  1.00  0.00     0.174 C 
HETATM   23  C   UNL     1      42.344 -10.498   4.928  1.00  0.00     0.034 C 
ENDBRANCH  21  22
ENDBRANCH  19  21
ENDBRANCH   1  19
BRANCH   9  24
HETATM   24  C   UNL     1      40.226 -13.667   0.185  1.00  0.00     0.040 A 
HETATM   25  C   UNL     1      39.496 -14.700  -0.415  1.00  0.00     0.030 A 
HETATM   26  C   UNL     1      39.370 -14.728  -1.804  1.00  0.00     0.002 A 
HETATM   27  C   UNL     1      39.972 -13.740  -2.582  1.00  0.00     0.000 A 
HETATM   28  C   UNL     1      40.710 -12.721  -1.978  1.00  0.00     0.002 A 
HETATM   29  C   UNL     1      40.842 -12.680  -0.591  1.00  0.00     0.030 A 
ENDBRANCH   9  24
BRANCH   8  30
HETATM   30  C   UNL     1      41.734 -14.725   6.149  1.00  0.00     0.276 C 
BRANCH  30  31
HETATM   31  N   UNL     1      43.098 -14.752   6.808  1.00  0.00    -0.075 N 
HETATM   32  H   UNL     1      43.681 -15.318   6.167  1.00  0.00     0.279 HD
HETATM   33  C   UNL     1      43.751 -13.408   6.895  1.00  0.00     0.269 C 
HETATM   34  C   UNL     1      43.080 -15.457   8.129  1.00  0.00     0.269 C 
ENDBRANCH  30  31
ENDBRANCH   8  30
BRANCH   7  35
HETATM   35  O   UNL     1      42.743 -17.157   5.099  1.00  0.00    -0.359 OA
HETATM   36  H   UNL     1      43.171 -17.879   4.583  1.00  0.00     0.218 HD
ENDBRANCH   7  35
TORSDOF 9
ENDMDL
MODEL 4
REMARK VINA RESULT:      -6.7      2.917      6.218
REMARK  9 active torsions:
REMARK  status: ('A' for Active; 'I' for Inactive)
REMARK    1  A    between atoms: C_2  and  O_3 
REMARK    2  A    between atoms: O_3  and  C_4 
REMARK    3  A    between atoms: C_4  and  C_5 
REMARK    4  A    between atoms: C_11  and  O_12 
REMARK    5  A    between atoms: C_13  and  C_14 
REMARK    6  A    between atoms: C_14  and  N_15 
REMARK    7  A    between atoms: N_19  and  C_20 
REMARK    8  A    between atoms: C_26  and  C_27 
REMARK    9  A    between atoms: C_27  and  N_28 
ROOT
HETATM    1  C   UNL     1      40.066 -11.485   2.399  1.00  0.00     0.077 A 
HETATM    2  C   UNL     1      40.980 -11.234   3.516  1.00  0.00     0.020 A 
HETATM    3  C   UNL     1      41.709 -12.418   3.690  1.00  0.00     0.053 A 
HETATM    4  C   UNL     1      42.643 -12.592   4.731  1.00  0.00     0.053 A 
HETATM    5  C   UNL     1      42.787 -11.586   5.671  1.00  0.00     0.047 A 
HETATM    6 BR   UNL     1      43.966 -11.862   7.128  1.00  0.00    -0.048 Br
HETATM    7  C   UNL     1      42.081 -10.396   5.536  1.00  0.00     0.092 A 
HETATM    8  C   UNL     1      41.223 -10.137   4.433  1.00  0.00     0.016 A 
HETATM    9  N   UNL     1      41.370 -13.303   2.676  1.00  0.00    -0.312 N 
HETATM   10  C   UNL     1      40.345 -12.772   1.903  1.00  0.00     0.060 A 
ENDROOT
BRANCH  10  11
HETATM   11  C   UNL     1      39.612 -13.633   0.907  1.00  0.00     0.293 C 
BRANCH  11  12
HETATM   12  N   UNL     1      39.637 -13.130  -0.508  1.00  0.00    -0.062 N 
HETATM   13  H   UNL     1      38.945 -12.371  -0.550  1.00  0.00     0.280 HD
HETATM   14  C   UNL     1      40.978 -12.586  -0.968  1.00  0.00     0.261 C 
HETATM   15  C   UNL     1      40.854 -12.077  -2.409  1.00  0.00     0.195 C 
HETATM   16  O   UNL     1      40.409 -13.120  -3.281  1.00  0.00    -0.388 OA
HETATM   17  C   UNL     1      39.125 -13.625  -2.906  1.00  0.00     0.195 C 
HETATM   18  C   UNL     1      39.158 -14.206  -1.488  1.00  0.00     0.261 C 
ENDBRANCH  11  12
ENDBRANCH  10  11
BRANCH   1  19
HETATM   19  C   UNL     1      38.976 -10.603   1.944  1.00  0.00     0.296 C 
HETATM   20  O   UNL     1      37.997 -10.347   2.628  1.00  0.00    -0.259 OA
BRANCH  19  21
HETATM   21  O   UNL     1      39.161 -10.100   0.685  1.00  0.00    -0.318 OA
BRANCH  21  22
HETATM   22  C   UNL     1      37.996  -9.491   0.086  1.00  0.00     0.174 C 
HETATM   23  C   UNL     1      37.424 -10.368  -1.014  1.00  0.00     0.034 C 
ENDBRANCH  21  22
ENDBRANCH  19  21
ENDBRANCH   1  19
BRANCH   9  24
HETATM   24  C   UNL     1      41.934 -14.595   2.526  1.00  0.00     0.040 A 
HETATM   25  C   UNL     1      41.385 -15.674   3.227  1.00  0.00     0.030 A 
HETATM   26  C   UNL     1      41.939 -16.944   3.070  1.00  0.00     0.002 A 
HETATM   27  C   UNL     1      43.034 -17.131   2.227  1.00  0.00     0.000 A 
HETATM   28  C   UNL     1      43.587 -16.048   1.541  1.00  0.00     0.002 A 
HETATM   29  C   UNL     1      43.041 -14.773   1.688  1.00  0.00     0.030 A 
ENDBRANCH   9  24
BRANCH   8  30
HETATM   30  C   UNL     1      40.548  -8.777   4.309  1.00  0.00     0.276 C 
BRANCH  30  31
HETATM   31  N   UNL     1      41.273  -7.697   3.531  1.00  0.00    -0.075 N 
HETATM   32  H   UNL     1      42.154  -8.147   3.229  1.00  0.00     0.279 HD
HETATM   33  C   UNL     1      40.564  -7.276   2.281  1.00  0.00     0.269 C 
HETATM   34  C   UNL     1      41.645  -6.527   4.389  1.00  0.00     0.269 C 
ENDBRANCH  30  31
ENDBRANCH   8  30
BRANCH   7  35
HETATM   35  O   UNL     1      42.211  -9.428   6.510  1.00  0.00    -0.359 OA
HETATM   36  H   UNL     1      41.339  -9.360   6.963  1.00  0.00     0.218 HD
ENDBRANCH   7  35
TORSDOF 9
ENDMDL
MODEL 5
REMARK VINA RESULT:      -6.6     17.716     20.208
REMARK  9 active torsions:
REMARK  status: ('A' for Active; 'I' for Inactive)
REMARK    1  A    between atoms: C_2  and  O_3 
REMARK    2  A    between atoms: O_3  and  C_4 
REMARK    3  A    between atoms: C_4  and  C_5 
REMARK    4  A    between atoms: C_11  and  O_12 
REMARK    5  A    between atoms: C_13  and  C_14 
REMARK    6  A    between atoms: C_14  and  N_15 
REMARK    7  A    between atoms: N_19  and  C_20 
REMARK    8  A    between atoms: C_26  and  C_27 
REMARK    9  A    between atoms: C_27  and  N_28 
ROOT
HETATM    1  C   UNL     1      47.732 -29.465   1.320  1.00  0.00     0.077 A 
HETATM    2  C   UNL     1      48.771 -29.979   0.422  1.00  0.00     0.020 A 
HETATM    3  C   UNL     1      48.177 -30.062  -0.845  1.00  0.00     0.053 A 
HETATM    4  C   UNL     1      48.845 -30.591  -1.966  1.00  0.00     0.053 A 
HETATM    5  C   UNL     1      50.109 -31.131  -1.795  1.00  0.00     0.047 A 
HETATM    6 BR   UNL     1      50.965 -31.936  -3.280  1.00  0.00    -0.048 Br
HETATM    7  C   UNL     1      50.732 -31.071  -0.554  1.00  0.00     0.092 A 
HETATM    8  C   UNL     1      50.139 -30.435   0.570  1.00  0.00     0.016 A 
HETATM    9  N   UNL     1      46.902 -29.518  -0.776  1.00  0.00    -0.312 N 
HETATM   10  C   UNL     1      46.596 -29.186   0.538  1.00  0.00     0.060 A 
ENDROOT
BRANCH  10  11
HETATM   11  C   UNL     1      45.185 -28.828   0.929  1.00  0.00     0.293 C 
BRANCH  11  12
HETATM   12  N   UNL     1      44.511 -29.811   1.845  1.00  0.00    -0.062 N 
HETATM   13  H   UNL     1      45.090 -29.848   2.694  1.00  0.00     0.280 HD
HETATM   14  C   UNL     1      43.093 -29.442   2.245  1.00  0.00     0.261 C 
HETATM   15  C   UNL     1      42.541 -30.505   3.202  1.00  0.00     0.195 C 
HETATM   16  O   UNL     1      42.572 -31.800   2.597  1.00  0.00    -0.388 OA
HETATM   17  C   UNL     1      43.900 -32.202   2.250  1.00  0.00     0.195 C 
HETATM   18  C   UNL     1      44.524 -31.223   1.251  1.00  0.00     0.261 C 
ENDBRANCH  11  12
ENDBRANCH  10  11
BRANCH   1  19
HETATM   19  C   UNL     1      47.816 -29.364   2.788  1.00  0.00     0.296 C 
HETATM   20  O   UNL     1      48.397 -28.456   3.361  1.00  0.00    -0.259 OA
BRANCH  19  21
HETATM   21  O   UNL     1      47.182 -30.381   3.449  1.00  0.00    -0.318 OA
BRANCH  21  22
HETATM   22  C   UNL     1      47.327 -30.366   4.886  1.00  0.00     0.174 C 
HETATM   23  C   UNL     1      47.606 -31.760   5.423  1.00  0.00     0.034 C 
ENDBRANCH  21  22
ENDBRANCH  19  21
ENDBRANCH   1  19
BRANCH   9  24
HETATM   24  C   UNL     1      46.020 -29.414  -1.881  1.00  0.00     0.040 A 
HETATM   25  C   UNL     1      45.241 -30.517  -2.248  1.00  0.00     0.030 A 
HETATM   26  C   UNL     1      44.370 -30.407  -3.332  1.00  0.00     0.002 A 
HETATM   27  C   UNL     1      44.284 -29.211  -4.043  1.00  0.00     0.000 A 
HETATM   28  C   UNL     1      45.074 -28.118  -3.681  1.00  0.00     0.002 A 
HETATM   29  C   UNL     1      45.948 -28.215  -2.598  1.00  0.00     0.030 A 
ENDBRANCH   9  24
BRANCH   8  30
HETATM   30  C   UNL     1      50.918 -30.334   1.876  1.00  0.00     0.276 C 
BRANCH  30  31
HETATM   31  N   UNL     1      50.392 -31.099   3.073  1.00  0.00    -0.075 N 
HETATM   32  H   UNL     1      49.404 -30.802   3.151  1.00  0.00     0.279 HD
HETATM   33  C   UNL     1      50.373 -32.583   2.879  1.00  0.00     0.269 C 
HETATM   34  C   UNL     1      51.074 -30.705   4.347  1.00  0.00     0.269 C 
ENDBRANCH  30  31
ENDBRANCH   8  30
BRANCH   7  35
HETATM   35  O   UNL     1      51.973 -31.654  -0.400  1.00  0.00    -0.359 OA
HETATM   36  H   UNL     1      51.819 -32.578  -0.095  1.00  0.00     0.218 HD
ENDBRANCH   7  35
TORSDOF 9
ENDMDL
MODEL 6
REMARK VINA RESULT:      -6.5      4.562      8.396
REMARK  9 active torsions:
REMARK  status: ('A' for Active; 'I' for Inactive)
REMARK    1  A    between atoms: C_2  and  O_3 
REMARK    2  A    between atoms: O_3  and  C_4 
REMARK    3  A    between atoms: C_4  and  C_5 
REMARK    4  A    between atoms: C_11  and  O_12 
REMARK    5  A    between atoms: C_13  and  C_14 
REMARK    6  A    between atoms: C_14  and  N_15 
REMARK    7  A    between atoms: N_19  and  C_20 
REMARK    8  A    between atoms: C_26  and  C_27 
REMARK    9  A    between atoms: C_27  and  N_28 
ROOT
HETATM    1  C   UNL     1      42.826 -11.134   6.598  1.00  0.00     0.077 A 
HETATM    2  C   UNL     1      41.845 -10.084   6.885  1.00  0.00     0.020 A 
HETATM    3  C   UNL     1      40.939 -10.103   5.816  1.00  0.00     0.053 A 
HETATM    4  C   UNL     1      39.886  -9.175   5.694  1.00  0.00     0.053 A 
HETATM    5  C   UNL     1      39.790  -8.151   6.620  1.00  0.00     0.047 A 
HETATM    6 BR   UNL     1      38.436  -6.844   6.398  1.00  0.00    -0.048 Br
HETATM    7  C   UNL     1      40.670  -8.095   7.694  1.00  0.00     0.092 A 
HETATM    8  C   UNL     1      41.668  -9.082   7.918  1.00  0.00     0.016 A 
HETATM    9  N   UNL     1      41.251 -11.170   4.985  1.00  0.00    -0.312 N 
HETATM   10  C   UNL     1      42.418 -11.786   5.420  1.00  0.00     0.060 A 
ENDROOT
BRANCH  10  11
HETATM   11  C   UNL     1      43.120 -12.797   4.550  1.00  0.00     0.293 C 
BRANCH  11  12
HETATM   12  N   UNL     1      42.681 -14.220   4.748  1.00  0.00    -0.062 N 
HETATM   13  H   UNL     1      41.679 -14.177   4.973  1.00  0.00     0.280 HD
HETATM   14  C   UNL     1      42.864 -15.119   3.538  1.00  0.00     0.261 C 
HETATM   15  C   UNL     1      42.346 -16.525   3.864  1.00  0.00     0.195 C 
HETATM   16  O   UNL     1      43.025 -17.067   5.000  1.00  0.00    -0.388 OA
HETATM   17  C   UNL     1      42.834 -16.270   6.173  1.00  0.00     0.195 C 
HETATM   18  C   UNL     1      43.370 -14.851   5.962  1.00  0.00     0.261 C 
ENDBRANCH  11  12
ENDBRANCH  10  11
BRANCH   1  19
HETATM   19  C   UNL     1      44.074 -11.392   7.339  1.00  0.00     0.296 C 
HETATM   20  O   UNL     1      44.109 -12.013   8.389  1.00  0.00    -0.259 OA
BRANCH  19  21
HETATM   21  O   UNL     1      45.190 -10.872   6.740  1.00  0.00    -0.318 OA
BRANCH  21  22
HETATM   22  C   UNL     1      46.274 -10.543   7.637  1.00  0.00     0.174 C 
HETATM   23  C   UNL     1      46.119  -9.137   8.190  1.00  0.00     0.034 C 
ENDBRANCH  21  22
ENDBRANCH  19  21
ENDBRANCH   1  19
BRANCH   9  24
HETATM   24  C   UNL     1      40.526 -11.507   3.815  1.00  0.00     0.040 A 
HETATM   25  C   UNL     1      39.571 -12.529   3.864  1.00  0.00     0.030 A 
HETATM   26  C   UNL     1      38.855 -12.850   2.711  1.00  0.00     0.002 A 
HETATM   27  C   UNL     1      39.096 -12.162   1.522  1.00  0.00     0.000 A 
HETATM   28  C   UNL     1      40.060 -11.154   1.475  1.00  0.00     0.002 A 
HETATM   29  C   UNL     1      40.781 -10.821   2.622  1.00  0.00     0.030 A 
ENDBRANCH   9  24
BRANCH   8  30
HETATM   30  C   UNL     1      42.541  -9.001   9.163  1.00  0.00     0.276 C 
BRANCH  30  31
HETATM   31  N   UNL     1      42.276  -9.992  10.278  1.00  0.00    -0.075 N 
HETATM   32  H   UNL     1      42.095 -10.885   9.789  1.00  0.00     0.279 HD
HETATM   33  C   UNL     1      43.458 -10.229  11.167  1.00  0.00     0.269 C 
HETATM   34  C   UNL     1      41.043  -9.658  11.059  1.00  0.00     0.269 C 
ENDBRANCH  30  31
ENDBRANCH   8  30
BRANCH   7  35
HETATM   35  O   UNL     1      40.580  -7.040   8.579  1.00  0.00    -0.359 OA
HETATM   36  H   UNL     1      41.098  -6.298   8.192  1.00  0.00     0.218 HD
ENDBRANCH   7  35
TORSDOF 9
ENDMDL
MODEL 7
REMARK VINA RESULT:      -6.5      3.415      6.348
REMARK  9 active torsions:
REMARK  status: ('A' for Active; 'I' for Inactive)
REMARK    1  A    between atoms: C_2  and  O_3 
REMARK    2  A    between atoms: O_3  and  C_4 
REMARK    3  A    between atoms: C_4  and  C_5 
REMARK    4  A    between atoms: C_11  and  O_12 
REMARK    5  A    between atoms: C_13  and  C_14 
REMARK    6  A    between atoms: C_14  and  N_15 
REMARK    7  A    between atoms: N_19  and  C_20 
REMARK    8  A    between atoms: C_26  and  C_27 
REMARK    9  A    between atoms: C_27  and  N_28 
ROOT
HETATM    1  C   UNL     1      40.974 -13.846   4.435  1.00  0.00     0.077 A 
HETATM    2  C   UNL     1      40.604 -13.788   3.019  1.00  0.00     0.020 A 
HETATM    3  C   UNL     1      40.234 -12.458   2.773  1.00  0.00     0.053 A 
HETATM    4  C   UNL     1      39.736 -12.024   1.529  1.00  0.00     0.053 A 
HETATM    5  C   UNL     1      39.524 -12.962   0.532  1.00  0.00     0.047 A 
HETATM    6 BR   UNL     1      38.759 -12.395  -1.105  1.00  0.00    -0.048 Br
HETATM    7  C   UNL     1      39.877 -14.291   0.736  1.00  0.00     0.092 A 
HETATM    8  C   UNL     1      40.494 -14.743   1.933  1.00  0.00     0.016 A 
HETATM    9  N   UNL     1      40.477 -11.710   3.916  1.00  0.00    -0.312 N 
HETATM   10  C   UNL     1      40.890 -12.540   4.950  1.00  0.00     0.060 A 
ENDROOT
BRANCH  10  11
HETATM   11  C   UNL     1      40.962 -12.023   6.365  1.00  0.00     0.293 C 
BRANCH  11  12
HETATM   12  N   UNL     1      42.351 -11.758   6.874  1.00  0.00    -0.062 N 
HETATM   13  H   UNL     1      42.446 -12.314   7.734  1.00  0.00     0.280 HD
HETATM   14  C   UNL     1      43.466 -12.151   5.921  1.00  0.00     0.261 C 
HETATM   15  C   UNL     1      44.821 -11.861   6.577  1.00  0.00     0.195 C 
HETATM   16  O   UNL     1      44.929 -10.481   6.936  1.00  0.00    -0.388 OA
HETATM   17  C   UNL     1      43.922 -10.087   7.872  1.00  0.00     0.195 C 
HETATM   18  C   UNL     1      42.521 -10.293   7.285  1.00  0.00     0.261 C 
ENDBRANCH  11  12
ENDBRANCH  10  11
BRANCH   1  19
HETATM   19  C   UNL     1      41.272 -15.063   5.213  1.00  0.00     0.296 C 
HETATM   20  O   UNL     1      40.416 -15.703   5.803  1.00  0.00    -0.259 OA
BRANCH  19  21
HETATM   21  O   UNL     1      42.597 -15.407   5.213  1.00  0.00    -0.318 OA
BRANCH  21  22
HETATM   22  C   UNL     1      42.927 -16.585   5.983  1.00  0.00     0.174 C 
HETATM   23  C   UNL     1      44.327 -17.077   5.657  1.00  0.00     0.034 C 
ENDBRANCH  21  22
ENDBRANCH  19  21
ENDBRANCH   1  19
BRANCH   9  24
HETATM   24  C   UNL     1      40.241 -10.315   4.019  1.00  0.00     0.040 A 
HETATM   25  C   UNL     1      41.306  -9.422   3.865  1.00  0.00     0.030 A 
HETATM   26  C   UNL     1      41.066  -8.051   3.960  1.00  0.00     0.002 A 
HETATM   27  C   UNL     1      39.778  -7.581   4.213  1.00  0.00     0.000 A 
HETATM   28  C   UNL     1      38.721  -8.478   4.380  1.00  0.00     0.002 A 
HETATM   29  C   UNL     1      38.948  -9.851   4.285  1.00  0.00     0.030 A 
ENDBRANCH   9  24
BRANCH   8  30
HETATM   30  C   UNL     1      40.929 -16.199   2.052  1.00  0.00     0.276 C 
BRANCH  30  31
HETATM   31  N   UNL     1      42.386 -16.477   2.360  1.00  0.00    -0.075 N 
HETATM   32  H   UNL     1      42.513 -16.133   3.328  1.00  0.00     0.279 HD
HETATM   33  C   UNL     1      42.729 -17.935   2.383  1.00  0.00     0.269 C 
HETATM   34  C   UNL     1      43.315 -15.694   1.486  1.00  0.00     0.269 C 
ENDBRANCH  30  31
ENDBRANCH   8  30
BRANCH   7  35
HETATM   35  O   UNL     1      39.614 -15.212  -0.257  1.00  0.00    -0.359 OA
HETATM   36  H   UNL     1      40.365 -15.168  -0.893  1.00  0.00     0.218 HD
ENDBRANCH   7  35
TORSDOF 9
ENDMDL
MODEL 8
REMARK VINA RESULT:      -6.4      3.505      8.148
REMARK  9 active torsions:
REMARK  status: ('A' for Active; 'I' for Inactive)
REMARK    1  A    between atoms: C_2  and  O_3 
REMARK    2  A    between atoms: O_3  and  C_4 
REMARK    3  A    between atoms: C_4  and  C_5 
REMARK    4  A    between atoms: C_11  and  O_12 
REMARK    5  A    between atoms: C_13  and  C_14 
REMARK    6  A    between atoms: C_14  and  N_15 
REMARK    7  A    between atoms: N_19  and  C_20 
REMARK    8  A    between atoms: C_26  and  C_27 
REMARK    9  A    between atoms: C_27  and  N_28 
ROOT
HETATM    1  C   UNL     1      40.799 -13.697   2.927  1.00  0.00     0.077 A 
HETATM    2  C   UNL     1      41.548 -13.215   4.090  1.00  0.00     0.020 A 
HETATM    3  C   UNL     1      41.294 -11.838   4.167  1.00  0.00     0.053 A 
HETATM    4  C   UNL     1      41.907 -11.002   5.120  1.00  0.00     0.053 A 
HETATM    5  C   UNL     1      42.865 -11.543   5.961  1.00  0.00     0.047 A 
HETATM    6 BR   UNL     1      43.765 -10.398   7.173  1.00  0.00    -0.048 Br
HETATM    7  C   UNL     1      43.148 -12.903   5.916  1.00  0.00     0.092 A 
HETATM    8  C   UNL     1      42.462 -13.799   5.053  1.00  0.00     0.016 A 
HETATM    9  N   UNL     1      40.352 -11.505   3.203  1.00  0.00    -0.312 N 
HETATM   10  C   UNL     1      40.067 -12.611   2.413  1.00  0.00     0.060 A 
ENDROOT
BRANCH  10  11
HETATM   11  C   UNL     1      39.284 -12.458   1.134  1.00  0.00     0.293 C 
BRANCH  11  12
HETATM   12  N   UNL     1      40.058 -12.739  -0.123  1.00  0.00    -0.062 N 
HETATM   13  H   UNL     1      40.932 -13.187   0.179  1.00  0.00     0.280 HD
HETATM   14  C   UNL     1      39.360 -13.659  -1.110  1.00  0.00     0.261 C 
HETATM   15  C   UNL     1      40.270 -13.888  -2.322  1.00  0.00     0.195 C 
HETATM   16  O   UNL     1      40.609 -12.647  -2.946  1.00  0.00    -0.388 OA
HETATM   17  C   UNL     1      41.312 -11.772  -2.059  1.00  0.00     0.195 C 
HETATM   18  C   UNL     1      40.459 -11.440  -0.830  1.00  0.00     0.261 C 
ENDBRANCH  11  12
ENDBRANCH  10  11
BRANCH   1  19
HETATM   19  C   UNL     1      40.879 -15.043   2.331  1.00  0.00     0.296 C 
HETATM   20  O   UNL     1      40.267 -16.004   2.769  1.00  0.00    -0.259 OA
BRANCH  19  21
HETATM   21  O   UNL     1      41.703 -15.116   1.240  1.00  0.00    -0.318 OA
BRANCH  21  22
HETATM   22  C   UNL     1      43.093 -15.379   1.535  1.00  0.00     0.174 C 
HETATM   23  C   UNL     1      43.308 -16.838   1.901  1.00  0.00     0.034 C 
ENDBRANCH  21  22
ENDBRANCH  19  21
ENDBRANCH   1  19
BRANCH   9  24
HETATM   24  C   UNL     1      39.840 -10.197   3.010  1.00  0.00     0.040 A 
HETATM   25  C   UNL     1      38.621  -9.839   3.598  1.00  0.00     0.030 A 
HETATM   26  C   UNL     1      38.126  -8.549   3.411  1.00  0.00     0.002 A 
HETATM   27  C   UNL     1      38.837  -7.631   2.639  1.00  0.00     0.000 A 
HETATM   28  C   UNL     1      40.045  -7.998   2.044  1.00  0.00     0.002 A 
HETATM   29  C   UNL     1      40.552  -9.284   2.225  1.00  0.00     0.030 A 
ENDBRANCH   9  24
BRANCH   8  30
HETATM   30  C   UNL     1      42.768 -15.290   5.118  1.00  0.00     0.276 C 
BRANCH  30  31
HETATM   31  N   UNL     1      42.428 -16.025   6.399  1.00  0.00    -0.075 N 
HETATM   32  H   UNL     1      42.904 -15.481   7.140  1.00  0.00     0.279 HD
HETATM   33  C   UNL     1      40.969 -16.007   6.735  1.00  0.00     0.269 C 
HETATM   34  C   UNL     1      42.997 -17.410   6.431  1.00  0.00     0.269 C 
ENDBRANCH  30  31
ENDBRANCH   8  30
BRANCH   7  35
HETATM   35  O   UNL     1      44.138 -13.407   6.735  1.00  0.00    -0.359 OA
HETATM   36  H   UNL     1      44.723 -12.653   6.974  1.00  0.00     0.218 HD
ENDBRANCH   7  35
TORSDOF 9
ENDMDL
MODEL 9
REMARK VINA RESULT:      -6.3      3.371      8.138
REMARK  9 active torsions:
REMARK  status: ('A' for Active; 'I' for Inactive)
REMARK    1  A    between atoms: C_2  and  O_3 
REMARK    2  A    between atoms: O_3  and  C_4 
REMARK    3  A    between atoms: C_4  and  C_5 
REMARK    4  A    between atoms: C_11  and  O_12 
REMARK    5  A    between atoms: C_13  and  C_14 
REMARK    6  A    between atoms: C_14  and  N_15 
REMARK    7  A    between atoms: N_19  and  C_20 
REMARK    8  A    between atoms: C_26  and  C_27 
REMARK    9  A    between atoms: C_27  and  N_28 
ROOT
HETATM    1  C   UNL     1      40.017 -13.269   2.457  1.00  0.00     0.077 A 
HETATM    2  C   UNL     1      39.714 -12.480   3.653  1.00  0.00     0.020 A 
HETATM    3  C   UNL     1      39.437 -11.183   3.198  1.00  0.00     0.053 A 
HETATM    4  C   UNL     1      39.174 -10.109   4.072  1.00  0.00     0.053 A 
HETATM    5  C   UNL     1      39.278 -10.320   5.436  1.00  0.00     0.047 A 
HETATM    6 BR   UNL     1      39.027  -8.852   6.607  1.00  0.00    -0.048 Br
HETATM    7  C   UNL     1      39.553 -11.591   5.928  1.00  0.00     0.092 A 
HETATM    8  C   UNL     1      39.702 -12.723   5.083  1.00  0.00     0.016 A 
HETATM    9  N   UNL     1      39.437 -11.188   1.810  1.00  0.00    -0.312 N 
HETATM   10  C   UNL     1      39.826 -12.436   1.339  1.00  0.00     0.060 A 
ENDROOT
BRANCH  10  11
HETATM   11  C   UNL     1      40.167 -12.632  -0.116  1.00  0.00     0.293 C 
BRANCH  11  12
HETATM   12  N   UNL     1      39.120 -13.347  -0.923  1.00  0.00    -0.062 N 
HETATM   13  H   UNL     1      38.517 -13.826  -0.241  1.00  0.00     0.280 HD
HETATM   14  C   UNL     1      38.253 -12.447  -1.784  1.00  0.00     0.261 C 
HETATM   15  C   UNL     1      37.211 -13.297  -2.522  1.00  0.00     0.195 C 
HETATM   16  O   UNL     1      37.845 -14.298  -3.321  1.00  0.00    -0.388 OA
HETATM   17  C   UNL     1      38.634 -15.196  -2.535  1.00  0.00     0.195 C 
HETATM   18  C   UNL     1      39.743 -14.443  -1.794  1.00  0.00     0.261 C 
ENDBRANCH  11  12
ENDBRANCH  10  11
BRANCH   1  19
HETATM   19  C   UNL     1      40.536 -14.648   2.426  1.00  0.00     0.296 C 
HETATM   20  O   UNL     1      39.821 -15.626   2.267  1.00  0.00    -0.259 OA
BRANCH  19  21
HETATM   21  O   UNL     1      41.892 -14.732   2.591  1.00  0.00    -0.318 OA
BRANCH  21  22
HETATM   22  C   UNL     1      42.595 -15.459   1.560  1.00  0.00     0.174 C 
HETATM   23  C   UNL     1      43.216 -16.731   2.111  1.00  0.00     0.034 C 
ENDBRANCH  21  22
ENDBRANCH  19  21
ENDBRANCH   1  19
BRANCH   9  24
HETATM   24  C   UNL     1      39.169 -10.049   1.010  1.00  0.00     0.040 A 
HETATM   25  C   UNL     1      37.857  -9.783   0.605  1.00  0.00     0.030 A 
HETATM   26  C   UNL     1      37.598  -8.657  -0.175  1.00  0.00     0.002 A 
HETATM   27  C   UNL     1      38.641  -7.811  -0.552  1.00  0.00     0.000 A 
HETATM   28  C   UNL     1      39.951  -8.089  -0.157  1.00  0.00     0.002 A 
HETATM   29  C   UNL     1      40.222  -9.212   0.625  1.00  0.00     0.030 A 
ENDBRANCH   9  24
BRANCH   8  30
HETATM   30  C   UNL     1      39.919 -14.099   5.699  1.00  0.00     0.276 C 
BRANCH  30  31
HETATM   31  N   UNL     1      41.170 -14.314   6.527  1.00  0.00    -0.075 N 
HETATM   32  H   UNL     1      40.988 -13.798   7.405  1.00  0.00     0.279 HD
HETATM   33  C   UNL     1      41.397 -15.741   6.916  1.00  0.00     0.269 C 
HETATM   34  C   UNL     1      42.383 -13.701   5.897  1.00  0.00     0.269 C 
ENDBRANCH  30  31
ENDBRANCH   8  30
BRANCH   7  35
HETATM   35  O   UNL     1      39.693 -11.764   7.290  1.00  0.00    -0.359 OA
HETATM   36  H   UNL     1      39.239 -11.005   7.723  1.00  0.00     0.218 HD
ENDBRANCH   7  35
TORSDOF 9
ENDMDL
MODEL 10
REMARK VINA RESULT:      -6.2      2.576      6.682
REMARK  9 active torsions:
REMARK  status: ('A' for Active; 'I' for Inactive)
REMARK    1  A    between atoms: C_2  and  O_3 
REMARK    2  A    between atoms: O_3  and  C_4 
REMARK    3  A    between atoms: C_4  and  C_5 
REMARK    4  A    between atoms: C_11  and  O_12 
REMARK    5  A    between atoms: C_13  and  C_14 
REMARK    6  A    between atoms: C_14  and  N_15 
REMARK    7  A    between atoms: N_19  and  C_20 
REMARK    8  A    between atoms: C_26  and  C_27 
REMARK    9  A    between atoms: C_27  and  N_28 
ROOT
HETATM    1  C   UNL     1      41.063 -12.163   3.112  1.00  0.00     0.077 A 
HETATM    2  C   UNL     1      41.827 -13.413   3.135  1.00  0.00     0.020 A 
HETATM    3  C   UNL     1      41.604 -14.022   1.892  1.00  0.00     0.053 A 
HETATM    4  C   UNL     1      42.114 -15.294   1.565  1.00  0.00     0.053 A 
HETATM    5  C   UNL     1      42.792 -16.010   2.537  1.00  0.00     0.047 A 
HETATM    6 BR   UNL     1      43.389 -17.761   2.130  1.00  0.00    -0.048 Br
HETATM    7  C   UNL     1      43.033 -15.442   3.783  1.00  0.00     0.092 A 
HETATM    8  C   UNL     1      42.640 -14.116   4.108  1.00  0.00     0.016 A 
HETATM    9  N   UNL     1      40.862 -13.158   1.099  1.00  0.00    -0.312 N 
HETATM   10  C   UNL     1      40.489 -12.040   1.834  1.00  0.00     0.060 A 
ENDROOT
BRANCH  10  11
HETATM   11  C   UNL     1      39.460 -11.078   1.295  1.00  0.00     0.293 C 
BRANCH  11  12
HETATM   12  N   UNL     1      40.021  -9.866   0.608  1.00  0.00    -0.062 N 
HETATM   13  H   UNL     1      40.988 -10.108   0.354  1.00  0.00     0.280 HD
HETATM   14  C   UNL     1      39.283  -9.447  -0.652  1.00  0.00     0.261 C 
HETATM   15  C   UNL     1      39.978  -8.227  -1.267  1.00  0.00     0.195 C 
HETATM   16  O   UNL     1      40.031  -7.145  -0.333  1.00  0.00    -0.388 OA
HETATM   17  C   UNL     1      40.762  -7.489   0.848  1.00  0.00     0.195 C 
HETATM   18  C   UNL     1      40.112  -8.675   1.567  1.00  0.00     0.261 C 
ENDBRANCH  11  12
ENDBRANCH  10  11
BRANCH   1  19
HETATM   19  C   UNL     1      40.840 -11.252   4.249  1.00  0.00     0.296 C 
HETATM   20  O   UNL     1      41.637 -10.388   4.578  1.00  0.00    -0.259 OA
BRANCH  19  21
HETATM   21  O   UNL     1      39.656 -11.465   4.904  1.00  0.00    -0.318 OA
BRANCH  21  22
HETATM   22  C   UNL     1      39.126 -10.321   5.608  1.00  0.00     0.174 C 
HETATM   23  C   UNL     1      38.266  -9.465   4.694  1.00  0.00     0.034 C 
ENDBRANCH  21  22
ENDBRANCH  19  21
ENDBRANCH   1  19
BRANCH   9  24
HETATM   24  C   UNL     1      40.471 -13.439  -0.234  1.00  0.00     0.040 A 
HETATM   25  C   UNL     1      41.018 -12.694  -1.285  1.00  0.00     0.030 A 
HETATM   26  C   UNL     1      40.636 -12.980  -2.596  1.00  0.00     0.002 A 
HETATM   27  C   UNL     1      39.713 -13.994  -2.851  1.00  0.00     0.000 A 
HETATM   28  C   UNL     1      39.161 -14.725  -1.798  1.00  0.00     0.002 A 
HETATM   29  C   UNL     1      39.536 -14.450  -0.483  1.00  0.00     0.030 A 
ENDBRANCH   9  24
BRANCH   8  30
HETATM   30  C   UNL     1      43.013 -13.532   5.465  1.00  0.00     0.276 C 
BRANCH  30  31
HETATM   31  N   UNL     1      42.196 -13.960   6.667  1.00  0.00    -0.075 N 
HETATM   32  H   UNL     1      42.056 -13.088   7.205  1.00  0.00     0.279 HD
HETATM   33  C   UNL     1      40.830 -14.464   6.318  1.00  0.00     0.269 C 
HETATM   34  C   UNL     1      42.938 -14.912   7.553  1.00  0.00     0.269 C 
ENDBRANCH  30  31
ENDBRANCH   8  30
BRANCH   7  35
HETATM   35  O   UNL     1      43.673 -16.194   4.747  1.00  0.00    -0.359 OA
HETATM   36  H   UNL     1      43.323 -15.898   5.619  1.00  0.00     0.218 HD
ENDBRANCH   7  35
TORSDOF 9
ENDMDL
