MODEL 1
REMARK VINA RESULT:      -9.3      0.000      0.000
REMARK  4 active torsions:
REMARK  status: ('A' for Active; 'I' for Inactive)
REMARK    1  A    between atoms: C_6  and  C_7 
REMARK    2  A    between atoms: C_7  and  N_8 
REMARK    3  A    between atoms: C_11  and  C_12 
REMARK    4  A    between atoms: C_12  and  C_13 
ROOT
HETATM    1  N   UNL     1      41.400 -13.995   5.008  1.00  0.00    -0.064 N 
HETATM    2  H   UNL     1      40.889 -14.330   4.174  1.00  0.00     0.280 HD
HETATM    3  C   UNL     1      42.690 -14.791   5.059  1.00  0.00     0.247 C 
HETATM    4  C   UNL     1      42.364 -16.283   5.187  1.00  0.00     0.086 C 
HETATM    5  C   UNL     1      41.504 -16.527   6.430  1.00  0.00     0.016 C 
HETATM    6  C   UNL     1      40.242 -15.668   6.403  1.00  0.00     0.029 C 
HETATM    7  C   UNL     1      40.554 -14.189   6.229  1.00  0.00     0.235 C 
ENDROOT
BRANCH   1   8
HETATM    8  C   UNL     1      41.644 -12.531   4.677  1.00  0.00     0.313 C 
BRANCH   8   9
HETATM    9  C   UNL     1      42.707 -11.986   5.566  1.00  0.00     0.131 A 
HETATM   10  N   UNL     1      43.979 -11.879   5.230  1.00  0.00    -0.232 NA
HETATM   11  C   UNL     1      44.607 -11.361   6.340  1.00  0.00     0.085 A 
HETATM   12  C   UNL     1      43.689 -11.121   7.357  1.00  0.00     0.062 A 
HETATM   13  C   UNL     1      45.961 -11.073   6.556  1.00  0.00     0.034 A 
HETATM   14  C   UNL     1      44.043 -10.589   8.597  1.00  0.00     0.032 A 
HETATM   15  N   UNL     1      42.483 -11.521   6.838  1.00  0.00    -0.341 N 
HETATM   16  C   UNL     1      45.399 -10.306   8.796  1.00  0.00     0.002 A 
HETATM   17  C   UNL     1      46.344 -10.545   7.795  1.00  0.00     0.002 A 
HETATM   18  H   UNL     1      41.600 -11.480   7.330  1.00  0.00     0.167 HD
ENDBRANCH   8   9
ENDBRANCH   1   8
BRANCH   4  19
HETATM   19  C   UNL     1      43.678 -17.043   5.283  1.00  0.00     0.165 C 
HETATM   20  O   UNL     1      44.683 -16.478   5.710  1.00  0.00    -0.292 OA
BRANCH  19  21
HETATM   21  C   UNL     1      43.759 -18.477   4.861  1.00  0.00     0.012 A 
HETATM   22  C   UNL     1      43.712 -18.759   3.489  1.00  0.00     0.039 A 
HETATM   23  C   UNL     1      43.780 -20.078   3.044  1.00  0.00     0.035 A 
HETATM   24 CL   UNL     1      43.714 -20.415   1.358  1.00  0.00    -0.084 Cl
HETATM   25  C   UNL     1      43.898 -21.126   3.953  1.00  0.00     0.024 A 
HETATM   26  C   UNL     1      43.947 -20.853   5.318  1.00  0.00     0.003 A 
HETATM   27  C   UNL     1      43.875 -19.534   5.774  1.00  0.00     0.015 A 
ENDBRANCH  19  21
ENDBRANCH   4  19
TORSDOF 4
ENDMDL
MODEL 2
REMARK VINA RESULT:      -9.1      3.976      6.263
REMARK  4 active torsions:
REMARK  status: ('A' for Active; 'I' for Inactive)
REMARK    1  A    between atoms: C_6  and  C_7 
REMARK    2  A    between atoms: C_7  and  N_8 
REMARK    3  A    between atoms: C_11  and  C_12 
REMARK    4  A    between atoms: C_12  and  C_13 
ROOT
HETATM    1  N   UNL     1      41.625 -14.149   2.958  1.00  0.00    -0.064 N 
HETATM    2  H   UNL     1      40.988 -14.820   2.495  1.00  0.00     0.280 HD
HETATM    3  C   UNL     1      42.806 -14.965   3.450  1.00  0.00     0.247 C 
HETATM    4  C   UNL     1      42.317 -16.022   4.445  1.00  0.00     0.086 C 
HETATM    5  C   UNL     1      41.577 -15.348   5.604  1.00  0.00     0.016 C 
HETATM    6  C   UNL     1      40.434 -14.475   5.093  1.00  0.00     0.029 C 
HETATM    7  C   UNL     1      40.903 -13.452   4.069  1.00  0.00     0.235 C 
ENDROOT
BRANCH   1   8
HETATM    8  C   UNL     1      42.008 -13.219   1.817  1.00  0.00     0.313 C 
BRANCH   8   9
HETATM    9  C   UNL     1      40.979 -13.291   0.743  1.00  0.00     0.131 A 
HETATM   10  N   UNL     1      40.025 -12.397   0.562  1.00  0.00    -0.232 NA
HETATM   11  C   UNL     1      39.290 -12.860  -0.505  1.00  0.00     0.085 A 
HETATM   12  C   UNL     1      39.830 -14.043  -0.998  1.00  0.00     0.062 A 
HETATM   13  C   UNL     1      38.143 -12.325  -1.108  1.00  0.00     0.034 A 
HETATM   14  C   UNL     1      39.294 -14.735  -2.085  1.00  0.00     0.032 A 
HETATM   15  N   UNL     1      40.910 -14.295  -0.190  1.00  0.00    -0.341 N 
HETATM   16  C   UNL     1      38.150 -14.187  -2.676  1.00  0.00     0.002 A 
HETATM   17  C   UNL     1      37.580 -13.004  -2.197  1.00  0.00     0.002 A 
HETATM   18  H   UNL     1      41.526 -15.093  -0.281  1.00  0.00     0.167 HD
ENDBRANCH   8   9
ENDBRANCH   1   8
BRANCH   4  19
HETATM   19  C   UNL     1      43.531 -16.785   4.952  1.00  0.00     0.165 C 
HETATM   20  O   UNL     1      44.404 -16.196   5.589  1.00  0.00    -0.292 OA
BRANCH  19  21
HETATM   21  C   UNL     1      43.674 -18.250   4.684  1.00  0.00     0.012 A 
HETATM   22  C   UNL     1      43.648 -18.676   3.348  1.00  0.00     0.039 A 
HETATM   23  C   UNL     1      43.774 -20.031   3.043  1.00  0.00     0.035 A 
HETATM   24 CL   UNL     1      43.733 -20.544   1.402  1.00  0.00    -0.084 Cl
HETATM   25  C   UNL     1      43.930 -20.972   4.057  1.00  0.00     0.024 A 
HETATM   26  C   UNL     1      43.958 -20.556   5.387  1.00  0.00     0.003 A 
HETATM   27  C   UNL     1      43.829 -19.201   5.702  1.00  0.00     0.015 A 
ENDBRANCH  19  21
ENDBRANCH   4  19
TORSDOF 4
ENDMDL
MODEL 3
REMARK VINA RESULT:      -9.1      1.842      2.295
REMARK  4 active torsions:
REMARK  status: ('A' for Active; 'I' for Inactive)
REMARK    1  A    between atoms: C_6  and  C_7 
REMARK    2  A    between atoms: C_7  and  N_8 
REMARK    3  A    between atoms: C_11  and  C_12 
REMARK    4  A    between atoms: C_12  and  C_13 
ROOT
HETATM    1  N   UNL     1      41.954 -12.969   2.565  1.00  0.00    -0.064 N 
HETATM    2  H   UNL     1      42.134 -13.209   1.575  1.00  0.00     0.280 HD
HETATM    3  C   UNL     1      42.777 -13.943   3.388  1.00  0.00     0.247 C 
HETATM    4  C   UNL     1      42.324 -15.376   3.086  1.00  0.00     0.086 C 
HETATM    5  C   UNL     1      40.827 -15.523   3.372  1.00  0.00     0.016 C 
HETATM    6  C   UNL     1      40.014 -14.493   2.592  1.00  0.00     0.029 C 
HETATM    7  C   UNL     1      40.487 -13.069   2.850  1.00  0.00     0.235 C 
ENDROOT
BRANCH   1   8
HETATM    8  C   UNL     1      42.486 -11.548   2.661  1.00  0.00     0.313 C 
BRANCH   8   9
HETATM    9  C   UNL     1      43.141 -11.345   3.983  1.00  0.00     0.131 A 
HETATM   10  N   UNL     1      44.434 -11.494   4.206  1.00  0.00    -0.232 NA
HETATM   11  C   UNL     1      44.602 -11.242   5.549  1.00  0.00     0.085 A 
HETATM   12  C   UNL     1      43.390 -10.904   6.142  1.00  0.00     0.062 A 
HETATM   13  C   UNL     1      45.762 -11.287   6.335  1.00  0.00     0.034 A 
HETATM   14  C   UNL     1      43.262 -10.589   7.495  1.00  0.00     0.032 A 
HETATM   15  N   UNL     1      42.474 -10.970   5.122  1.00  0.00    -0.341 N 
HETATM   16  C   UNL     1      44.430 -10.638   8.265  1.00  0.00     0.002 A 
HETATM   17  C   UNL     1      45.659 -10.983   7.698  1.00  0.00     0.002 A 
HETATM   18  H   UNL     1      41.485 -10.781   5.221  1.00  0.00     0.167 HD
ENDBRANCH   8   9
ENDBRANCH   1   8
BRANCH   4  19
HETATM   19  C   UNL     1      43.135 -16.318   3.962  1.00  0.00     0.165 C 
HETATM   20  O   UNL     1      43.643 -15.903   5.003  1.00  0.00    -0.292 OA
BRANCH  19  21
HETATM   21  C   UNL     1      43.320 -17.750   3.569  1.00  0.00     0.012 A 
HETATM   22  C   UNL     1      43.815 -18.635   4.537  1.00  0.00     0.039 A 
HETATM   23  C   UNL     1      44.011 -19.979   4.222  1.00  0.00     0.035 A 
HETATM   24 CL   UNL     1      44.626 -21.055   5.414  1.00  0.00    -0.084 Cl
HETATM   25  C   UNL     1      43.713 -20.456   2.948  1.00  0.00     0.024 A 
HETATM   26  C   UNL     1      43.220 -19.583   1.981  1.00  0.00     0.003 A 
HETATM   27  C   UNL     1      43.025 -18.233   2.287  1.00  0.00     0.015 A 
ENDBRANCH  19  21
ENDBRANCH   4  19
TORSDOF 4
ENDMDL
MODEL 4
REMARK VINA RESULT:      -8.8      4.221      6.552
REMARK  4 active torsions:
REMARK  status: ('A' for Active; 'I' for Inactive)
REMARK    1  A    between atoms: C_6  and  C_7 
REMARK    2  A    between atoms: C_7  and  N_8 
REMARK    3  A    between atoms: C_11  and  C_12 
REMARK    4  A    between atoms: C_12  and  C_13 
ROOT
HETATM    1  N   UNL     1      41.199 -13.071   3.001  1.00  0.00    -0.064 N 
HETATM    2  H   UNL     1      40.468 -13.677   2.592  1.00  0.00     0.280 HD
HETATM    3  C   UNL     1      42.350 -13.990   3.365  1.00  0.00     0.247 C 
HETATM    4  C   UNL     1      41.872 -15.027   4.387  1.00  0.00     0.086 C 
HETATM    5  C   UNL     1      41.304 -14.323   5.621  1.00  0.00     0.016 C 
HETATM    6  C   UNL     1      40.193 -13.349   5.237  1.00  0.00     0.029 C 
HETATM    7  C   UNL     1      40.646 -12.343   4.188  1.00  0.00     0.235 C 
ENDROOT
BRANCH   1   8
HETATM    8  C   UNL     1      41.547 -12.149   1.844  1.00  0.00     0.313 C 
BRANCH   8   9
HETATM    9  C   UNL     1      40.714 -12.493   0.659  1.00  0.00     0.131 A 
HETATM   10  N   UNL     1      39.481 -12.065   0.463  1.00  0.00    -0.232 NA
HETATM   11  C   UNL     1      39.080 -12.639  -0.723  1.00  0.00     0.085 A 
HETATM   12  C   UNL     1      40.104 -13.405  -1.269  1.00  0.00     0.062 A 
HETATM   13  C   UNL     1      37.853 -12.554  -1.393  1.00  0.00     0.034 A 
HETATM   14  C   UNL     1      39.982 -14.098  -2.474  1.00  0.00     0.032 A 
HETATM   15  N   UNL     1      41.138 -13.292  -0.374  1.00  0.00    -0.341 N 
HETATM   16  C   UNL     1      38.750 -14.002  -3.132  1.00  0.00     0.002 A 
HETATM   17  C   UNL     1      37.701 -13.246  -2.602  1.00  0.00     0.002 A 
HETATM   18  H   UNL     1      42.041 -13.738  -0.475  1.00  0.00     0.167 HD
ENDBRANCH   8   9
ENDBRANCH   1   8
BRANCH   4  19
HETATM   19  C   UNL     1      43.061 -15.897   4.763  1.00  0.00     0.165 C 
HETATM   20  O   UNL     1      43.855 -15.513   5.621  1.00  0.00    -0.292 OA
BRANCH  19  21
HETATM   21  C   UNL     1      43.276 -17.220   4.097  1.00  0.00     0.012 A 
HETATM   22  C   UNL     1      43.777 -18.272   4.877  1.00  0.00     0.039 A 
HETATM   23  C   UNL     1      43.998 -19.523   4.305  1.00  0.00     0.035 A 
HETATM   24 CL   UNL     1      44.621 -20.805   5.268  1.00  0.00    -0.084 Cl
HETATM   25  C   UNL     1      43.722 -19.743   2.958  1.00  0.00     0.024 A 
HETATM   26  C   UNL     1      43.223 -18.704   2.177  1.00  0.00     0.003 A 
HETATM   27  C   UNL     1      43.001 -17.444   2.741  1.00  0.00     0.015 A 
ENDBRANCH  19  21
ENDBRANCH   4  19
TORSDOF 4
ENDMDL
MODEL 5
REMARK VINA RESULT:      -8.7      2.615      3.302
REMARK  4 active torsions:
REMARK  status: ('A' for Active; 'I' for Inactive)
REMARK    1  A    between atoms: C_6  and  C_7 
REMARK    2  A    between atoms: C_7  and  N_8 
REMARK    3  A    between atoms: C_11  and  C_12 
REMARK    4  A    between atoms: C_12  and  C_13 
ROOT
HETATM    1  N   UNL     1      41.642 -12.498   1.437  1.00  0.00    -0.064 N 
HETATM    2  H   UNL     1      42.571 -12.660   1.012  1.00  0.00     0.280 HD
HETATM    3  C   UNL     1      41.486 -13.550   2.519  1.00  0.00     0.247 C 
HETATM    4  C   UNL     1      41.557 -14.945   1.888  1.00  0.00     0.086 C 
HETATM    5  C   UNL     1      40.482 -15.086   0.807  1.00  0.00     0.016 C 
HETATM    6  C   UNL     1      40.605 -13.981  -0.239  1.00  0.00     0.029 C 
HETATM    7  C   UNL     1      40.581 -12.592   0.384  1.00  0.00     0.235 C 
ENDROOT
BRANCH   1   8
HETATM    8  C   UNL     1      41.786 -11.099   2.017  1.00  0.00     0.313 C 
BRANCH   8   9
HETATM    9  C   UNL     1      42.532 -11.163   3.304  1.00  0.00     0.131 A 
HETATM   10  N   UNL     1      43.831 -11.374   3.404  1.00  0.00    -0.232 NA
HETATM   11  C   UNL     1      44.095 -11.385   4.755  1.00  0.00     0.085 A 
HETATM   12  C   UNL     1      42.935 -11.144   5.484  1.00  0.00     0.062 A 
HETATM   13  C   UNL     1      45.302 -11.599   5.434  1.00  0.00     0.034 A 
HETATM   14  C   UNL     1      42.906 -11.091   6.878  1.00  0.00     0.032 A 
HETATM   15  N   UNL     1      41.953 -10.999   4.538  1.00  0.00    -0.341 N 
HETATM   16  C   UNL     1      44.120 -11.306   7.541  1.00  0.00     0.002 A 
HETATM   17  C   UNL     1      45.298 -11.558   6.834  1.00  0.00     0.002 A 
HETATM   18  H   UNL     1      40.979 -10.815   4.739  1.00  0.00     0.167 HD
ENDBRANCH   8   9
ENDBRANCH   1   8
BRANCH   4  19
HETATM   19  C   UNL     1      41.349 -15.970   2.991  1.00  0.00     0.165 C 
HETATM   20  O   UNL     1      40.290 -15.991   3.617  1.00  0.00    -0.292 OA
BRANCH  19  21
HETATM   21  C   UNL     1      42.424 -16.956   3.325  1.00  0.00     0.012 A 
HETATM   22  C   UNL     1      42.591 -18.056   2.472  1.00  0.00     0.039 A 
HETATM   23  C   UNL     1      43.575 -19.006   2.740  1.00  0.00     0.035 A 
HETATM   24 CL   UNL     1      43.767 -20.356   1.691  1.00  0.00    -0.084 Cl
HETATM   25  C   UNL     1      44.403 -18.872   3.851  1.00  0.00     0.024 A 
HETATM   26  C   UNL     1      44.244 -17.781   4.703  1.00  0.00     0.003 A 
HETATM   27  C   UNL     1      43.257 -16.825   4.445  1.00  0.00     0.015 A 
ENDBRANCH  19  21
ENDBRANCH   4  19
TORSDOF 4
ENDMDL
MODEL 6
REMARK VINA RESULT:      -8.7      1.933      2.750
REMARK  4 active torsions:
REMARK  status: ('A' for Active; 'I' for Inactive)
REMARK    1  A    between atoms: C_6  and  C_7 
REMARK    2  A    between atoms: C_7  and  N_8 
REMARK    3  A    between atoms: C_11  and  C_12 
REMARK    4  A    between atoms: C_12  and  C_13 
ROOT
HETATM    1  N   UNL     1      41.732 -12.463   4.366  1.00  0.00    -0.064 N 
HETATM    2  H   UNL     1      42.763 -12.383   4.410  1.00  0.00     0.280 HD
HETATM    3  C   UNL     1      41.436 -13.935   4.146  1.00  0.00     0.247 C 
HETATM    4  C   UNL     1      42.070 -14.391   2.828  1.00  0.00     0.086 C 
HETATM    5  C   UNL     1      41.551 -13.533   1.671  1.00  0.00     0.016 C 
HETATM    6  C   UNL     1      41.792 -12.049   1.935  1.00  0.00     0.029 C 
HETATM    7  C   UNL     1      41.204 -11.597   3.264  1.00  0.00     0.235 C 
ENDROOT
BRANCH   1   8
HETATM    8  C   UNL     1      41.307 -11.996   5.749  1.00  0.00     0.313 C 
BRANCH   8   9
HETATM    9  C   UNL     1      42.442 -11.297   6.414  1.00  0.00     0.131 A 
HETATM   10  N   UNL     1      43.716 -11.558   6.187  1.00  0.00    -0.232 NA
HETATM   11  C   UNL     1      44.414 -10.715   7.021  1.00  0.00     0.085 A 
HETATM   12  C   UNL     1      43.544  -9.907   7.745  1.00  0.00     0.062 A 
HETATM   13  C   UNL     1      45.796 -10.587   7.219  1.00  0.00     0.034 A 
HETATM   14  C   UNL     1      43.975  -8.950   8.665  1.00  0.00     0.032 A 
HETATM   15  N   UNL     1      42.292 -10.292   7.337  1.00  0.00    -0.341 N 
HETATM   16  C   UNL     1      45.358  -8.834   8.850  1.00  0.00     0.002 A 
HETATM   17  C   UNL     1      46.255  -9.638   8.142  1.00  0.00     0.002 A 
HETATM   18  H   UNL     1      41.426  -9.896   7.678  1.00  0.00     0.167 HD
ENDBRANCH   8   9
ENDBRANCH   1   8
BRANCH   4  19
HETATM   19  C   UNL     1      41.712 -15.854   2.617  1.00  0.00     0.165 C 
HETATM   20  O   UNL     1      40.662 -16.152   2.049  1.00  0.00    -0.292 OA
BRANCH  19  21
HETATM   21  C   UNL     1      42.627 -16.937   3.095  1.00  0.00     0.012 A 
HETATM   22  C   UNL     1      42.774 -18.074   2.287  1.00  0.00     0.039 A 
HETATM   23  C   UNL     1      43.611 -19.114   2.688  1.00  0.00     0.035 A 
HETATM   24 CL   UNL     1      43.777 -20.508   1.694  1.00  0.00    -0.084 Cl
HETATM   25  C   UNL     1      44.312 -19.034   3.888  1.00  0.00     0.024 A 
HETATM   26  C   UNL     1      44.174 -17.907   4.695  1.00  0.00     0.003 A 
HETATM   27  C   UNL     1      43.333 -16.861   4.304  1.00  0.00     0.015 A 
ENDBRANCH  19  21
ENDBRANCH   4  19
TORSDOF 4
ENDMDL
MODEL 7
REMARK VINA RESULT:      -8.6      1.627      2.345
REMARK  4 active torsions:
REMARK  status: ('A' for Active; 'I' for Inactive)
REMARK    1  A    between atoms: C_6  and  C_7 
REMARK    2  A    between atoms: C_7  and  N_8 
REMARK    3  A    between atoms: C_11  and  C_12 
REMARK    4  A    between atoms: C_12  and  C_13 
ROOT
HETATM    1  N   UNL     1      41.777 -12.099   5.240  1.00  0.00    -0.064 N 
HETATM    2  H   UNL     1      41.474 -12.188   4.255  1.00  0.00     0.280 HD
HETATM    3  C   UNL     1      42.852 -13.150   5.443  1.00  0.00     0.247 C 
HETATM    4  C   UNL     1      42.264 -14.540   5.181  1.00  0.00     0.086 C 
HETATM    5  C   UNL     1      41.062 -14.782   6.097  1.00  0.00     0.016 C 
HETATM    6  C   UNL     1      40.016 -13.681   5.935  1.00  0.00     0.029 C 
HETATM    7  C   UNL     1      40.602 -12.293   6.149  1.00  0.00     0.235 C 
ENDROOT
BRANCH   1   8
HETATM    8  C   UNL     1      42.340 -10.688   5.285  1.00  0.00     0.313 C 
BRANCH   8   9
HETATM    9  C   UNL     1      42.944 -10.430   6.621  1.00  0.00     0.131 A 
HETATM   10  N   UNL     1      44.232 -10.537   6.892  1.00  0.00    -0.232 NA
HETATM   11  C   UNL     1      44.347 -10.243   8.231  1.00  0.00     0.085 A 
HETATM   12  C   UNL     1      43.108  -9.922   8.773  1.00  0.00     0.062 A 
HETATM   13  C   UNL     1      45.481 -10.234   9.056  1.00  0.00     0.034 A 
HETATM   14  C   UNL     1      42.925  -9.573  10.112  1.00  0.00     0.032 A 
HETATM   15  N   UNL     1      42.229 -10.041   7.726  1.00  0.00    -0.341 N 
HETATM   16  C   UNL     1      44.067  -9.568  10.922  1.00  0.00     0.002 A 
HETATM   17  C   UNL     1      45.324  -9.895  10.406  1.00  0.00     0.002 A 
HETATM   18  H   UNL     1      41.233  -9.877   7.787  1.00  0.00     0.167 HD
ENDBRANCH   8   9
ENDBRANCH   1   8
BRANCH   4  19
HETATM   19  C   UNL     1      43.355 -15.567   5.440  1.00  0.00     0.165 C 
HETATM   20  O   UNL     1      44.142 -15.404   6.372  1.00  0.00    -0.292 OA
BRANCH  19  21
HETATM   21  C   UNL     1      43.481 -16.778   4.571  1.00  0.00     0.012 A 
HETATM   22  C   UNL     1      43.888 -17.977   5.173  1.00  0.00     0.039 A 
HETATM   23  C   UNL     1      44.025 -19.134   4.408  1.00  0.00     0.035 A 
HETATM   24 CL   UNL     1      44.532 -20.598   5.155  1.00  0.00    -0.084 Cl
HETATM   25  C   UNL     1      43.757 -19.113   3.042  1.00  0.00     0.024 A 
HETATM   26  C   UNL     1      43.351 -17.925   2.436  1.00  0.00     0.003 A 
HETATM   27  C   UNL     1      43.215 -16.760   3.195  1.00  0.00     0.015 A 
ENDBRANCH  19  21
ENDBRANCH   4  19
TORSDOF 4
ENDMDL
MODEL 8
REMARK VINA RESULT:      -8.5      3.327      5.167
REMARK  4 active torsions:
REMARK  status: ('A' for Active; 'I' for Inactive)
REMARK    1  A    between atoms: C_6  and  C_7 
REMARK    2  A    between atoms: C_7  and  N_8 
REMARK    3  A    between atoms: C_11  and  C_12 
REMARK    4  A    between atoms: C_12  and  C_13 
ROOT
HETATM    1  N   UNL     1      43.057 -10.508   7.947  1.00  0.00    -0.064 N 
HETATM    2  H   UNL     1      43.027 -11.098   8.796  1.00  0.00     0.280 HD
HETATM    3  C   UNL     1      42.558 -11.383   6.812  1.00  0.00     0.247 C 
HETATM    4  C   UNL     1      43.480 -12.597   6.661  1.00  0.00     0.086 C 
HETATM    5  C   UNL     1      44.920 -12.135   6.423  1.00  0.00     0.016 C 
HETATM    6  C   UNL     1      45.389 -11.200   7.535  1.00  0.00     0.029 C 
HETATM    7  C   UNL     1      44.453 -10.014   7.723  1.00  0.00     0.235 C 
ENDROOT
BRANCH   1   8
HETATM    8  C   UNL     1      42.076  -9.396   8.285  1.00  0.00     0.313 C 
BRANCH   8   9
HETATM    9  C   UNL     1      42.069  -9.162   9.756  1.00  0.00     0.131 A 
HETATM   10  N   UNL     1      42.875  -8.326  10.383  1.00  0.00    -0.232 NA
HETATM   11  C   UNL     1      42.553  -8.442  11.716  1.00  0.00     0.085 A 
HETATM   12  C   UNL     1      41.510  -9.344  11.894  1.00  0.00     0.062 A 
HETATM   13  C   UNL     1      43.112  -7.810  12.835  1.00  0.00     0.034 A 
HETATM   14  C   UNL     1      40.970  -9.653  13.143  1.00  0.00     0.032 A 
HETATM   15  N   UNL     1      41.213  -9.786  10.629  1.00  0.00    -0.341 N 
HETATM   16  C   UNL     1      41.540  -9.013  14.250  1.00  0.00     0.002 A 
HETATM   17  C   UNL     1      42.594  -8.108  14.102  1.00  0.00     0.002 A 
HETATM   18  H   UNL     1      40.493 -10.461  10.407  1.00  0.00     0.167 HD
ENDBRANCH   8   9
ENDBRANCH   1   8
BRANCH   4  19
HETATM   19  C   UNL     1      42.979 -13.423   5.487  1.00  0.00     0.165 C 
HETATM   20  O   UNL     1      42.265 -12.902   4.631  1.00  0.00    -0.292 OA
BRANCH  19  21
HETATM   21  C   UNL     1      43.347 -14.868   5.362  1.00  0.00     0.012 A 
HETATM   22  C   UNL     1      43.080 -15.509   4.143  1.00  0.00     0.039 A 
HETATM   23  C   UNL     1      43.400 -16.855   3.976  1.00  0.00     0.035 A 
HETATM   24 CL   UNL     1      43.062 -17.633   2.480  1.00  0.00    -0.084 Cl
HETATM   25  C   UNL     1      43.989 -17.576   5.011  1.00  0.00     0.024 A 
HETATM   26  C   UNL     1      44.258 -16.946   6.225  1.00  0.00     0.003 A 
HETATM   27  C   UNL     1      43.937 -15.597   6.403  1.00  0.00     0.015 A 
ENDBRANCH  19  21
ENDBRANCH   4  19
TORSDOF 4
ENDMDL
MODEL 9
REMARK VINA RESULT:      -8.4      4.220      7.808
REMARK  4 active torsions:
REMARK  status: ('A' for Active; 'I' for Inactive)
REMARK    1  A    between atoms: C_6  and  C_7 
REMARK    2  A    between atoms: C_7  and  N_8 
REMARK    3  A    between atoms: C_11  and  C_12 
REMARK    4  A    between atoms: C_12  and  C_13 
ROOT
HETATM    1  N   UNL     1      42.812 -14.004   4.148  1.00  0.00    -0.064 N 
HETATM    2  H   UNL     1      43.497 -14.432   3.502  1.00  0.00     0.280 HD
HETATM    3  C   UNL     1      41.525 -13.859   3.358  1.00  0.00     0.247 C 
HETATM    4  C   UNL     1      41.769 -12.952   2.147  1.00  0.00     0.086 C 
HETATM    5  C   UNL     1      42.301 -11.593   2.609  1.00  0.00     0.016 C 
HETATM    6  C   UNL     1      43.557 -11.754   3.461  1.00  0.00     0.029 C 
HETATM    7  C   UNL     1      43.336 -12.690   4.641  1.00  0.00     0.235 C 
ENDROOT
BRANCH   1   8
HETATM    8  C   UNL     1      42.695 -15.050   5.245  1.00  0.00     0.313 C 
BRANCH   8   9
HETATM    9  C   UNL     1      43.005 -16.397   4.690  1.00  0.00     0.131 A 
HETATM   10  N   UNL     1      42.883 -16.726   3.418  1.00  0.00    -0.232 NA
HETATM   11  C   UNL     1      43.240 -18.054   3.350  1.00  0.00     0.085 A 
HETATM   12  C   UNL     1      43.615 -18.527   4.603  1.00  0.00     0.062 A 
HETATM   13  C   UNL     1      43.265 -18.924   2.252  1.00  0.00     0.034 A 
HETATM   14  C   UNL     1      44.033 -19.838   4.832  1.00  0.00     0.032 A 
HETATM   15  N   UNL     1      43.463 -17.451   5.441  1.00  0.00    -0.341 N 
HETATM   16  C   UNL     1      44.053 -20.694   3.724  1.00  0.00     0.002 A 
HETATM   17  C   UNL     1      43.674 -20.248   2.456  1.00  0.00     0.002 A 
HETATM   18  H   UNL     1      43.652 -17.461   6.434  1.00  0.00     0.167 HD
ENDBRANCH   8   9
ENDBRANCH   1   8
BRANCH   4  19
HETATM   19  C   UNL     1      40.450 -12.792   1.408  1.00  0.00     0.165 C 
HETATM   20  O   UNL     1      39.417 -12.571   2.039  1.00  0.00    -0.292 OA
BRANCH  19  21
HETATM   21  C   UNL     1      40.396 -12.900  -0.084  1.00  0.00     0.012 A 
HETATM   22  C   UNL     1      39.676 -13.968  -0.637  1.00  0.00     0.039 A 
HETATM   23  C   UNL     1      39.598 -14.117  -2.021  1.00  0.00     0.035 A 
HETATM   24 CL   UNL     1      38.719 -15.435  -2.689  1.00  0.00    -0.084 Cl
HETATM   25  C   UNL     1      40.227 -13.207  -2.866  1.00  0.00     0.024 A 
HETATM   26  C   UNL     1      40.943 -12.142  -2.324  1.00  0.00     0.003 A 
HETATM   27  C   UNL     1      41.031 -11.987  -0.937  1.00  0.00     0.015 A 
ENDBRANCH  19  21
ENDBRANCH   4  19
TORSDOF 4
ENDMDL
MODEL 10
REMARK VINA RESULT:      -7.8      4.730      7.853
REMARK  4 active torsions:
REMARK  status: ('A' for Active; 'I' for Inactive)
REMARK    1  A    between atoms: C_6  and  C_7 
REMARK    2  A    between atoms: C_7  and  N_8 
REMARK    3  A    between atoms: C_11  and  C_12 
REMARK    4  A    between atoms: C_12  and  C_13 
ROOT
HETATM    1  N   UNL     1      41.368 -15.890   2.439  1.00  0.00    -0.064 N 
HETATM    2  H   UNL     1      41.943 -15.216   1.905  1.00  0.00     0.280 HD
HETATM    3  C   UNL     1      41.274 -15.334   3.848  1.00  0.00     0.247 C 
HETATM    4  C   UNL     1      42.679 -15.224   4.449  1.00  0.00     0.086 C 
HETATM    5  C   UNL     1      43.366 -16.592   4.430  1.00  0.00     0.016 C 
HETATM    6  C   UNL     1      43.394 -17.174   3.018  1.00  0.00     0.029 C 
HETATM    7  C   UNL     1      42.007 -17.244   2.396  1.00  0.00     0.235 C 
ENDROOT
BRANCH   1   8
HETATM    8  C   UNL     1      40.035 -15.835   1.712  1.00  0.00     0.313 C 
BRANCH   8   9
HETATM    9  C   UNL     1      40.103 -14.832   0.613  1.00  0.00     0.131 A 
HETATM   10  N   UNL     1      40.812 -13.720   0.660  1.00  0.00    -0.232 NA
HETATM   11  C   UNL     1      40.568 -13.083  -0.536  1.00  0.00     0.085 A 
HETATM   12  C   UNL     1      39.718 -13.841  -1.333  1.00  0.00     0.062 A 
HETATM   13  C   UNL     1      41.035 -11.849  -1.009  1.00  0.00     0.034 A 
HETATM   14  C   UNL     1      39.306 -13.443  -2.606  1.00  0.00     0.032 A 
HETATM   15  N   UNL     1      39.440 -14.956  -0.583  1.00  0.00    -0.341 N 
HETATM   16  C   UNL     1      39.782 -12.209  -3.064  1.00  0.00     0.002 A 
HETATM   17  C   UNL     1      40.630 -11.422  -2.280  1.00  0.00     0.002 A 
HETATM   18  H   UNL     1      38.840 -15.715  -0.877  1.00  0.00     0.167 HD
ENDBRANCH   8   9
ENDBRANCH   1   8
BRANCH   4  19
HETATM   19  C   UNL     1      42.540 -14.710   5.873  1.00  0.00     0.165 C 
HETATM   20  O   UNL     1      42.083 -15.445   6.748  1.00  0.00    -0.292 OA
BRANCH  19  21
HETATM   21  C   UNL     1      42.957 -13.316   6.222  1.00  0.00     0.012 A 
HETATM   22  C   UNL     1      42.050 -12.278   5.965  1.00  0.00     0.039 A 
HETATM   23  C   UNL     1      42.390 -10.961   6.268  1.00  0.00     0.035 A 
HETATM   24 CL   UNL     1      41.273  -9.694   5.942  1.00  0.00    -0.084 Cl
HETATM   25  C   UNL     1      43.627 -10.662   6.831  1.00  0.00     0.024 A 
HETATM   26  C   UNL     1      44.534 -11.688   7.091  1.00  0.00     0.003 A 
HETATM   27  C   UNL     1      44.203 -13.011   6.787  1.00  0.00     0.015 A 
ENDBRANCH  19  21
ENDBRANCH   4  19
TORSDOF 4
ENDMDL
