MODEL 1
REMARK VINA RESULT:      -8.5      0.000      0.000
REMARK  7 active torsions:
REMARK  status: ('A' for Active; 'I' for Inactive)
REMARK    1  A    between atoms: C_4  and  C_5 
REMARK    2  A    between atoms: C_5  and  N_6 
REMARK       I    between atoms: N_6  and  C_7 
REMARK       I    between atoms: C_7  and  N_8 
REMARK    3  A    between atoms: N_8  and  C_9 
REMARK    4  A    between atoms: C_9  and  C_10 
REMARK    5  A    between atoms: C_12  and  O_13 
REMARK    6  A    between atoms: O_13  and  C_14 
REMARK    7  A    between atoms: C_23  and  O_24 
ROOT
HETATM    1  N   UNL     1      42.321 -15.257   4.208  1.00  0.00    -0.335 N 
HETATM    2  C   UNL     1      40.977 -15.404   4.080  1.00  0.00     0.316 C 
HETATM    3  N   UNL     1      40.211 -14.845   5.047  1.00  0.00    -0.339 N 
HETATM    4  O   UNL     1      40.418 -15.992   3.160  1.00  0.00    -0.247 OA
HETATM    5  H   UNL     1      42.655 -15.139   5.148  1.00  0.00     0.165 HD
HETATM    6  H   UNL     1      39.225 -14.934   4.833  1.00  0.00     0.164 HD
ENDROOT
BRANCH   1   7
HETATM    7  C   UNL     1      43.333 -15.828   3.313  1.00  0.00     0.118 C 
HETATM    8  C   UNL     1      43.151 -15.517   1.827  1.00  0.00     0.037 C 
BRANCH   7   9
HETATM    9  C   UNL     1      43.552 -17.316   3.563  1.00  0.00    -0.002 A 
HETATM   10  C   UNL     1      43.422 -18.242   2.509  1.00  0.00     0.018 A 
HETATM   11  C   UNL     1      43.601 -19.614   2.714  1.00  0.00    -0.061 A 
HETATM   12  C   UNL     1      43.465 -20.572   1.568  1.00  0.00     0.048 C 
HETATM   13  C   UNL     1      43.964 -20.065   3.983  1.00  0.00     0.009 A 
HETATM   14  C   UNL     1      44.125 -19.161   5.035  1.00  0.00     0.038 A 
HETATM   15  C   UNL     1      43.926 -17.790   4.838  1.00  0.00     0.076 A 
BRANCH  15  16
HETATM   16  O   UNL     1      44.072 -16.841   5.817  1.00  0.00    -0.355 OA
HETATM   17  C   UNL     1      43.535 -17.131   7.101  1.00  0.00     0.210 C 
ENDBRANCH  15  16
ENDBRANCH   7   9
ENDBRANCH   1   7
BRANCH   3  18
HETATM   18  C   UNL     1      40.565 -13.939   6.118  1.00  0.00     0.163 C 
BRANCH  18  19
HETATM   19  C   UNL     1      41.172 -12.672   5.582  1.00  0.00    -0.035 A 
HETATM   20  C   UNL     1      42.499 -12.340   5.871  1.00  0.00     0.066 A 
HETATM   21  C   UNL     1      43.013 -11.158   5.361  1.00  0.00     0.164 A 
HETATM   22  N   UNL     1      42.314 -10.302   4.589  1.00  0.00    -0.237 NA
HETATM   23  C   UNL     1      41.043 -10.652   4.302  1.00  0.00     0.120 A 
HETATM   24  C   UNL     1      40.435 -11.809   4.767  1.00  0.00     0.028 A 
BRANCH  21  25
HETATM   25  O   UNL     1      44.323 -10.861   5.690  1.00  0.00    -0.329 OA
BRANCH  25  26
HETATM   26  C   UNL     1      44.691 -11.063   7.070  1.00  0.00     0.130 C 
HETATM   27  C   UNL     1      46.151 -10.712   7.467  1.00  0.00     0.032 C 
HETATM   28  C   UNL     1      45.590 -10.119   8.771  1.00  0.00     0.005 C 
HETATM   29  C   UNL     1      44.257  -9.923   8.029  1.00  0.00     0.032 C 
ENDBRANCH  25  26
ENDBRANCH  21  25
ENDBRANCH  18  19
ENDBRANCH   3  18
TORSDOF 7
ENDMDL
MODEL 2
REMARK VINA RESULT:      -8.4      2.645      4.458
REMARK  7 active torsions:
REMARK  status: ('A' for Active; 'I' for Inactive)
REMARK    1  A    between atoms: C_4  and  C_5 
REMARK    2  A    between atoms: C_5  and  N_6 
REMARK       I    between atoms: N_6  and  C_7 
REMARK       I    between atoms: C_7  and  N_8 
REMARK    3  A    between atoms: N_8  and  C_9 
REMARK    4  A    between atoms: C_9  and  C_10 
REMARK    5  A    between atoms: C_12  and  O_13 
REMARK    6  A    between atoms: O_13  and  C_14 
REMARK    7  A    between atoms: C_23  and  O_24 
ROOT
HETATM    1  N   UNL     1      42.048 -13.968   5.757  1.00  0.00    -0.335 N 
HETATM    2  C   UNL     1      41.602 -12.729   6.085  1.00  0.00     0.316 C 
HETATM    3  N   UNL     1      42.461 -11.936   6.771  1.00  0.00    -0.339 N 
HETATM    4  O   UNL     1      40.496 -12.281   5.800  1.00  0.00    -0.247 OA
HETATM    5  H   UNL     1      42.751 -14.349   6.366  1.00  0.00     0.165 HD
HETATM    6  H   UNL     1      42.078 -11.008   6.904  1.00  0.00     0.164 HD
ENDROOT
BRANCH   1   7
HETATM    7  C   UNL     1      41.269 -15.004   5.071  1.00  0.00     0.118 C 
HETATM    8  C   UNL     1      40.734 -16.126   5.962  1.00  0.00     0.037 C 
BRANCH   7   9
HETATM    9  C   UNL     1      41.984 -15.546   3.839  1.00  0.00    -0.002 A 
HETATM   10  C   UNL     1      42.500 -16.857   3.832  1.00  0.00     0.018 A 
HETATM   11  C   UNL     1      43.176 -17.373   2.721  1.00  0.00    -0.061 A 
HETATM   12  C   UNL     1      43.703 -18.776   2.744  1.00  0.00     0.048 C 
HETATM   13  C   UNL     1      43.296 -16.582   1.579  1.00  0.00     0.009 A 
HETATM   14  C   UNL     1      42.768 -15.290   1.554  1.00  0.00     0.038 A 
HETATM   15  C   UNL     1      42.110 -14.764   2.671  1.00  0.00     0.076 A 
BRANCH  15  16
HETATM   16  O   UNL     1      41.560 -13.508   2.721  1.00  0.00    -0.355 OA
HETATM   17  C   UNL     1      42.380 -12.413   2.338  1.00  0.00     0.210 C 
ENDBRANCH  15  16
ENDBRANCH   7   9
ENDBRANCH   1   7
BRANCH   3  18
HETATM   18  C   UNL     1      43.867 -12.110   7.062  1.00  0.00     0.163 C 
BRANCH  18  19
HETATM   19  C   UNL     1      44.489 -10.826   7.536  1.00  0.00    -0.035 A 
HETATM   20  C   UNL     1      43.718  -9.857   8.185  1.00  0.00     0.066 A 
HETATM   21  C   UNL     1      44.333  -8.686   8.597  1.00  0.00     0.164 A 
HETATM   22  N   UNL     1      45.643  -8.419   8.421  1.00  0.00    -0.237 NA
HETATM   23  C   UNL     1      46.375  -9.376   7.813  1.00  0.00     0.120 A 
HETATM   24  C   UNL     1      45.853 -10.578   7.360  1.00  0.00     0.028 A 
BRANCH  21  25
HETATM   25  O   UNL     1      43.527  -7.749   9.217  1.00  0.00    -0.329 OA
BRANCH  25  26
HETATM   26  C   UNL     1      42.893  -8.170  10.442  1.00  0.00     0.130 C 
HETATM   27  C   UNL     1      43.815  -8.744  11.552  1.00  0.00     0.032 C 
HETATM   28  C   UNL     1      42.960  -7.976  12.575  1.00  0.00     0.005 C 
HETATM   29  C   UNL     1      42.573  -7.021  11.434  1.00  0.00     0.032 C 
ENDBRANCH  25  26
ENDBRANCH  21  25
ENDBRANCH  18  19
ENDBRANCH   3  18
TORSDOF 7
ENDMDL
MODEL 3
REMARK VINA RESULT:      -8.3      1.906      2.492
REMARK  7 active torsions:
REMARK  status: ('A' for Active; 'I' for Inactive)
REMARK    1  A    between atoms: C_4  and  C_5 
REMARK    2  A    between atoms: C_5  and  N_6 
REMARK       I    between atoms: N_6  and  C_7 
REMARK       I    between atoms: C_7  and  N_8 
REMARK    3  A    between atoms: N_8  and  C_9 
REMARK    4  A    between atoms: C_9  and  C_10 
REMARK    5  A    between atoms: C_12  and  O_13 
REMARK    6  A    between atoms: O_13  and  C_14 
REMARK    7  A    between atoms: C_23  and  O_24 
ROOT
HETATM    1  N   UNL     1      42.434 -14.369   2.957  1.00  0.00    -0.335 N 
HETATM    2  C   UNL     1      42.234 -13.271   2.185  1.00  0.00     0.316 C 
HETATM    3  N   UNL     1      42.873 -12.138   2.565  1.00  0.00    -0.339 N 
HETATM    4  O   UNL     1      41.533 -13.235   1.179  1.00  0.00    -0.247 OA
HETATM    5  H   UNL     1      42.663 -14.186   3.918  1.00  0.00     0.165 HD
HETATM    6  H   UNL     1      42.732 -11.393   1.893  1.00  0.00     0.164 HD
ENDROOT
BRANCH   1   7
HETATM    7  C   UNL     1      41.798 -15.677   2.764  1.00  0.00     0.118 C 
HETATM    8  C   UNL     1      40.378 -15.808   3.314  1.00  0.00     0.037 C 
BRANCH   7   9
HETATM    9  C   UNL     1      42.693 -16.826   3.214  1.00  0.00    -0.002 A 
HETATM   10  C   UNL     1      42.836 -17.975   2.411  1.00  0.00     0.018 A 
HETATM   11  C   UNL     1      43.637 -19.051   2.808  1.00  0.00    -0.061 A 
HETATM   12  C   UNL     1      43.776 -20.255   1.923  1.00  0.00     0.048 C 
HETATM   13  C   UNL     1      44.345 -18.959   4.006  1.00  0.00     0.009 A 
HETATM   14  C   UNL     1      44.239 -17.818   4.804  1.00  0.00     0.038 A 
HETATM   15  C   UNL     1      43.422 -16.749   4.419  1.00  0.00     0.076 A 
BRANCH  15  16
HETATM   16  O   UNL     1      43.272 -15.595   5.144  1.00  0.00    -0.355 OA
HETATM   17  C   UNL     1      43.902 -15.529   6.417  1.00  0.00     0.210 C 
ENDBRANCH  15  16
ENDBRANCH   7   9
ENDBRANCH   1   7
BRANCH   3  18
HETATM   18  C   UNL     1      43.901 -11.931   3.562  1.00  0.00     0.163 C 
BRANCH  18  19
HETATM   19  C   UNL     1      43.359 -11.204   4.761  1.00  0.00    -0.035 A 
HETATM   20  C   UNL     1      43.931 -11.387   6.024  1.00  0.00     0.066 A 
HETATM   21  C   UNL     1      43.393 -10.702   7.102  1.00  0.00     0.164 A 
HETATM   22  N   UNL     1      42.349  -9.852   7.011  1.00  0.00    -0.237 NA
HETATM   23  C   UNL     1      41.827  -9.671   5.781  1.00  0.00     0.120 A 
HETATM   24  C   UNL     1      42.289 -10.313   4.641  1.00  0.00     0.028 A 
BRANCH  21  25
HETATM   25  O   UNL     1      43.978 -10.929   8.334  1.00  0.00    -0.329 OA
BRANCH  25  26
HETATM   26  C   UNL     1      43.535 -10.080   9.412  1.00  0.00     0.130 C 
HETATM   27  C   UNL     1      43.726 -10.618  10.856  1.00  0.00     0.032 C 
HETATM   28  C   UNL     1      44.136  -9.194  11.269  1.00  0.00     0.005 C 
HETATM   29  C   UNL     1      44.530  -8.955   9.801  1.00  0.00     0.032 C 
ENDBRANCH  25  26
ENDBRANCH  21  25
ENDBRANCH  18  19
ENDBRANCH   3  18
TORSDOF 7
ENDMDL
MODEL 4
REMARK VINA RESULT:      -8.3      2.364      3.418
REMARK  7 active torsions:
REMARK  status: ('A' for Active; 'I' for Inactive)
REMARK    1  A    between atoms: C_4  and  C_5 
REMARK    2  A    between atoms: C_5  and  N_6 
REMARK       I    between atoms: N_6  and  C_7 
REMARK       I    between atoms: C_7  and  N_8 
REMARK    3  A    between atoms: N_8  and  C_9 
REMARK    4  A    between atoms: C_9  and  C_10 
REMARK    5  A    between atoms: C_12  and  O_13 
REMARK    6  A    between atoms: O_13  and  C_14 
REMARK    7  A    between atoms: C_23  and  O_24 
ROOT
HETATM    1  N   UNL     1      42.836 -14.683   4.496  1.00  0.00    -0.335 N 
HETATM    2  C   UNL     1      42.972 -13.366   4.198  1.00  0.00     0.316 C 
HETATM    3  N   UNL     1      43.437 -12.565   5.187  1.00  0.00    -0.339 N 
HETATM    4  O   UNL     1      42.716 -12.860   3.110  1.00  0.00    -0.247 OA
HETATM    5  H   UNL     1      42.680 -14.892   5.466  1.00  0.00     0.165 HD
HETATM    6  H   UNL     1      43.581 -11.619   4.857  1.00  0.00     0.164 HD
ENDROOT
BRANCH   1   7
HETATM    7  C   UNL     1      42.299 -15.712   3.600  1.00  0.00     0.118 C 
HETATM    8  C   UNL     1      40.773 -15.795   3.530  1.00  0.00     0.037 C 
BRANCH   7   9
HETATM    9  C   UNL     1      42.935 -17.076   3.838  1.00  0.00    -0.002 A 
HETATM   10  C   UNL     1      43.076 -17.993   2.777  1.00  0.00     0.018 A 
HETATM   11  C   UNL     1      43.640 -19.258   2.972  1.00  0.00    -0.061 A 
HETATM   12  C   UNL     1      43.785 -20.205   1.818  1.00  0.00     0.048 C 
HETATM   13  C   UNL     1      44.116 -19.596   4.238  1.00  0.00     0.009 A 
HETATM   14  C   UNL     1      44.012 -18.692   5.298  1.00  0.00     0.038 A 
HETATM   15  C   UNL     1      43.428 -17.434   5.110  1.00  0.00     0.076 A 
BRANCH  15  16
HETATM   16  O   UNL     1      43.297 -16.491   6.098  1.00  0.00    -0.355 OA
HETATM   17  C   UNL     1      43.798 -16.814   7.388  1.00  0.00     0.210 C 
ENDBRANCH  15  16
ENDBRANCH   7   9
ENDBRANCH   1   7
BRANCH   3  18
HETATM   18  C   UNL     1      44.003 -12.899   6.476  1.00  0.00     0.163 C 
BRANCH  18  19
HETATM   19  C   UNL     1      44.532 -11.676   7.173  1.00  0.00    -0.035 A 
HETATM   20  C   UNL     1      43.735 -10.972   8.080  1.00  0.00     0.066 A 
HETATM   21  C   UNL     1      44.264  -9.846   8.693  1.00  0.00     0.164 A 
HETATM   22  N   UNL     1      45.513  -9.386   8.478  1.00  0.00    -0.237 NA
HETATM   23  C   UNL     1      46.274 -10.094   7.617  1.00  0.00     0.120 A 
HETATM   24  C   UNL     1      45.837 -11.228   6.950  1.00  0.00     0.028 A 
BRANCH  21  25
HETATM   25  O   UNL     1      43.432  -9.170   9.566  1.00  0.00    -0.329 OA
BRANCH  25  26
HETATM   26  C   UNL     1      43.471  -9.604  10.942  1.00  0.00     0.130 C 
HETATM   27  C   UNL     1      43.603  -8.500  12.025  1.00  0.00     0.032 C 
HETATM   28  C   UNL     1      42.596  -9.296  12.873  1.00  0.00     0.005 C 
HETATM   29  C   UNL     1      42.082  -9.914  11.561  1.00  0.00     0.032 C 
ENDBRANCH  25  26
ENDBRANCH  21  25
ENDBRANCH  18  19
ENDBRANCH   3  18
TORSDOF 7
ENDMDL
MODEL 5
REMARK VINA RESULT:      -8.2      2.883      4.074
REMARK  7 active torsions:
REMARK  status: ('A' for Active; 'I' for Inactive)
REMARK    1  A    between atoms: C_4  and  C_5 
REMARK    2  A    between atoms: C_5  and  N_6 
REMARK       I    between atoms: N_6  and  C_7 
REMARK       I    between atoms: C_7  and  N_8 
REMARK    3  A    between atoms: N_8  and  C_9 
REMARK    4  A    between atoms: C_9  and  C_10 
REMARK    5  A    between atoms: C_12  and  O_13 
REMARK    6  A    between atoms: O_13  and  C_14 
REMARK    7  A    between atoms: C_23  and  O_24 
ROOT
HETATM    1  N   UNL     1      42.226 -15.147   4.132  1.00  0.00    -0.335 N 
HETATM    2  C   UNL     1      40.936 -15.560   4.220  1.00  0.00     0.316 C 
HETATM    3  N   UNL     1      40.166 -14.952   5.156  1.00  0.00    -0.339 N 
HETATM    4  O   UNL     1      40.424 -16.425   3.518  1.00  0.00    -0.247 OA
HETATM    5  H   UNL     1      42.616 -14.769   4.977  1.00  0.00     0.165 HD
HETATM    6  H   UNL     1      39.204 -15.263   5.099  1.00  0.00     0.164 HD
ENDROOT
BRANCH   1   7
HETATM    7  C   UNL     1      43.243 -15.706   3.237  1.00  0.00     0.118 C 
HETATM    8  C   UNL     1      43.031 -15.436   1.747  1.00  0.00     0.037 C 
BRANCH   7   9
HETATM    9  C   UNL     1      43.514 -17.180   3.517  1.00  0.00    -0.002 A 
HETATM   10  C   UNL     1      43.377 -18.137   2.493  1.00  0.00     0.018 A 
HETATM   11  C   UNL     1      43.603 -19.498   2.727  1.00  0.00    -0.061 A 
HETATM   12  C   UNL     1      43.458 -20.490   1.612  1.00  0.00     0.048 C 
HETATM   13  C   UNL     1      44.021 -19.904   3.995  1.00  0.00     0.009 A 
HETATM   14  C   UNL     1      44.190 -18.967   5.017  1.00  0.00     0.038 A 
HETATM   15  C   UNL     1      43.944 -17.609   4.791  1.00  0.00     0.076 A 
BRANCH  15  16
HETATM   16  O   UNL     1      44.094 -16.630   5.740  1.00  0.00    -0.355 OA
HETATM   17  C   UNL     1      43.542 -16.870   7.027  1.00  0.00     0.210 C 
ENDBRANCH  15  16
ENDBRANCH   7   9
ENDBRANCH   1   7
BRANCH   3  18
HETATM   18  C   UNL     1      40.427 -13.786   5.970  1.00  0.00     0.163 C 
BRANCH  18  19
HETATM   19  C   UNL     1      39.805 -12.553   5.374  1.00  0.00    -0.035 A 
HETATM   20  C   UNL     1      39.740 -12.387   3.988  1.00  0.00     0.066 A 
HETATM   21  C   UNL     1      39.165 -11.231   3.485  1.00  0.00     0.164 A 
HETATM   22  N   UNL     1      38.649 -10.249   4.252  1.00  0.00    -0.237 NA
HETATM   23  C   UNL     1      38.700 -10.440   5.586  1.00  0.00     0.120 A 
HETATM   24  C   UNL     1      39.259 -11.557   6.188  1.00  0.00     0.028 A 
BRANCH  21  25
HETATM   25  O   UNL     1      39.140 -11.100   2.109  1.00  0.00    -0.329 OA
BRANCH  25  26
HETATM   26  C   UNL     1      39.775 -12.159   1.361  1.00  0.00     0.130 C 
HETATM   27  C   UNL     1      39.191 -12.477  -0.042  1.00  0.00     0.032 C 
HETATM   28  C   UNL     1      40.637 -12.652  -0.538  1.00  0.00     0.005 C 
HETATM   29  C   UNL     1      41.073 -11.740   0.622  1.00  0.00     0.032 C 
ENDBRANCH  25  26
ENDBRANCH  21  25
ENDBRANCH  18  19
ENDBRANCH   3  18
TORSDOF 7
ENDMDL
MODEL 6
REMARK VINA RESULT:      -7.7      1.928      3.604
REMARK  7 active torsions:
REMARK  status: ('A' for Active; 'I' for Inactive)
REMARK    1  A    between atoms: C_4  and  C_5 
REMARK    2  A    between atoms: C_5  and  N_6 
REMARK       I    between atoms: N_6  and  C_7 
REMARK       I    between atoms: C_7  and  N_8 
REMARK    3  A    between atoms: N_8  and  C_9 
REMARK    4  A    between atoms: C_9  and  C_10 
REMARK    5  A    between atoms: C_12  and  O_13 
REMARK    6  A    between atoms: O_13  and  C_14 
REMARK    7  A    between atoms: C_23  and  O_24 
ROOT
HETATM    1  N   UNL     1      42.695 -14.198   3.220  1.00  0.00    -0.335 N 
HETATM    2  C   UNL     1      42.438 -13.029   2.579  1.00  0.00     0.316 C 
HETATM    3  N   UNL     1      43.189 -11.961   2.941  1.00  0.00    -0.339 N 
HETATM    4  O   UNL     1      41.593 -12.877   1.703  1.00  0.00    -0.247 OA
HETATM    5  H   UNL     1      43.080 -14.108   4.143  1.00  0.00     0.165 HD
HETATM    6  H   UNL     1      42.986 -11.156   2.362  1.00  0.00     0.164 HD
ENDROOT
BRANCH   1   7
HETATM    7  C   UNL     1      41.967 -15.456   3.028  1.00  0.00     0.118 C 
HETATM    8  C   UNL     1      40.569 -15.511   3.645  1.00  0.00     0.037 C 
BRANCH   7   9
HETATM    9  C   UNL     1      42.805 -16.673   3.404  1.00  0.00    -0.002 A 
HETATM   10  C   UNL     1      42.872 -17.786   2.544  1.00  0.00     0.018 A 
HETATM   11  C   UNL     1      43.620 -18.922   2.873  1.00  0.00    -0.061 A 
HETATM   12  C   UNL     1      43.677 -20.087   1.929  1.00  0.00     0.048 C 
HETATM   13  C   UNL     1      44.353 -18.927   4.059  1.00  0.00     0.009 A 
HETATM   14  C   UNL     1      44.323 -17.822   4.913  1.00  0.00     0.038 A 
HETATM   15  C   UNL     1      43.559 -16.693   4.597  1.00  0.00     0.076 A 
BRANCH  15  16
HETATM   16  O   UNL     1      43.484 -15.569   5.379  1.00  0.00    -0.355 OA
HETATM   17  C   UNL     1      42.943 -15.710   6.686  1.00  0.00     0.210 C 
ENDBRANCH  15  16
ENDBRANCH   7   9
ENDBRANCH   1   7
BRANCH   3  18
HETATM   18  C   UNL     1      44.368 -11.883   3.775  1.00  0.00     0.163 C 
BRANCH  18  19
HETATM   19  C   UNL     1      44.027 -11.412   5.161  1.00  0.00    -0.035 A 
HETATM   20  C   UNL     1      42.764 -10.883   5.443  1.00  0.00     0.066 A 
HETATM   21  C   UNL     1      42.497 -10.454   6.735  1.00  0.00     0.164 A 
HETATM   22  N   UNL     1      43.382 -10.523   7.750  1.00  0.00    -0.237 NA
HETATM   23  C   UNL     1      44.586 -11.058   7.463  1.00  0.00     0.120 A 
HETATM   24  C   UNL     1      44.952 -11.511   6.204  1.00  0.00     0.028 A 
BRANCH  21  25
HETATM   25  O   UNL     1      41.242  -9.920   6.962  1.00  0.00    -0.329 OA
BRANCH  25  26
HETATM   26  C   UNL     1      40.245 -10.195   5.956  1.00  0.00     0.130 C 
HETATM   27  C   UNL     1      38.862 -10.693   6.454  1.00  0.00     0.032 C 
HETATM   28  C   UNL     1      38.220  -9.796   5.381  1.00  0.00     0.005 C 
HETATM   29  C   UNL     1      39.498  -8.942   5.427  1.00  0.00     0.032 C 
ENDBRANCH  25  26
ENDBRANCH  21  25
ENDBRANCH  18  19
ENDBRANCH   3  18
TORSDOF 7
ENDMDL
MODEL 7
REMARK VINA RESULT:      -7.7      4.473      6.377
REMARK  7 active torsions:
REMARK  status: ('A' for Active; 'I' for Inactive)
REMARK    1  A    between atoms: C_4  and  C_5 
REMARK    2  A    between atoms: C_5  and  N_6 
REMARK       I    between atoms: N_6  and  C_7 
REMARK       I    between atoms: C_7  and  N_8 
REMARK    3  A    between atoms: N_8  and  C_9 
REMARK    4  A    between atoms: C_9  and  C_10 
REMARK    5  A    between atoms: C_12  and  O_13 
REMARK    6  A    between atoms: O_13  and  C_14 
REMARK    7  A    between atoms: C_23  and  O_24 
ROOT
HETATM    1  N   UNL     1      41.296 -14.733   2.814  1.00  0.00    -0.335 N 
HETATM    2  C   UNL     1      40.154 -14.038   2.578  1.00  0.00     0.316 C 
HETATM    3  N   UNL     1      39.560 -14.238   1.376  1.00  0.00    -0.339 N 
HETATM    4  O   UNL     1      39.627 -13.261   3.366  1.00  0.00    -0.247 OA
HETATM    5  H   UNL     1      41.823 -14.989   1.998  1.00  0.00     0.165 HD
HETATM    6  H   UNL     1      38.679 -13.744   1.315  1.00  0.00     0.164 HD
ENDROOT
BRANCH   1   7
HETATM    7  C   UNL     1      42.129 -14.625   4.016  1.00  0.00     0.118 C 
HETATM    8  C   UNL     1      43.134 -13.473   4.023  1.00  0.00     0.037 C 
BRANCH   7   9
HETATM    9  C   UNL     1      42.779 -15.952   4.390  1.00  0.00    -0.002 A 
HETATM   10  C   UNL     1      43.087 -16.901   3.395  1.00  0.00     0.018 A 
HETATM   11  C   UNL     1      43.668 -18.133   3.713  1.00  0.00    -0.061 A 
HETATM   12  C   UNL     1      43.993 -19.116   2.628  1.00  0.00     0.048 C 
HETATM   13  C   UNL     1      43.992 -18.404   5.042  1.00  0.00     0.009 A 
HETATM   14  C   UNL     1      43.722 -17.465   6.041  1.00  0.00     0.038 A 
HETATM   15  C   UNL     1      43.120 -16.241   5.728  1.00  0.00     0.076 A 
BRANCH  15  16
HETATM   16  O   UNL     1      42.830 -15.268   6.651  1.00  0.00    -0.355 OA
HETATM   17  C   UNL     1      43.010 -15.587   8.024  1.00  0.00     0.210 C 
ENDBRANCH  15  16
ENDBRANCH   7   9
ENDBRANCH   1   7
BRANCH   3  18
HETATM   18  C   UNL     1      39.829 -15.221   0.349  1.00  0.00     0.163 C 
BRANCH  18  19
HETATM   19  C   UNL     1      39.683 -14.629  -1.025  1.00  0.00    -0.035 A 
HETATM   20  C   UNL     1      40.473 -13.547  -1.423  1.00  0.00     0.066 A 
HETATM   21  C   UNL     1      40.298 -13.030  -2.697  1.00  0.00     0.164 A 
HETATM   22  N   UNL     1      39.413 -13.513  -3.592  1.00  0.00    -0.237 NA
HETATM   23  C   UNL     1      38.677 -14.572  -3.197  1.00  0.00     0.120 A 
HETATM   24  C   UNL     1      38.773 -15.158  -1.944  1.00  0.00     0.028 A 
BRANCH  21  25
HETATM   25  O   UNL     1      41.087 -11.947  -3.039  1.00  0.00    -0.329 OA
BRANCH  25  26
HETATM   26  C   UNL     1      40.680 -10.672  -2.502  1.00  0.00     0.130 C 
HETATM   27  C   UNL     1      41.660  -9.978  -1.517  1.00  0.00     0.032 C 
HETATM   28  C   UNL     1      41.311  -8.646  -2.202  1.00  0.00     0.005 C 
HETATM   29  C   UNL     1      40.924  -9.465  -3.446  1.00  0.00     0.032 C 
ENDBRANCH  25  26
ENDBRANCH  21  25
ENDBRANCH  18  19
ENDBRANCH   3  18
TORSDOF 7
ENDMDL
MODEL 8
REMARK VINA RESULT:      -7.5      2.517      4.091
REMARK  7 active torsions:
REMARK  status: ('A' for Active; 'I' for Inactive)
REMARK    1  A    between atoms: C_4  and  C_5 
REMARK    2  A    between atoms: C_5  and  N_6 
REMARK       I    between atoms: N_6  and  C_7 
REMARK       I    between atoms: C_7  and  N_8 
REMARK    3  A    between atoms: N_8  and  C_9 
REMARK    4  A    between atoms: C_9  and  C_10 
REMARK    5  A    between atoms: C_12  and  O_13 
REMARK    6  A    between atoms: O_13  and  C_14 
REMARK    7  A    between atoms: C_23  and  O_24 
ROOT
HETATM    1  N   UNL     1      41.337 -13.785   5.479  1.00  0.00    -0.335 N 
HETATM    2  C   UNL     1      40.508 -12.834   5.981  1.00  0.00     0.316 C 
HETATM    3  N   UNL     1      41.077 -11.650   6.318  1.00  0.00    -0.339 N 
HETATM    4  O   UNL     1      39.299 -12.965   6.139  1.00  0.00    -0.247 OA
HETATM    5  H   UNL     1      42.296 -13.721   5.773  1.00  0.00     0.165 HD
HETATM    6  H   UNL     1      40.379 -10.977   6.608  1.00  0.00     0.164 HD
ENDROOT
BRANCH   1   7
HETATM    7  C   UNL     1      40.947 -15.148   5.106  1.00  0.00     0.118 C 
HETATM    8  C   UNL     1      40.865 -16.150   6.258  1.00  0.00     0.037 C 
BRANCH   7   9
HETATM    9  C   UNL     1      41.768 -15.686   3.939  1.00  0.00    -0.002 A 
HETATM   10  C   UNL     1      42.506 -16.878   4.076  1.00  0.00     0.018 A 
HETATM   11  C   UNL     1      43.281 -17.384   3.027  1.00  0.00    -0.061 A 
HETATM   12  C   UNL     1      44.046 -18.662   3.203  1.00  0.00     0.048 C 
HETATM   13  C   UNL     1      43.280 -16.714   1.804  1.00  0.00     0.009 A 
HETATM   14  C   UNL     1      42.533 -15.546   1.638  1.00  0.00     0.038 A 
HETATM   15  C   UNL     1      41.774 -15.026   2.692  1.00  0.00     0.076 A 
BRANCH  15  16
HETATM   16  O   UNL     1      41.011 -13.889   2.605  1.00  0.00    -0.355 OA
HETATM   17  C   UNL     1      40.052 -13.819   1.558  1.00  0.00     0.210 C 
ENDBRANCH  15  16
ENDBRANCH   7   9
ENDBRANCH   1   7
BRANCH   3  18
HETATM   18  C   UNL     1      42.407 -11.142   6.062  1.00  0.00     0.163 C 
BRANCH  18  19
HETATM   19  C   UNL     1      42.724  -9.971   6.950  1.00  0.00    -0.035 A 
HETATM   20  C   UNL     1      43.765 -10.044   7.881  1.00  0.00     0.066 A 
HETATM   21  C   UNL     1      44.016  -8.941   8.683  1.00  0.00     0.164 A 
HETATM   22  N   UNL     1      43.322  -7.787   8.617  1.00  0.00    -0.237 NA
HETATM   23  C   UNL     1      42.338  -7.729   7.696  1.00  0.00     0.120 A 
HETATM   24  C   UNL     1      42.005  -8.777   6.851  1.00  0.00     0.028 A 
BRANCH  21  25
HETATM   25  O   UNL     1      45.041  -9.066   9.602  1.00  0.00    -0.329 OA
BRANCH  25  26
HETATM   26  C   UNL     1      44.662  -9.532  10.914  1.00  0.00     0.130 C 
HETATM   27  C   UNL     1      43.686  -8.635  11.724  1.00  0.00     0.032 C 
HETATM   28  C   UNL     1      42.983  -9.923  12.187  1.00  0.00     0.005 C 
HETATM   29  C   UNL     1      43.537 -10.600  10.921  1.00  0.00     0.032 C 
ENDBRANCH  25  26
ENDBRANCH  21  25
ENDBRANCH  18  19
ENDBRANCH   3  18
TORSDOF 7
ENDMDL
MODEL 9
REMARK VINA RESULT:      -7.4      3.504      6.104
REMARK  7 active torsions:
REMARK  status: ('A' for Active; 'I' for Inactive)
REMARK    1  A    between atoms: C_4  and  C_5 
REMARK    2  A    between atoms: C_5  and  N_6 
REMARK       I    between atoms: N_6  and  C_7 
REMARK       I    between atoms: C_7  and  N_8 
REMARK    3  A    between atoms: N_8  and  C_9 
REMARK    4  A    between atoms: C_9  and  C_10 
REMARK    5  A    between atoms: C_12  and  O_13 
REMARK    6  A    between atoms: O_13  and  C_14 
REMARK    7  A    between atoms: C_23  and  O_24 
ROOT
HETATM    1  N   UNL     1      41.961 -15.177   4.902  1.00  0.00    -0.335 N 
HETATM    2  C   UNL     1      41.537 -13.963   5.338  1.00  0.00     0.316 C 
HETATM    3  N   UNL     1      40.720 -13.272   4.505  1.00  0.00    -0.339 N 
HETATM    4  O   UNL     1      41.829 -13.461   6.417  1.00  0.00    -0.247 OA
HETATM    5  H   UNL     1      42.002 -15.288   3.904  1.00  0.00     0.165 HD
HETATM    6  H   UNL     1      40.391 -12.419   4.940  1.00  0.00     0.164 HD
ENDROOT
BRANCH   1   7
HETATM    7  C   UNL     1      42.890 -16.063   5.611  1.00  0.00     0.118 C 
HETATM    8  C   UNL     1      44.111 -15.381   6.229  1.00  0.00     0.037 C 
BRANCH   7   9
HETATM    9  C   UNL     1      43.276 -17.281   4.779  1.00  0.00    -0.002 A 
HETATM   10  C   UNL     1      43.621 -18.493   5.408  1.00  0.00     0.018 A 
HETATM   11  C   UNL     1      43.996 -19.621   4.669  1.00  0.00    -0.061 A 
HETATM   12  C   UNL     1      44.347 -20.899   5.370  1.00  0.00     0.048 C 
HETATM   13  C   UNL     1      43.979 -19.551   3.277  1.00  0.00     0.009 A 
HETATM   14  C   UNL     1      43.613 -18.367   2.632  1.00  0.00     0.038 A 
HETATM   15  C   UNL     1      43.259 -17.231   3.369  1.00  0.00     0.076 A 
BRANCH  15  16
HETATM   16  O   UNL     1      42.882 -16.037   2.810  1.00  0.00    -0.355 OA
HETATM   17  C   UNL     1      43.424 -15.704   1.539  1.00  0.00     0.210 C 
ENDBRANCH  15  16
ENDBRANCH   7   9
ENDBRANCH   1   7
BRANCH   3  18
HETATM   18  C   UNL     1      40.054 -13.684   3.289  1.00  0.00     0.163 C 
BRANCH  18  19
HETATM   19  C   UNL     1      40.341 -12.732   2.161  1.00  0.00    -0.035 A 
HETATM   20  C   UNL     1      39.634 -12.820   0.958  1.00  0.00     0.066 A 
HETATM   21  C   UNL     1      39.938 -11.925  -0.057  1.00  0.00     0.164 A 
HETATM   22  N   UNL     1      40.873 -10.959   0.044  1.00  0.00    -0.237 NA
HETATM   23  C   UNL     1      41.527 -10.876   1.221  1.00  0.00     0.120 A 
HETATM   24  C   UNL     1      41.301 -11.725   2.294  1.00  0.00     0.028 A 
BRANCH  21  25
HETATM   25  O   UNL     1      39.227 -12.062  -1.235  1.00  0.00    -0.329 OA
BRANCH  25  26
HETATM   26  C   UNL     1      38.823 -13.404  -1.578  1.00  0.00     0.130 C 
HETATM   27  C   UNL     1      37.721 -13.551  -2.662  1.00  0.00     0.032 C 
HETATM   28  C   UNL     1      38.514 -14.745  -3.221  1.00  0.00     0.005 C 
HETATM   29  C   UNL     1      39.767 -14.129  -2.574  1.00  0.00     0.032 C 
ENDBRANCH  25  26
ENDBRANCH  21  25
ENDBRANCH  18  19
ENDBRANCH   3  18
TORSDOF 7
ENDMDL
MODEL 10
REMARK VINA RESULT:      -7.4      2.592      4.476
REMARK  7 active torsions:
REMARK  status: ('A' for Active; 'I' for Inactive)
REMARK    1  A    between atoms: C_4  and  C_5 
REMARK    2  A    between atoms: C_5  and  N_6 
REMARK       I    between atoms: N_6  and  C_7 
REMARK       I    between atoms: C_7  and  N_8 
REMARK    3  A    between atoms: N_8  and  C_9 
REMARK    4  A    between atoms: C_9  and  C_10 
REMARK    5  A    between atoms: C_12  and  O_13 
REMARK    6  A    between atoms: O_13  and  C_14 
REMARK    7  A    between atoms: C_23  and  O_24 
ROOT
HETATM    1  N   UNL     1      42.512 -14.101   5.823  1.00  0.00    -0.335 N 
HETATM    2  C   UNL     1      42.885 -13.053   5.044  1.00  0.00     0.316 C 
HETATM    3  N   UNL     1      43.783 -12.190   5.578  1.00  0.00    -0.339 N 
HETATM    4  O   UNL     1      42.478 -12.842   3.907  1.00  0.00    -0.247 OA
HETATM    5  H   UNL     1      42.577 -13.947   6.814  1.00  0.00     0.165 HD
HETATM    6  H   UNL     1      44.063 -11.488   4.904  1.00  0.00     0.164 HD
ENDROOT
BRANCH   1   7
HETATM    7  C   UNL     1      41.515 -15.116   5.470  1.00  0.00     0.118 C 
HETATM    8  C   UNL     1      40.806 -15.783   6.649  1.00  0.00     0.037 C 
BRANCH   7   9
HETATM    9  C   UNL     1      42.057 -16.139   4.478  1.00  0.00    -0.002 A 
HETATM   10  C   UNL     1      43.104 -17.007   4.848  1.00  0.00     0.018 A 
HETATM   11  C   UNL     1      43.631 -17.943   3.952  1.00  0.00    -0.061 A 
HETATM   12  C   UNL     1      44.739 -18.858   4.382  1.00  0.00     0.048 C 
HETATM   13  C   UNL     1      43.071 -18.048   2.679  1.00  0.00     0.009 A 
HETATM   14  C   UNL     1      42.014 -17.217   2.301  1.00  0.00     0.038 A 
HETATM   15  C   UNL     1      41.499 -16.265   3.188  1.00  0.00     0.076 A 
BRANCH  15  16
HETATM   16  O   UNL     1      40.460 -15.420   2.893  1.00  0.00    -0.355 OA
HETATM   17  C   UNL     1      39.959 -15.430   1.563  1.00  0.00     0.210 C 
ENDBRANCH  15  16
ENDBRANCH   7   9
ENDBRANCH   1   7
BRANCH   3  18
HETATM   18  C   UNL     1      44.575 -12.288   6.784  1.00  0.00     0.163 C 
BRANCH  18  19
HETATM   19  C   UNL     1      44.588 -10.986   7.535  1.00  0.00    -0.035 A 
HETATM   20  C   UNL     1      43.423 -10.223   7.659  1.00  0.00     0.066 A 
HETATM   21  C   UNL     1      43.485  -9.025   8.355  1.00  0.00     0.164 A 
HETATM   22  N   UNL     1      44.605  -8.547   8.935  1.00  0.00    -0.237 NA
HETATM   23  C   UNL     1      45.712  -9.310   8.825  1.00  0.00     0.120 A 
HETATM   24  C   UNL     1      45.755 -10.518   8.146  1.00  0.00     0.028 A 
BRANCH  21  25
HETATM   25  O   UNL     1      42.314  -8.295   8.435  1.00  0.00    -0.329 OA
BRANCH  25  26
HETATM   26  C   UNL     1      41.317  -8.794   9.351  1.00  0.00     0.130 C 
HETATM   27  C   UNL     1      40.484  -7.738  10.127  1.00  0.00     0.032 C 
HETATM   28  C   UNL     1      39.254  -8.636   9.908  1.00  0.00     0.005 C 
HETATM   29  C   UNL     1      39.982  -9.220   8.685  1.00  0.00     0.032 C 
ENDBRANCH  25  26
ENDBRANCH  21  25
ENDBRANCH  18  19
ENDBRANCH   3  18
TORSDOF 7
ENDMDL
