MODEL 1
REMARK VINA RESULT:      -7.5      0.000      0.000
REMARK  8 active torsions:
REMARK  status: ('A' for Active; 'I' for Inactive)
REMARK       I    between atoms: C_2  and  N_3 
REMARK    1  A    between atoms: N_3  and  C_4 
REMARK    2  A    between atoms: C_6  and  C_7 
REMARK    3  A    between atoms: C_7  and  N_8 
REMARK    4  A    between atoms: C_11  and  C_12 
REMARK    5  A    between atoms: C_14  and  S_15 
REMARK    6  A    between atoms: S_15  and  C_16 
REMARK    7  A    between atoms: C_16  and  C_17 
REMARK    8  A    between atoms: C_17  and  N_18 
ROOT
HETATM    1  N   UNL     1      40.973 -14.668   2.641  1.00  0.00    -0.066 N 
HETATM    2  H   UNL     1      41.286 -14.702   3.620  1.00  0.00     0.280 HD
HETATM    3  C   UNL     1      41.029 -16.095   2.134  1.00  0.00     0.246 C 
HETATM    4  C   UNL     1      42.443 -16.681   2.208  1.00  0.00     0.064 C 
HETATM    5  C   UNL     1      43.490 -15.739   1.598  1.00  0.00     0.014 C 
HETATM    6  C   UNL     1      43.357 -14.296   2.070  1.00  0.00     0.028 C 
HETATM    7  C   UNL     1      41.939 -13.772   1.901  1.00  0.00     0.235 C 
ENDROOT
BRANCH   4   8
HETATM    8  C   UNL     1      42.813 -17.133   3.615  1.00  0.00     0.044 A 
HETATM    9  N   UNL     1      42.333 -16.439   4.684  1.00  0.00    -0.227 NA
HETATM   10  C   UNL     1      42.822 -16.817   5.890  1.00  0.00     0.188 A 
HETATM   11  N   UNL     1      43.607 -17.877   6.111  1.00  0.00    -0.235 NA
HETATM   12  C   UNL     1      44.035 -18.551   5.034  1.00  0.00     0.121 A 
HETATM   13  C   UNL     1      43.679 -18.209   3.754  1.00  0.00     0.047 A 
BRANCH  10  14
HETATM   14  S   UNL     1      42.530 -15.818   7.332  1.00  0.00    -0.088 SA
BRANCH  14  15
HETATM   15  C   UNL     1      42.625 -14.142   6.660  1.00  0.00     0.110 C 
BRANCH  15  16
HETATM   16  C   UNL     1      43.983 -13.484   6.909  1.00  0.00     0.245 C 
BRANCH  16  17
HETATM   17  N   UNL     1      43.941 -11.976   6.855  1.00  0.00    -0.070 N 
HETATM   18  H   UNL     1      43.035 -11.696   6.448  1.00  0.00     0.279 HD
HETATM   19  C   UNL     1      45.042 -11.406   5.965  1.00  0.00     0.235 C 
HETATM   20  C   UNL     1      46.089 -10.938   6.951  1.00  0.00     0.029 C 
HETATM   21  C   UNL     1      45.244 -10.316   8.042  1.00  0.00     0.029 C 
HETATM   22  C   UNL     1      44.087 -11.286   8.208  1.00  0.00     0.235 C 
ENDBRANCH  16  17
ENDBRANCH  15  16
ENDBRANCH  14  15
ENDBRANCH  10  14
ENDBRANCH   4   8
BRANCH   1  23
HETATM   23  C   UNL     1      39.560 -14.101   2.608  1.00  0.00     0.280 C 
BRANCH  23  24
HETATM   24  C   UNL     1      39.429 -12.814   3.363  1.00  0.00     0.010 A 
HETATM   25  S   UNL     1      39.684 -12.762   5.062  1.00  0.00    -0.075 SA
HETATM   26  C   UNL     1      39.439 -11.085   5.112  1.00  0.00     0.076 A 
HETATM   27  C   UNL     1      39.062 -10.573   3.895  1.00  0.00     0.038 A 
HETATM   28  C   UNL     1      39.042 -11.579   2.882  1.00  0.00     0.019 A 
BRANCH  26  29
HETATM   29  N   UNL     1      39.631 -10.510   6.344  1.00  0.00    -0.322 N 
HETATM   30  C   UNL     1      40.808  -9.874   6.692  1.00  0.00     0.218 C 
HETATM   31  C   UNL     1      40.748  -9.239   8.056  1.00  0.00     0.117 C 
HETATM   32  O   UNL     1      41.838  -9.880   6.021  1.00  0.00    -0.274 OA
HETATM   33  H   UNL     1      38.903 -10.626   7.040  1.00  0.00     0.169 HD
ENDBRANCH  26  29
ENDBRANCH  23  24
ENDBRANCH   1  23
TORSDOF 8
ENDMDL
MODEL 2
REMARK VINA RESULT:      -7.2      2.850      5.544
REMARK  8 active torsions:
REMARK  status: ('A' for Active; 'I' for Inactive)
REMARK       I    between atoms: C_2  and  N_3 
REMARK    1  A    between atoms: N_3  and  C_4 
REMARK    2  A    between atoms: C_6  and  C_7 
REMARK    3  A    between atoms: C_7  and  N_8 
REMARK    4  A    between atoms: C_11  and  C_12 
REMARK    5  A    between atoms: C_14  and  S_15 
REMARK    6  A    between atoms: S_15  and  C_16 
REMARK    7  A    between atoms: C_16  and  C_17 
REMARK    8  A    between atoms: C_17  and  N_18 
ROOT
HETATM    1  N   UNL     1      43.166 -16.346   4.606  1.00  0.00    -0.066 N 
HETATM    2  H   UNL     1      43.885 -15.692   4.269  1.00  0.00     0.280 HD
HETATM    3  C   UNL     1      42.082 -15.491   5.229  1.00  0.00     0.246 C 
HETATM    4  C   UNL     1      42.607 -14.650   6.397  1.00  0.00     0.064 C 
HETATM    5  C   UNL     1      43.418 -15.490   7.393  1.00  0.00     0.014 C 
HETATM    6  C   UNL     1      44.447 -16.397   6.727  1.00  0.00     0.028 C 
HETATM    7  C   UNL     1      43.829 -17.243   5.625  1.00  0.00     0.235 C 
ENDROOT
BRANCH   4   8
HETATM    8  C   UNL     1      43.361 -13.410   5.930  1.00  0.00     0.044 A 
HETATM    9  N   UNL     1      44.281 -12.842   6.757  1.00  0.00    -0.227 NA
HETATM   10  C   UNL     1      44.801 -11.665   6.328  1.00  0.00     0.188 A 
HETATM   11  N   UNL     1      44.586 -11.115   5.128  1.00  0.00    -0.235 NA
HETATM   12  C   UNL     1      43.694 -11.722   4.332  1.00  0.00     0.121 A 
HETATM   13  C   UNL     1      43.037 -12.871   4.693  1.00  0.00     0.047 A 
BRANCH  10  14
HETATM   14  S   UNL     1      45.772 -10.658   7.423  1.00  0.00    -0.088 SA
BRANCH  14  15
HETATM   15  C   UNL     1      44.781 -10.676   8.936  1.00  0.00     0.110 C 
BRANCH  15  16
HETATM   16  C   UNL     1      43.462  -9.918   8.784  1.00  0.00     0.245 C 
BRANCH  16  17
HETATM   17  N   UNL     1      42.641  -9.877  10.050  1.00  0.00    -0.070 N 
HETATM   18  H   UNL     1      41.853 -10.535   9.942  1.00  0.00     0.279 HD
HETATM   19  C   UNL     1      42.051  -8.492  10.303  1.00  0.00     0.235 C 
HETATM   20  C   UNL     1      42.963  -7.905  11.356  1.00  0.00     0.029 C 
HETATM   21  C   UNL     1      43.199  -9.089  12.270  1.00  0.00     0.029 C 
HETATM   22  C   UNL     1      43.404 -10.253  11.317  1.00  0.00     0.235 C 
ENDBRANCH  16  17
ENDBRANCH  15  16
ENDBRANCH  14  15
ENDBRANCH  10  14
ENDBRANCH   4   8
BRANCH   1  23
HETATM   23  C   UNL     1      42.653 -17.149   3.418  1.00  0.00     0.280 C 
BRANCH  23  24
HETATM   24  C   UNL     1      41.802 -16.340   2.488  1.00  0.00     0.010 A 
HETATM   25  S   UNL     1      42.503 -15.143   1.472  1.00  0.00    -0.075 SA
HETATM   26  C   UNL     1      41.008 -14.785   0.756  1.00  0.00     0.076 A 
HETATM   27  C   UNL     1      39.970 -15.468   1.338  1.00  0.00     0.038 A 
HETATM   28  C   UNL     1      40.428 -16.361   2.354  1.00  0.00     0.019 A 
BRANCH  26  29
HETATM   29  N   UNL     1      41.062 -13.866  -0.263  1.00  0.00    -0.322 N 
HETATM   30  C   UNL     1      40.914 -12.508  -0.048  1.00  0.00     0.218 C 
HETATM   31  C   UNL     1      41.108 -11.693  -1.299  1.00  0.00     0.117 C 
HETATM   32  O   UNL     1      40.578 -11.995   1.018  1.00  0.00    -0.274 OA
HETATM   33  H   UNL     1      41.142 -14.214  -1.212  1.00  0.00     0.169 HD
ENDBRANCH  26  29
ENDBRANCH  23  24
ENDBRANCH   1  23
TORSDOF 8
ENDMDL
MODEL 3
REMARK VINA RESULT:      -7.2      2.503      5.633
REMARK  8 active torsions:
REMARK  status: ('A' for Active; 'I' for Inactive)
REMARK       I    between atoms: C_2  and  N_3 
REMARK    1  A    between atoms: N_3  and  C_4 
REMARK    2  A    between atoms: C_6  and  C_7 
REMARK    3  A    between atoms: C_7  and  N_8 
REMARK    4  A    between atoms: C_11  and  C_12 
REMARK    5  A    between atoms: C_14  and  S_15 
REMARK    6  A    between atoms: S_15  and  C_16 
REMARK    7  A    between atoms: C_16  and  C_17 
REMARK    8  A    between atoms: C_17  and  N_18 
ROOT
HETATM    1  N   UNL     1      42.908 -13.392   5.453  1.00  0.00    -0.066 N 
HETATM    2  H   UNL     1      42.943 -14.004   4.626  1.00  0.00     0.280 HD
HETATM    3  C   UNL     1      43.632 -14.138   6.556  1.00  0.00     0.246 C 
HETATM    4  C   UNL     1      42.972 -15.482   6.876  1.00  0.00     0.064 C 
HETATM    5  C   UNL     1      41.457 -15.347   7.077  1.00  0.00     0.014 C 
HETATM    6  C   UNL     1      40.771 -14.527   5.991  1.00  0.00     0.028 C 
HETATM    7  C   UNL     1      41.449 -13.181   5.783  1.00  0.00     0.235 C 
ENDROOT
BRANCH   4   8
HETATM    8  C   UNL     1      43.333 -16.564   5.865  1.00  0.00     0.044 A 
HETATM    9  N   UNL     1      43.336 -16.258   4.538  1.00  0.00    -0.227 NA
HETATM   10  C   UNL     1      43.527 -17.307   3.700  1.00  0.00     0.188 A 
HETATM   11  N   UNL     1      43.841 -18.551   4.075  1.00  0.00    -0.235 NA
HETATM   12  C   UNL     1      43.856 -18.804   5.391  1.00  0.00     0.121 A 
HETATM   13  C   UNL     1      43.592 -17.844   6.335  1.00  0.00     0.047 A 
BRANCH  10  14
HETATM   14  S   UNL     1      43.253 -17.123   1.953  1.00  0.00    -0.088 SA
BRANCH  14  15
HETATM   15  C   UNL     1      42.143 -15.697   1.889  1.00  0.00     0.110 C 
BRANCH  15  16
HETATM   16  C   UNL     1      40.673 -16.089   2.045  1.00  0.00     0.245 C 
BRANCH  16  17
HETATM   17  N   UNL     1      39.712 -15.041   1.536  1.00  0.00    -0.070 N 
HETATM   18  H   UNL     1      38.763 -15.449   1.540  1.00  0.00     0.279 HD
HETATM   19  C   UNL     1      40.028 -14.626   0.102  1.00  0.00     0.235 C 
HETATM   20  C   UNL     1      40.747 -13.306   0.266  1.00  0.00     0.029 C 
HETATM   21  C   UNL     1      39.943 -12.638   1.361  1.00  0.00     0.029 C 
HETATM   22  C   UNL     1      39.681 -13.755   2.356  1.00  0.00     0.235 C 
ENDBRANCH  16  17
ENDBRANCH  15  16
ENDBRANCH  14  15
ENDBRANCH  10  14
ENDBRANCH   4   8
BRANCH   1  23
HETATM   23  C   UNL     1      43.589 -12.076   5.105  1.00  0.00     0.280 C 
BRANCH  23  24
HETATM   24  C   UNL     1      44.196 -11.398   6.295  1.00  0.00     0.010 A 
HETATM   25  S   UNL     1      43.245 -10.392   7.313  1.00  0.00    -0.075 SA
HETATM   26  C   UNL     1      44.549 -10.109   8.359  1.00  0.00     0.076 A 
HETATM   27  C   UNL     1      45.718 -10.667   7.904  1.00  0.00     0.038 A 
HETATM   28  C   UNL     1      45.517 -11.404   6.697  1.00  0.00     0.019 A 
BRANCH  26  29
HETATM   29  N   UNL     1      44.246  -9.360   9.470  1.00  0.00    -0.322 N 
HETATM   30  C   UNL     1      43.978  -9.931  10.700  1.00  0.00     0.218 C 
HETATM   31  C   UNL     1      43.769  -8.909  11.786  1.00  0.00     0.117 C 
HETATM   32  O   UNL     1      43.835 -11.135  10.904  1.00  0.00    -0.274 OA
HETATM   33  H   UNL     1      44.147  -8.358   9.353  1.00  0.00     0.169 HD
ENDBRANCH  26  29
ENDBRANCH  23  24
ENDBRANCH   1  23
TORSDOF 8
ENDMDL
MODEL 4
REMARK VINA RESULT:      -6.9      2.897      5.756
REMARK  8 active torsions:
REMARK  status: ('A' for Active; 'I' for Inactive)
REMARK       I    between atoms: C_2  and  N_3 
REMARK    1  A    between atoms: N_3  and  C_4 
REMARK    2  A    between atoms: C_6  and  C_7 
REMARK    3  A    between atoms: C_7  and  N_8 
REMARK    4  A    between atoms: C_11  and  C_12 
REMARK    5  A    between atoms: C_14  and  S_15 
REMARK    6  A    between atoms: S_15  and  C_16 
REMARK    7  A    between atoms: C_16  and  C_17 
REMARK    8  A    between atoms: C_17  and  N_18 
ROOT
HETATM    1  N   UNL     1      42.589 -16.528   3.845  1.00  0.00    -0.066 N 
HETATM    2  H   UNL     1      43.150 -15.685   3.665  1.00  0.00     0.280 HD
HETATM    3  C   UNL     1      41.622 -16.160   4.952  1.00  0.00     0.246 C 
HETATM    4  C   UNL     1      42.344 -15.733   6.234  1.00  0.00     0.064 C 
HETATM    5  C   UNL     1      43.437 -16.731   6.639  1.00  0.00     0.014 C 
HETATM    6  C   UNL     1      44.345 -17.140   5.485  1.00  0.00     0.028 C 
HETATM    7  C   UNL     1      43.549 -17.612   4.277  1.00  0.00     0.235 C 
ENDROOT
BRANCH   4   8
HETATM    8  C   UNL     1      42.858 -14.300   6.163  1.00  0.00     0.044 A 
HETATM    9  N   UNL     1      42.659 -13.579   5.026  1.00  0.00    -0.227 NA
HETATM   10  C   UNL     1      43.269 -12.368   4.991  1.00  0.00     0.188 A 
HETATM   11  N   UNL     1      43.913 -11.795   6.014  1.00  0.00    -0.235 NA
HETATM   12  C   UNL     1      44.062 -12.528   7.125  1.00  0.00     0.121 A 
HETATM   13  C   UNL     1      43.565 -13.801   7.248  1.00  0.00     0.047 A 
BRANCH  10  14
HETATM   14  S   UNL     1      43.357 -11.449   3.472  1.00  0.00    -0.088 SA
BRANCH  14  15
HETATM   15  C   UNL     1      41.644 -10.916   3.249  1.00  0.00     0.110 C 
BRANCH  15  16
HETATM   16  C   UNL     1      41.134 -10.070   4.416  1.00  0.00     0.245 C 
BRANCH  16  17
HETATM   17  N   UNL     1      40.811 -10.876   5.650  1.00  0.00    -0.070 N 
HETATM   18  H   UNL     1      41.581 -11.547   5.804  1.00  0.00     0.279 HD
HETATM   19  C   UNL     1      39.525 -11.681   5.487  1.00  0.00     0.235 C 
HETATM   20  C   UNL     1      38.499 -10.868   6.243  1.00  0.00     0.029 C 
HETATM   21  C   UNL     1      39.276 -10.435   7.469  1.00  0.00     0.029 C 
HETATM   22  C   UNL     1      40.640 -10.051   6.923  1.00  0.00     0.235 C 
ENDBRANCH  16  17
ENDBRANCH  15  16
ENDBRANCH  14  15
ENDBRANCH  10  14
ENDBRANCH   4   8
BRANCH   1  23
HETATM   23  C   UNL     1      41.871 -16.911   2.558  1.00  0.00     0.280 C 
BRANCH  23  24
HETATM   24  C   UNL     1      41.432 -15.723   1.758  1.00  0.00     0.010 A 
HETATM   25  S   UNL     1      39.941 -15.742   0.903  1.00  0.00    -0.075 SA
HETATM   26  C   UNL     1      40.149 -14.143   0.378  1.00  0.00     0.076 A 
HETATM   27  C   UNL     1      41.367 -13.625   0.740  1.00  0.00     0.038 A 
HETATM   28  C   UNL     1      42.120 -14.548   1.530  1.00  0.00     0.019 A 
BRANCH  26  29
HETATM   29  N   UNL     1      39.095 -13.628  -0.336  1.00  0.00    -0.322 N 
HETATM   30  C   UNL     1      38.964 -13.804  -1.701  1.00  0.00     0.218 C 
HETATM   31  C   UNL     1      37.681 -13.234  -2.245  1.00  0.00     0.117 C 
HETATM   32  O   UNL     1      39.821 -14.293  -2.435  1.00  0.00    -0.274 OA
HETATM   33  H   UNL     1      38.432 -13.038   0.156  1.00  0.00     0.169 HD
ENDBRANCH  26  29
ENDBRANCH  23  24
ENDBRANCH   1  23
TORSDOF 8
ENDMDL
MODEL 5
REMARK VINA RESULT:      -6.8      4.528      8.483
REMARK  8 active torsions:
REMARK  status: ('A' for Active; 'I' for Inactive)
REMARK       I    between atoms: C_2  and  N_3 
REMARK    1  A    between atoms: N_3  and  C_4 
REMARK    2  A    between atoms: C_6  and  C_7 
REMARK    3  A    between atoms: C_7  and  N_8 
REMARK    4  A    between atoms: C_11  and  C_12 
REMARK    5  A    between atoms: C_14  and  S_15 
REMARK    6  A    between atoms: S_15  and  C_16 
REMARK    7  A    between atoms: C_16  and  C_17 
REMARK    8  A    between atoms: C_17  and  N_18 
ROOT
HETATM    1  N   UNL     1      42.155  -9.686  10.123  1.00  0.00    -0.066 N 
HETATM    2  H   UNL     1      42.141 -10.500   9.494  1.00  0.00     0.280 HD
HETATM    3  C   UNL     1      42.965  -8.621   9.412  1.00  0.00     0.246 C 
HETATM    4  C   UNL     1      44.398  -9.079   9.124  1.00  0.00     0.064 C 
HETATM    5  C   UNL     1      45.072  -9.679  10.365  1.00  0.00     0.014 C 
HETATM    6  C   UNL     1      44.199 -10.690  11.101  1.00  0.00     0.028 C 
HETATM    7  C   UNL     1      42.818 -10.131  11.406  1.00  0.00     0.235 C 
ENDROOT
BRANCH   4   8
HETATM    8  C   UNL     1      44.484  -9.999   7.911  1.00  0.00     0.044 A 
HETATM    9  N   UNL     1      43.339 -10.350   7.263  1.00  0.00    -0.227 NA
HETATM   10  C   UNL     1      43.485 -11.279   6.287  1.00  0.00     0.188 A 
HETATM   11  N   UNL     1      44.652 -11.754   5.838  1.00  0.00    -0.235 NA
HETATM   12  C   UNL     1      45.758 -11.361   6.485  1.00  0.00     0.121 A 
HETATM   13  C   UNL     1      45.728 -10.491   7.546  1.00  0.00     0.047 A 
BRANCH  10  14
HETATM   14  S   UNL     1      42.060 -12.059   5.566  1.00  0.00    -0.088 SA
BRANCH  14  15
HETATM   15  C   UNL     1      42.800 -13.420   4.634  1.00  0.00     0.110 C 
BRANCH  15  16
HETATM   16  C   UNL     1      41.849 -14.606   4.468  1.00  0.00     0.245 C 
BRANCH  16  17
HETATM   17  N   UNL     1      41.726 -15.086   3.042  1.00  0.00    -0.070 N 
HETATM   18  H   UNL     1      40.855 -14.696   2.648  1.00  0.00     0.279 HD
HETATM   19  C   UNL     1      41.629 -16.606   2.958  1.00  0.00     0.235 C 
HETATM   20  C   UNL     1      43.023 -17.028   2.553  1.00  0.00     0.029 C 
HETATM   21  C   UNL     1      43.389 -15.977   1.526  1.00  0.00     0.029 C 
HETATM   22  C   UNL     1      42.882 -14.680   2.132  1.00  0.00     0.235 C 
ENDBRANCH  16  17
ENDBRANCH  15  16
ENDBRANCH  14  15
ENDBRANCH  10  14
ENDBRANCH   4   8
BRANCH   1  23
HETATM   23  C   UNL     1      40.718  -9.246  10.370  1.00  0.00     0.280 C 
BRANCH  23  24
HETATM   24  C   UNL     1      40.597  -8.229  11.463  1.00  0.00     0.010 A 
HETATM   25  S   UNL     1      40.016  -8.675  13.018  1.00  0.00    -0.075 SA
HETATM   26  C   UNL     1      40.242  -7.107  13.622  1.00  0.00     0.076 A 
HETATM   27  C   UNL     1      40.645  -6.223  12.652  1.00  0.00     0.038 A 
HETATM   28  C   UNL     1      40.837  -6.871  11.394  1.00  0.00     0.019 A 
BRANCH  26  29
HETATM   29  N   UNL     1      39.971  -6.960  14.960  1.00  0.00    -0.322 N 
HETATM   30  C   UNL     1      40.966  -6.919  15.920  1.00  0.00     0.218 C 
HETATM   31  C   UNL     1      40.434  -6.654  17.303  1.00  0.00     0.117 C 
HETATM   32  O   UNL     1      42.155  -7.153  15.713  1.00  0.00    -0.274 OA
HETATM   33  H   UNL     1      38.999  -6.954  15.250  1.00  0.00     0.169 HD
ENDBRANCH  26  29
ENDBRANCH  23  24
ENDBRANCH   1  23
TORSDOF 8
ENDMDL
MODEL 6
REMARK VINA RESULT:      -6.8      3.382      6.962
REMARK  8 active torsions:
REMARK  status: ('A' for Active; 'I' for Inactive)
REMARK       I    between atoms: C_2  and  N_3 
REMARK    1  A    between atoms: N_3  and  C_4 
REMARK    2  A    between atoms: C_6  and  C_7 
REMARK    3  A    between atoms: C_7  and  N_8 
REMARK    4  A    between atoms: C_11  and  C_12 
REMARK    5  A    between atoms: C_14  and  S_15 
REMARK    6  A    between atoms: S_15  and  C_16 
REMARK    7  A    between atoms: C_16  and  C_17 
REMARK    8  A    between atoms: C_17  and  N_18 
ROOT
HETATM    1  N   UNL     1      40.901 -12.424   4.673  1.00  0.00    -0.066 N 
HETATM    2  H   UNL     1      41.516 -12.914   5.336  1.00  0.00     0.280 HD
HETATM    3  C   UNL     1      41.596 -11.120   4.341  1.00  0.00     0.246 C 
HETATM    4  C   UNL     1      41.819 -10.250   5.582  1.00  0.00     0.064 C 
HETATM    5  C   UNL     1      40.543 -10.104   6.421  1.00  0.00     0.014 C 
HETATM    6  C   UNL     1      39.826 -11.425   6.671  1.00  0.00     0.028 C 
HETATM    7  C   UNL     1      39.585 -12.194   5.381  1.00  0.00     0.235 C 
ENDROOT
BRANCH   4   8
HETATM    8  C   UNL     1      43.013 -10.712   6.411  1.00  0.00     0.044 A 
HETATM    9  N   UNL     1      43.143 -10.269   7.691  1.00  0.00    -0.227 NA
HETATM   10  C   UNL     1      44.300 -10.610   8.310  1.00  0.00     0.188 A 
HETATM   11  N   UNL     1      45.227 -11.438   7.817  1.00  0.00    -0.235 NA
HETATM   12  C   UNL     1      45.047 -11.875   6.563  1.00  0.00     0.121 A 
HETATM   13  C   UNL     1      43.958 -11.527   5.804  1.00  0.00     0.047 A 
BRANCH  10  14
HETATM   14  S   UNL     1      44.748  -9.859   9.857  1.00  0.00    -0.088 SA
BRANCH  14  15
HETATM   15  C   UNL     1      43.445 -10.453  10.961  1.00  0.00     0.110 C 
BRANCH  15  16
HETATM   16  C   UNL     1      43.047  -9.417  12.013  1.00  0.00     0.245 C 
BRANCH  16  17
HETATM   17  N   UNL     1      41.671  -8.835  11.795  1.00  0.00    -0.070 N 
HETATM   18  H   UNL     1      41.764  -7.808  11.738  1.00  0.00     0.279 HD
HETATM   19  C   UNL     1      40.729  -9.148  12.954  1.00  0.00     0.235 C 
HETATM   20  C   UNL     1      39.887 -10.288  12.430  1.00  0.00     0.029 C 
HETATM   21  C   UNL     1      39.629  -9.862  11.000  1.00  0.00     0.029 C 
HETATM   22  C   UNL     1      40.968  -9.319  10.531  1.00  0.00     0.235 C 
ENDBRANCH  16  17
ENDBRANCH  15  16
ENDBRANCH  14  15
ENDBRANCH  10  14
ENDBRANCH   4   8
BRANCH   1  23
HETATM   23  C   UNL     1      40.718 -13.307   3.446  1.00  0.00     0.280 C 
BRANCH  23  24
HETATM   24  C   UNL     1      41.575 -14.535   3.475  1.00  0.00     0.010 A 
HETATM   25  S   UNL     1      41.201 -15.892   2.491  1.00  0.00    -0.075 SA
HETATM   26  C   UNL     1      42.575 -16.734   3.019  1.00  0.00     0.076 A 
HETATM   27  C   UNL     1      43.256 -16.063   4.003  1.00  0.00     0.038 A 
HETATM   28  C   UNL     1      42.668 -14.791   4.280  1.00  0.00     0.019 A 
BRANCH  26  29
HETATM   29  N   UNL     1      42.779 -17.946   2.407  1.00  0.00    -0.322 N 
HETATM   30  C   UNL     1      43.637 -18.902   2.919  1.00  0.00     0.218 C 
HETATM   31  C   UNL     1      43.623 -20.185   2.129  1.00  0.00     0.117 C 
HETATM   32  O   UNL     1      44.405 -18.729   3.864  1.00  0.00    -0.274 OA
HETATM   33  H   UNL     1      42.334 -18.106   1.509  1.00  0.00     0.169 HD
ENDBRANCH  26  29
ENDBRANCH  23  24
ENDBRANCH   1  23
TORSDOF 8
ENDMDL
MODEL 7
REMARK VINA RESULT:      -6.7      3.451      6.772
REMARK  8 active torsions:
REMARK  status: ('A' for Active; 'I' for Inactive)
REMARK       I    between atoms: C_2  and  N_3 
REMARK    1  A    between atoms: N_3  and  C_4 
REMARK    2  A    between atoms: C_6  and  C_7 
REMARK    3  A    between atoms: C_7  and  N_8 
REMARK    4  A    between atoms: C_11  and  C_12 
REMARK    5  A    between atoms: C_14  and  S_15 
REMARK    6  A    between atoms: S_15  and  C_16 
REMARK    7  A    between atoms: C_16  and  C_17 
REMARK    8  A    between atoms: C_17  and  N_18 
ROOT
HETATM    1  N   UNL     1      42.331 -12.619   5.943  1.00  0.00    -0.066 N 
HETATM    2  H   UNL     1      42.058 -11.730   6.384  1.00  0.00     0.280 HD
HETATM    3  C   UNL     1      43.498 -13.146   6.754  1.00  0.00     0.246 C 
HETATM    4  C   UNL     1      44.686 -12.179   6.755  1.00  0.00     0.064 C 
HETATM    5  C   UNL     1      45.046 -11.707   5.340  1.00  0.00     0.014 C 
HETATM    6  C   UNL     1      43.840 -11.256   4.525  1.00  0.00     0.028 C 
HETATM    7  C   UNL     1      42.734 -12.300   4.522  1.00  0.00     0.235 C 
ENDROOT
BRANCH   4   8
HETATM    8  C   UNL     1      44.494 -11.020   7.727  1.00  0.00     0.044 A 
HETATM    9  N   UNL     1      43.259 -10.464   7.860  1.00  0.00    -0.227 NA
HETATM   10  C   UNL     1      43.202  -9.351   8.633  1.00  0.00     0.188 A 
HETATM   11  N   UNL     1      44.212  -8.862   9.361  1.00  0.00    -0.235 NA
HETATM   12  C   UNL     1      45.404  -9.457   9.224  1.00  0.00     0.121 A 
HETATM   13  C   UNL     1      45.606 -10.537   8.402  1.00  0.00     0.047 A 
BRANCH  10  14
HETATM   14  S   UNL     1      41.738  -8.344   8.654  1.00  0.00    -0.088 SA
BRANCH  14  15
HETATM   15  C   UNL     1      40.679  -9.236   9.819  1.00  0.00     0.110 C 
BRANCH  15  16
HETATM   16  C   UNL     1      40.758  -8.671  11.237  1.00  0.00     0.245 C 
BRANCH  16  17
HETATM   17  N   UNL     1      42.158  -8.649  11.801  1.00  0.00    -0.070 N 
HETATM   18  H   UNL     1      42.808  -8.939  11.054  1.00  0.00     0.279 HD
HETATM   19  C   UNL     1      42.323  -9.629  12.959  1.00  0.00     0.235 C 
HETATM   20  C   UNL     1      42.250  -8.745  14.184  1.00  0.00     0.029 C 
HETATM   21  C   UNL     1      43.057  -7.538  13.755  1.00  0.00     0.029 C 
HETATM   22  C   UNL     1      42.612  -7.289  12.324  1.00  0.00     0.235 C 
ENDBRANCH  16  17
ENDBRANCH  15  16
ENDBRANCH  14  15
ENDBRANCH  10  14
ENDBRANCH   4   8
BRANCH   1  23
HETATM   23  C   UNL     1      41.134 -13.560   5.978  1.00  0.00     0.280 C 
BRANCH  23  24
HETATM   24  C   UNL     1      40.961 -14.333   4.708  1.00  0.00     0.010 A 
HETATM   25  S   UNL     1      39.880 -13.790   3.487  1.00  0.00    -0.075 SA
HETATM   26  C   UNL     1      40.299 -15.069   2.457  1.00  0.00     0.076 A 
HETATM   27  C   UNL     1      41.157 -15.962   3.049  1.00  0.00     0.038 A 
HETATM   28  C   UNL     1      41.531 -15.544   4.363  1.00  0.00     0.019 A 
BRANCH  26  29
HETATM   29  N   UNL     1      39.710 -15.028   1.217  1.00  0.00    -0.322 N 
HETATM   30  C   UNL     1      40.226 -14.282   0.173  1.00  0.00     0.218 C 
HETATM   31  C   UNL     1      39.465 -14.471  -1.113  1.00  0.00     0.117 C 
HETATM   32  O   UNL     1      41.151 -13.479   0.270  1.00  0.00    -0.274 OA
HETATM   33  H   UNL     1      38.825 -15.509   1.096  1.00  0.00     0.169 HD
ENDBRANCH  26  29
ENDBRANCH  23  24
ENDBRANCH   1  23
TORSDOF 8
ENDMDL
MODEL 8
REMARK VINA RESULT:      -6.6      3.256      4.777
REMARK  8 active torsions:
REMARK  status: ('A' for Active; 'I' for Inactive)
REMARK       I    between atoms: C_2  and  N_3 
REMARK    1  A    between atoms: N_3  and  C_4 
REMARK    2  A    between atoms: C_6  and  C_7 
REMARK    3  A    between atoms: C_7  and  N_8 
REMARK    4  A    between atoms: C_11  and  C_12 
REMARK    5  A    between atoms: C_14  and  S_15 
REMARK    6  A    between atoms: S_15  and  C_16 
REMARK    7  A    between atoms: C_16  and  C_17 
REMARK    8  A    between atoms: C_17  and  N_18 
ROOT
HETATM    1  N   UNL     1      41.072 -15.176   2.125  1.00  0.00    -0.066 N 
HETATM    2  H   UNL     1      41.443 -14.300   2.518  1.00  0.00     0.280 HD
HETATM    3  C   UNL     1      40.792 -16.080   3.307  1.00  0.00     0.246 C 
HETATM    4  C   UNL     1      42.054 -16.372   4.125  1.00  0.00     0.064 C 
HETATM    5  C   UNL     1      43.226 -16.815   3.238  1.00  0.00     0.014 C 
HETATM    6  C   UNL     1      43.431 -15.928   2.015  1.00  0.00     0.028 C 
HETATM    7  C   UNL     1      42.145 -15.744   1.225  1.00  0.00     0.235 C 
ENDROOT
BRANCH   4   8
HETATM    8  C   UNL     1      42.427 -15.221   5.053  1.00  0.00     0.044 A 
HETATM    9  N   UNL     1      41.804 -14.020   4.903  1.00  0.00    -0.227 NA
HETATM   10  C   UNL     1      42.291 -13.013   5.669  1.00  0.00     0.188 A 
HETATM   11  N   UNL     1      43.213 -13.146   6.629  1.00  0.00    -0.235 NA
HETATM   12  C   UNL     1      43.781 -14.352   6.763  1.00  0.00     0.121 A 
HETATM   13  C   UNL     1      43.433 -15.427   5.985  1.00  0.00     0.047 A 
BRANCH  10  14
HETATM   14  S   UNL     1      41.795 -11.333   5.368  1.00  0.00    -0.088 SA
BRANCH  14  15
HETATM   15  C   UNL     1      42.834 -10.415   6.528  1.00  0.00     0.110 C 
BRANCH  15  16
HETATM   16  C   UNL     1      42.035  -9.809   7.683  1.00  0.00     0.245 C 
BRANCH  16  17
HETATM   17  N   UNL     1      42.810  -9.730   8.976  1.00  0.00    -0.070 N 
HETATM   18  H   UNL     1      42.199 -10.073   9.736  1.00  0.00     0.279 HD
HETATM   19  C   UNL     1      43.207  -8.297   9.317  1.00  0.00     0.235 C 
HETATM   20  C   UNL     1      44.662  -8.226   8.912  1.00  0.00     0.029 C 
HETATM   21  C   UNL     1      45.190  -9.564   9.385  1.00  0.00     0.029 C 
HETATM   22  C   UNL     1      44.098 -10.547   8.998  1.00  0.00     0.235 C 
ENDBRANCH  16  17
ENDBRANCH  15  16
ENDBRANCH  14  15
ENDBRANCH  10  14
ENDBRANCH   4   8
BRANCH   1  23
HETATM   23  C   UNL     1      39.809 -14.851   1.337  1.00  0.00     0.280 C 
BRANCH  23  24
HETATM   24  C   UNL     1      40.076 -14.014   0.124  1.00  0.00     0.010 A 
HETATM   25  S   UNL     1      40.782 -12.454   0.269  1.00  0.00    -0.075 SA
HETATM   26  C   UNL     1      40.808 -12.239  -1.412  1.00  0.00     0.076 A 
HETATM   27  C   UNL     1      40.198 -13.269  -2.083  1.00  0.00     0.038 A 
HETATM   28  C   UNL     1      39.759 -14.294  -1.191  1.00  0.00     0.019 A 
BRANCH  26  29
HETATM   29  N   UNL     1      41.406 -11.078  -1.836  1.00  0.00    -0.322 N 
HETATM   30  C   UNL     1      40.710  -9.891  -1.974  1.00  0.00     0.218 C 
HETATM   31  C   UNL     1      41.596  -8.735  -2.358  1.00  0.00     0.117 C 
HETATM   32  O   UNL     1      39.490  -9.774  -1.884  1.00  0.00    -0.274 OA
HETATM   33  H   UNL     1      42.378 -11.122  -2.124  1.00  0.00     0.169 HD
ENDBRANCH  26  29
ENDBRANCH  23  24
ENDBRANCH   1  23
TORSDOF 8
ENDMDL
MODEL 9
REMARK VINA RESULT:      -6.6      3.466      7.186
REMARK  8 active torsions:
REMARK  status: ('A' for Active; 'I' for Inactive)
REMARK       I    between atoms: C_2  and  N_3 
REMARK    1  A    between atoms: N_3  and  C_4 
REMARK    2  A    between atoms: C_6  and  C_7 
REMARK    3  A    between atoms: C_7  and  N_8 
REMARK    4  A    between atoms: C_11  and  C_12 
REMARK    5  A    between atoms: C_14  and  S_15 
REMARK    6  A    between atoms: S_15  and  C_16 
REMARK    7  A    between atoms: C_16  and  C_17 
REMARK    8  A    between atoms: C_17  and  N_18 
ROOT
HETATM    1  N   UNL     1      42.085 -12.306   3.793  1.00  0.00    -0.066 N 
HETATM    2  H   UNL     1      42.507 -12.232   4.729  1.00  0.00     0.280 HD
HETATM    3  C   UNL     1      41.847 -10.884   3.328  1.00  0.00     0.246 C 
HETATM    4  C   UNL     1      40.907 -10.118   4.263  1.00  0.00     0.064 C 
HETATM    5  C   UNL     1      39.634 -10.914   4.579  1.00  0.00     0.014 C 
HETATM    6  C   UNL     1      39.904 -12.363   4.969  1.00  0.00     0.028 C 
HETATM    7  C   UNL     1      40.790 -13.068   3.954  1.00  0.00     0.235 C 
ENDROOT
BRANCH   4   8
HETATM    8  C   UNL     1      41.612  -9.622   5.521  1.00  0.00     0.044 A 
HETATM    9  N   UNL     1      42.632 -10.357   6.043  1.00  0.00    -0.227 NA
HETATM   10  C   UNL     1      43.110  -9.924   7.236  1.00  0.00     0.188 A 
HETATM   11  N   UNL     1      42.757  -8.787   7.845  1.00  0.00    -0.235 NA
HETATM   12  C   UNL     1      41.768  -8.078   7.282  1.00  0.00     0.121 A 
HETATM   13  C   UNL     1      41.146  -8.461   6.121  1.00  0.00     0.047 A 
BRANCH  10  14
HETATM   14  S   UNL     1      44.219 -10.940   8.183  1.00  0.00    -0.088 SA
BRANCH  14  15
HETATM   15  C   UNL     1      45.314  -9.711   8.932  1.00  0.00     0.110 C 
BRANCH  15  16
HETATM   16  C   UNL     1      45.076  -9.549  10.434  1.00  0.00     0.245 C 
BRANCH  16  17
HETATM   17  N   UNL     1      43.616  -9.471  10.808  1.00  0.00    -0.070 N 
HETATM   18  H   UNL     1      43.058  -9.678   9.964  1.00  0.00     0.279 HD
HETATM   19  C   UNL     1      43.223  -8.077  11.288  1.00  0.00     0.235 C 
HETATM   20  C   UNL     1      43.184  -8.217  12.793  1.00  0.00     0.029 C 
HETATM   21  C   UNL     1      42.531  -9.571  12.970  1.00  0.00     0.029 C 
HETATM   22  C   UNL     1      43.188 -10.437  11.909  1.00  0.00     0.235 C 
ENDBRANCH  16  17
ENDBRANCH  15  16
ENDBRANCH  14  15
ENDBRANCH  10  14
ENDBRANCH   4   8
BRANCH   1  23
HETATM   23  C   UNL     1      43.054 -13.054   2.887  1.00  0.00     0.280 C 
BRANCH  23  24
HETATM   24  C   UNL     1      43.046 -14.534   3.116  1.00  0.00     0.010 A 
HETATM   25  S   UNL     1      42.919 -15.627   1.796  1.00  0.00    -0.075 SA
HETATM   26  C   UNL     1      43.049 -16.974   2.817  1.00  0.00     0.076 A 
HETATM   27  C   UNL     1      43.078 -16.627   4.144  1.00  0.00     0.038 A 
HETATM   28  C   UNL     1      43.062 -15.210   4.320  1.00  0.00     0.019 A 
BRANCH  26  29
HETATM   29  N   UNL     1      43.082 -18.186   2.171  1.00  0.00    -0.322 N 
HETATM   30  C   UNL     1      43.702 -19.298   2.709  1.00  0.00     0.218 C 
HETATM   31  C   UNL     1      43.524 -20.533   1.866  1.00  0.00     0.117 C 
HETATM   32  O   UNL     1      44.401 -19.296   3.721  1.00  0.00    -0.274 OA
HETATM   33  H   UNL     1      42.697 -18.235   1.234  1.00  0.00     0.169 HD
ENDBRANCH  26  29
ENDBRANCH  23  24
ENDBRANCH   1  23
TORSDOF 8
ENDMDL
MODEL 10
REMARK VINA RESULT:      -6.5      2.163      2.879
REMARK  8 active torsions:
REMARK  status: ('A' for Active; 'I' for Inactive)
REMARK       I    between atoms: C_2  and  N_3 
REMARK    1  A    between atoms: N_3  and  C_4 
REMARK    2  A    between atoms: C_6  and  C_7 
REMARK    3  A    between atoms: C_7  and  N_8 
REMARK    4  A    between atoms: C_11  and  C_12 
REMARK    5  A    between atoms: C_14  and  S_15 
REMARK    6  A    between atoms: S_15  and  C_16 
REMARK    7  A    between atoms: C_16  and  C_17 
REMARK    8  A    between atoms: C_17  and  N_18 
ROOT
HETATM    1  N   UNL     1      41.220 -14.625   2.258  1.00  0.00    -0.066 N 
HETATM    2  H   UNL     1      41.790 -14.031   2.875  1.00  0.00     0.280 HD
HETATM    3  C   UNL     1      40.462 -15.569   3.168  1.00  0.00     0.246 C 
HETATM    4  C   UNL     1      41.400 -16.441   4.009  1.00  0.00     0.064 C 
HETATM    5  C   UNL     1      42.489 -17.105   3.157  1.00  0.00     0.014 C 
HETATM    6  C   UNL     1      43.180 -16.143   2.197  1.00  0.00     0.028 C 
HETATM    7  C   UNL     1      42.179 -15.366   1.355  1.00  0.00     0.235 C 
ENDROOT
BRANCH   4   8
HETATM    8  C   UNL     1      41.972 -15.693   5.209  1.00  0.00     0.044 A 
HETATM    9  N   UNL     1      42.353 -14.395   5.061  1.00  0.00    -0.227 NA
HETATM   10  C   UNL     1      42.980 -13.847   6.131  1.00  0.00     0.188 A 
HETATM   11  N   UNL     1      43.120 -14.428   7.328  1.00  0.00    -0.235 NA
HETATM   12  C   UNL     1      42.705 -15.697   7.440  1.00  0.00     0.121 A 
HETATM   13  C   UNL     1      42.135 -16.387   6.399  1.00  0.00     0.047 A 
BRANCH  10  14
HETATM   14  S   UNL     1      43.803 -12.278   5.986  1.00  0.00    -0.088 SA
BRANCH  14  15
HETATM   15  C   UNL     1      42.530 -11.127   6.557  1.00  0.00     0.110 C 
BRANCH  15  16
HETATM   16  C   UNL     1      43.088 -10.048   7.486  1.00  0.00     0.245 C 
BRANCH  16  17
HETATM   17  N   UNL     1      43.631 -10.591   8.786  1.00  0.00    -0.070 N 
HETATM   18  H   UNL     1      43.402 -11.597   8.831  1.00  0.00     0.279 HD
HETATM   19  C   UNL     1      42.991  -9.920   9.997  1.00  0.00     0.235 C 
HETATM   20  C   UNL     1      44.037  -8.924  10.445  1.00  0.00     0.029 C 
HETATM   21  C   UNL     1      45.318  -9.714  10.283  1.00  0.00     0.029 C 
HETATM   22  C   UNL     1      45.139 -10.438   8.960  1.00  0.00     0.235 C 
ENDBRANCH  16  17
ENDBRANCH  15  16
ENDBRANCH  14  15
ENDBRANCH  10  14
ENDBRANCH   4   8
BRANCH   1  23
HETATM   23  C   UNL     1      40.288 -13.729   1.454  1.00  0.00     0.280 C 
BRANCH  23  24
HETATM   24  C   UNL     1      39.921 -12.469   2.175  1.00  0.00     0.010 A 
HETATM   25  S   UNL     1      41.115 -11.548   2.999  1.00  0.00    -0.075 SA
HETATM   26  C   UNL     1      39.988 -10.359   3.437  1.00  0.00     0.076 A 
HETATM   27  C   UNL     1      38.707 -10.690   3.071  1.00  0.00     0.038 A 
HETATM   28  C   UNL     1      38.665 -11.923   2.351  1.00  0.00     0.019 A 
BRANCH  26  29
HETATM   29  N   UNL     1      40.517  -9.278   4.098  1.00  0.00    -0.322 N 
HETATM   30  C   UNL     1      40.716  -8.056   3.483  1.00  0.00     0.218 C 
HETATM   31  C   UNL     1      41.215  -6.998   4.432  1.00  0.00     0.117 C 
HETATM   32  O   UNL     1      40.591  -7.843   2.279  1.00  0.00    -0.274 OA
HETATM   33  H   UNL     1      40.836  -9.414   5.051  1.00  0.00     0.169 HD
ENDBRANCH  26  29
ENDBRANCH  23  24
ENDBRANCH   1  23
TORSDOF 8
ENDMDL
