MODEL 1
REMARK VINA RESULT:      -8.8      0.000      0.000
REMARK  5 active torsions:
REMARK  status: ('A' for Active; 'I' for Inactive)
REMARK    1  A    between atoms: C_4  and  C_5 
REMARK       I    between atoms: N_6  and  C_7 
REMARK    2  A    between atoms: C_7  and  C_8 
REMARK    3  A    between atoms: C_8  and  C_9 
REMARK    4  A    between atoms: C_11  and  O_12 
REMARK    5  A    between atoms: C_14  and  O_15 
ROOT
HETATM    1  C   UNL     1      39.307 -13.031   2.307  1.00  0.00     0.189 C 
HETATM    2  N   UNL     1      40.639 -13.664   2.151  1.00  0.00    -0.336 N 
HETATM    3  C   UNL     1      40.762 -15.003   2.474  1.00  0.00     0.225 C 
HETATM    4  O   UNL     1      39.907 -15.599   3.135  1.00  0.00    -0.273 OA
HETATM    5  C   UNL     1      41.716 -12.809   1.605  1.00  0.00     0.132 C 
HETATM    6  C   UNL     1      41.424 -12.355   0.167  1.00  0.00     0.061 C 
HETATM    7  C   UNL     1      39.987 -11.990   0.027  1.00  0.00    -0.019 A 
HETATM    8  C   UNL     1      39.053 -12.307   0.999  1.00  0.00     0.046 A 
HETATM    9  N   UNL     1      37.822 -11.944   0.516  1.00  0.00    -0.356 N 
HETATM   10  H   UNL     1      36.936 -12.099   0.973  1.00  0.00     0.166 HD
HETATM   11  C   UNL     1      37.950 -11.367  -0.730  1.00  0.00     0.043 A 
HETATM   12  C   UNL     1      39.306 -11.379  -1.059  1.00  0.00    -0.001 A 
HETATM   13  C   UNL     1      36.971 -10.859  -1.592  1.00  0.00     0.030 A 
HETATM   14  C   UNL     1      37.394 -10.347  -2.824  1.00  0.00     0.002 A 
HETATM   15  C   UNL     1      38.742 -10.345  -3.177  1.00  0.00     0.001 A 
HETATM   16  C   UNL     1      39.708 -10.860  -2.305  1.00  0.00     0.014 A 
ENDROOT
BRANCH   1  17
HETATM   17  C   UNL     1      39.160 -12.147   3.559  1.00  0.00     0.063 A 
HETATM   18  N   UNL     1      38.705 -10.868   3.435  1.00  0.00    -0.256 NA
HETATM   19  C   UNL     1      38.622 -10.100   4.549  1.00  0.00     0.031 A 
HETATM   20  C   UNL     1      38.169  -8.681   4.382  1.00  0.00     0.070 C 
HETATM   21  C   UNL     1      38.968 -10.565   5.813  1.00  0.00     0.027 A 
HETATM   22  C   UNL     1      39.426 -11.867   5.939  1.00  0.00     0.004 A 
HETATM   23  C   UNL     1      39.536 -12.662   4.804  1.00  0.00     0.030 A 
ENDBRANCH   1  17
BRANCH   3  24
HETATM   24  C   UNL     1      41.917 -15.779   1.864  1.00  0.00     0.141 C 
BRANCH  24  25
HETATM   25  C   UNL     1      42.645 -16.797   2.711  1.00  0.00    -0.047 A 
HETATM   26  C   UNL     1      43.111 -16.552   4.009  1.00  0.00     0.047 A 
HETATM   27  C   UNL     1      43.832 -17.534   4.707  1.00  0.00     0.102 A 
HETATM   28  C   UNL     1      44.063 -18.793   4.118  1.00  0.00     0.101 A 
HETATM   29  C   UNL     1      43.571 -19.049   2.839  1.00  0.00     0.040 A 
HETATM   30  C   UNL     1      42.876 -18.060   2.142  1.00  0.00     0.010 A 
BRANCH  27  31
HETATM   31  O   UNL     1      44.339 -17.360   5.972  1.00  0.00    -0.353 OA
HETATM   32  C   UNL     1      43.395 -17.211   7.023  1.00  0.00     0.210 C 
ENDBRANCH  27  31
BRANCH  28  33
HETATM   33  O   UNL     1      44.776 -19.696   4.868  1.00  0.00    -0.353 OA
HETATM   34  C   UNL     1      44.116 -20.897   5.243  1.00  0.00     0.210 C 
ENDBRANCH  28  33
ENDBRANCH  24  25
ENDBRANCH   3  24
TORSDOF 5
ENDMDL
MODEL 2
REMARK VINA RESULT:      -8.7      1.521      2.076
REMARK  5 active torsions:
REMARK  status: ('A' for Active; 'I' for Inactive)
REMARK    1  A    between atoms: C_4  and  C_5 
REMARK       I    between atoms: N_6  and  C_7 
REMARK    2  A    between atoms: C_7  and  C_8 
REMARK    3  A    between atoms: C_8  and  C_9 
REMARK    4  A    between atoms: C_11  and  O_12 
REMARK    5  A    between atoms: C_14  and  O_15 
ROOT
HETATM    1  C   UNL     1      39.936 -12.728   3.556  1.00  0.00     0.189 C 
HETATM    2  N   UNL     1      41.353 -12.958   3.928  1.00  0.00    -0.336 N 
HETATM    3  C   UNL     1      41.633 -13.994   4.801  1.00  0.00     0.225 C 
HETATM    4  O   UNL     1      40.756 -14.532   5.483  1.00  0.00    -0.273 OA
HETATM    5  C   UNL     1      42.356 -12.085   3.281  1.00  0.00     0.132 C 
HETATM    6  C   UNL     1      42.404 -12.286   1.758  1.00  0.00     0.061 C 
HETATM    7  C   UNL     1      41.024 -12.429   1.217  1.00  0.00    -0.019 A 
HETATM    8  C   UNL     1      39.931 -12.632   2.042  1.00  0.00     0.046 A 
HETATM    9  N   UNL     1      38.843 -12.841   1.234  1.00  0.00    -0.356 N 
HETATM   10  H   UNL     1      37.910 -13.071   1.544  1.00  0.00     0.166 HD
HETATM   11  C   UNL     1      39.207 -12.741  -0.091  1.00  0.00     0.043 A 
HETATM   12  C   UNL     1      40.577 -12.477  -0.130  1.00  0.00    -0.001 A 
HETATM   13  C   UNL     1      38.435 -12.885  -1.250  1.00  0.00     0.030 A 
HETATM   14  C   UNL     1      39.086 -12.753  -2.483  1.00  0.00     0.002 A 
HETATM   15  C   UNL     1      40.452 -12.488  -2.550  1.00  0.00     0.001 A 
HETATM   16  C   UNL     1      41.209 -12.349  -1.381  1.00  0.00     0.014 A 
ENDROOT
BRANCH   1  17
HETATM   17  C   UNL     1      39.272 -11.535   4.269  1.00  0.00     0.063 A 
HETATM   18  N   UNL     1      38.841 -10.467   3.541  1.00  0.00    -0.256 NA
HETATM   19  C   UNL     1      38.295  -9.414   4.199  1.00  0.00     0.031 A 
HETATM   20  C   UNL     1      37.876  -8.229   3.384  1.00  0.00     0.070 C 
HETATM   21  C   UNL     1      38.144  -9.385   5.580  1.00  0.00     0.027 A 
HETATM   22  C   UNL     1      38.579 -10.473   6.320  1.00  0.00     0.004 A 
HETATM   23  C   UNL     1      39.158 -11.553   5.663  1.00  0.00     0.030 A 
ENDBRANCH   1  17
BRANCH   3  24
HETATM   24  C   UNL     1      43.040 -14.567   4.799  1.00  0.00     0.141 C 
BRANCH  24  25
HETATM   25  C   UNL     1      43.277 -15.930   4.191  1.00  0.00    -0.047 A 
HETATM   26  C   UNL     1      43.748 -17.038   4.906  1.00  0.00     0.047 A 
HETATM   27  C   UNL     1      43.999 -18.256   4.253  1.00  0.00     0.102 A 
HETATM   28  C   UNL     1      43.744 -18.382   2.873  1.00  0.00     0.101 A 
HETATM   29  C   UNL     1      43.244 -17.289   2.167  1.00  0.00     0.040 A 
HETATM   30  C   UNL     1      43.021 -16.075   2.819  1.00  0.00     0.010 A 
BRANCH  27  31
HETATM   31  O   UNL     1      44.480 -19.379   4.881  1.00  0.00    -0.353 OA
HETATM   32  C   UNL     1      43.661 -19.943   5.895  1.00  0.00     0.210 C 
ENDBRANCH  27  31
BRANCH  28  33
HETATM   33  O   UNL     1      44.016 -19.607   2.312  1.00  0.00    -0.353 OA
HETATM   34  C   UNL     1      42.910 -20.382   1.870  1.00  0.00     0.210 C 
ENDBRANCH  28  33
ENDBRANCH  24  25
ENDBRANCH   3  24
TORSDOF 5
ENDMDL
MODEL 3
REMARK VINA RESULT:      -8.6      3.445      6.507
REMARK  5 active torsions:
REMARK  status: ('A' for Active; 'I' for Inactive)
REMARK    1  A    between atoms: C_4  and  C_5 
REMARK       I    between atoms: N_6  and  C_7 
REMARK    2  A    between atoms: C_7  and  C_8 
REMARK    3  A    between atoms: C_8  and  C_9 
REMARK    4  A    between atoms: C_11  and  O_12 
REMARK    5  A    between atoms: C_14  and  O_15 
ROOT
HETATM    1  C   UNL     1      42.119 -13.397   1.921  1.00  0.00     0.189 C 
HETATM    2  N   UNL     1      41.713 -12.416   2.957  1.00  0.00    -0.336 N 
HETATM    3  C   UNL     1      42.665 -11.518   3.406  1.00  0.00     0.225 C 
HETATM    4  O   UNL     1      43.870 -11.682   3.197  1.00  0.00    -0.273 OA
HETATM    5  C   UNL     1      40.295 -12.449   3.379  1.00  0.00     0.132 C 
HETATM    6  C   UNL     1      39.339 -12.094   2.231  1.00  0.00     0.061 C 
HETATM    7  C   UNL     1      39.795 -12.736   0.967  1.00  0.00    -0.019 A 
HETATM    8  C   UNL     1      41.049 -13.311   0.848  1.00  0.00     0.046 A 
HETATM    9  N   UNL     1      41.199 -13.699  -0.458  1.00  0.00    -0.356 N 
HETATM   10  H   UNL     1      42.030 -14.101  -0.866  1.00  0.00     0.166 HD
HETATM   11  C   UNL     1      40.054 -13.419  -1.173  1.00  0.00     0.043 A 
HETATM   12  C   UNL     1      39.151 -12.815  -0.296  1.00  0.00    -0.001 A 
HETATM   13  C   UNL     1      39.761 -13.633  -2.525  1.00  0.00     0.030 A 
HETATM   14  C   UNL     1      38.508 -13.219  -2.990  1.00  0.00     0.002 A 
HETATM   15  C   UNL     1      37.587 -12.616  -2.136  1.00  0.00     0.001 A 
HETATM   16  C   UNL     1      37.896 -12.406  -0.788  1.00  0.00     0.014 A 
ENDROOT
BRANCH   1  17
HETATM   17  C   UNL     1      42.371 -14.821   2.451  1.00  0.00     0.063 A 
HETATM   18  N   UNL     1      42.051 -15.129   3.739  1.00  0.00    -0.256 NA
HETATM   19  C   UNL     1      42.320 -16.380   4.191  1.00  0.00     0.031 A 
HETATM   20  C   UNL     1      42.008 -16.682   5.625  1.00  0.00     0.070 C 
HETATM   21  C   UNL     1      42.894 -17.362   3.392  1.00  0.00     0.027 A 
HETATM   22  C   UNL     1      43.216 -17.048   2.081  1.00  0.00     0.004 A 
HETATM   23  C   UNL     1      42.964 -15.765   1.607  1.00  0.00     0.030 A 
ENDBRANCH   1  17
BRANCH   3  24
HETATM   24  C   UNL     1      42.180 -10.228   4.046  1.00  0.00     0.141 C 
BRANCH  24  25
HETATM   25  C   UNL     1      42.340 -10.044   5.538  1.00  0.00    -0.047 A 
HETATM   26  C   UNL     1      43.319 -10.684   6.308  1.00  0.00     0.047 A 
HETATM   27  C   UNL     1      43.361 -10.506   7.701  1.00  0.00     0.102 A 
HETATM   28  C   UNL     1      42.438  -9.649   8.331  1.00  0.00     0.101 A 
HETATM   29  C   UNL     1      41.484  -8.986   7.561  1.00  0.00     0.040 A 
HETATM   30  C   UNL     1      41.432  -9.188   6.181  1.00  0.00     0.010 A 
BRANCH  27  31
HETATM   31  O   UNL     1      44.277 -11.115   8.525  1.00  0.00    -0.353 OA
HETATM   32  C   UNL     1      45.634 -10.725   8.370  1.00  0.00     0.210 C 
ENDBRANCH  27  31
BRANCH  28  33
HETATM   33  O   UNL     1      42.549  -9.530   9.696  1.00  0.00    -0.353 OA
HETATM   34  C   UNL     1      41.359  -9.273  10.427  1.00  0.00     0.210 C 
ENDBRANCH  28  33
ENDBRANCH  24  25
ENDBRANCH   3  24
TORSDOF 5
ENDMDL
MODEL 4
REMARK VINA RESULT:      -8.5     16.083     18.094
REMARK  5 active torsions:
REMARK  status: ('A' for Active; 'I' for Inactive)
REMARK    1  A    between atoms: C_4  and  C_5 
REMARK       I    between atoms: N_6  and  C_7 
REMARK    2  A    between atoms: C_7  and  C_8 
REMARK    3  A    between atoms: C_8  and  C_9 
REMARK    4  A    between atoms: C_11  and  O_12 
REMARK    5  A    between atoms: C_14  and  O_15 
ROOT
HETATM    1  C   UNL     1      44.062 -29.897   2.036  1.00  0.00     0.189 C 
HETATM    2  N   UNL     1      43.111 -31.030   2.137  1.00  0.00    -0.336 N 
HETATM    3  C   UNL     1      41.987 -30.863   2.925  1.00  0.00     0.225 C 
HETATM    4  O   UNL     1      41.893 -29.948   3.747  1.00  0.00    -0.273 OA
HETATM    5  C   UNL     1      43.426 -32.230   1.331  1.00  0.00     0.132 C 
HETATM    6  C   UNL     1      43.396 -31.941  -0.177  1.00  0.00     0.061 C 
HETATM    7  C   UNL     1      44.026 -30.622  -0.458  1.00  0.00    -0.019 A 
HETATM    8  C   UNL     1      44.313 -29.717   0.550  1.00  0.00     0.046 A 
HETATM    9  N   UNL     1      44.769 -28.570  -0.047  1.00  0.00    -0.356 N 
HETATM   10  H   UNL     1      45.008 -27.710   0.424  1.00  0.00     0.166 HD
HETATM   11  C   UNL     1      44.817 -28.732  -1.415  1.00  0.00     0.043 A 
HETATM   12  C   UNL     1      44.359 -30.019  -1.700  1.00  0.00    -0.001 A 
HETATM   13  C   UNL     1      45.208 -27.834  -2.415  1.00  0.00     0.030 A 
HETATM   14  C   UNL     1      45.129 -28.268  -3.743  1.00  0.00     0.002 A 
HETATM   15  C   UNL     1      44.677 -29.548  -4.056  1.00  0.00     0.001 A 
HETATM   16  C   UNL     1      44.287 -30.433  -3.044  1.00  0.00     0.014 A 
ENDROOT
BRANCH   1  17
HETATM   17  C   UNL     1      45.341 -30.056   2.879  1.00  0.00     0.063 A 
HETATM   18  N   UNL     1      46.392 -29.212   2.679  1.00  0.00    -0.256 NA
HETATM   19  C   UNL     1      47.519 -29.400   3.410  1.00  0.00     0.031 A 
HETATM   20  C   UNL     1      48.682 -28.494   3.137  1.00  0.00     0.070 C 
HETATM   21  C   UNL     1      47.642 -30.405   4.362  1.00  0.00     0.027 A 
HETATM   22  C   UNL     1      46.571 -31.260   4.567  1.00  0.00     0.004 A 
HETATM   23  C   UNL     1      45.414 -31.094   3.814  1.00  0.00     0.030 A 
ENDBRANCH   1  17
BRANCH   3  24
HETATM   24  C   UNL     1      40.788 -31.757   2.654  1.00  0.00     0.141 C 
BRANCH  24  25
HETATM   25  C   UNL     1      39.908 -32.175   3.809  1.00  0.00    -0.047 A 
HETATM   26  C   UNL     1      40.069 -31.721   5.124  1.00  0.00     0.047 A 
HETATM   27  C   UNL     1      39.245 -32.206   6.153  1.00  0.00     0.102 A 
HETATM   28  C   UNL     1      38.222 -33.130   5.862  1.00  0.00     0.101 A 
HETATM   29  C   UNL     1      38.040 -33.557   4.547  1.00  0.00     0.040 A 
HETATM   30  C   UNL     1      38.879 -33.090   3.535  1.00  0.00     0.010 A 
BRANCH  27  31
HETATM   31  O   UNL     1      39.354 -31.825   7.469  1.00  0.00    -0.353 OA
HETATM   32  C   UNL     1      40.519 -32.253   8.161  1.00  0.00     0.210 C 
ENDBRANCH  27  31
BRANCH  28  33
HETATM   33  O   UNL     1      37.461 -33.552   6.925  1.00  0.00    -0.353 OA
HETATM   34  C   UNL     1      36.435 -34.498   6.658  1.00  0.00     0.210 C 
ENDBRANCH  28  33
ENDBRANCH  24  25
ENDBRANCH   3  24
TORSDOF 5
ENDMDL
MODEL 5
REMARK VINA RESULT:      -8.5      3.047      8.359
REMARK  5 active torsions:
REMARK  status: ('A' for Active; 'I' for Inactive)
REMARK    1  A    between atoms: C_4  and  C_5 
REMARK       I    between atoms: N_6  and  C_7 
REMARK    2  A    between atoms: C_7  and  C_8 
REMARK    3  A    between atoms: C_8  and  C_9 
REMARK    4  A    between atoms: C_11  and  O_12 
REMARK    5  A    between atoms: C_14  and  O_15 
ROOT
HETATM    1  C   UNL     1      42.014 -15.950   3.617  1.00  0.00     0.189 C 
HETATM    2  N   UNL     1      41.826 -15.417   2.246  1.00  0.00    -0.336 N 
HETATM    3  C   UNL     1      40.587 -15.580   1.652  1.00  0.00     0.225 C 
HETATM    4  O   UNL     1      39.751 -16.375   2.089  1.00  0.00    -0.273 OA
HETATM    5  C   UNL     1      42.977 -14.701   1.652  1.00  0.00     0.132 C 
HETATM    6  C   UNL     1      43.331 -13.425   2.430  1.00  0.00     0.061 C 
HETATM    7  C   UNL     1      43.234 -13.674   3.895  1.00  0.00    -0.019 A 
HETATM    8  C   UNL     1      42.635 -14.813   4.406  1.00  0.00     0.046 A 
HETATM    9  N   UNL     1      42.603 -14.680   5.771  1.00  0.00    -0.356 N 
HETATM   10  H   UNL     1      42.178 -15.325   6.420  1.00  0.00     0.166 HD
HETATM   11  C   UNL     1      43.203 -13.497   6.148  1.00  0.00     0.043 A 
HETATM   12  C   UNL     1      43.614 -12.846   4.984  1.00  0.00    -0.001 A 
HETATM   13  C   UNL     1      43.391 -12.950   7.423  1.00  0.00     0.030 A 
HETATM   14  C   UNL     1      44.019 -11.702   7.506  1.00  0.00     0.002 A 
HETATM   15  C   UNL     1      44.440 -11.031   6.361  1.00  0.00     0.001 A 
HETATM   16  C   UNL     1      44.243 -11.591   5.093  1.00  0.00     0.014 A 
ENDROOT
BRANCH   1  17
HETATM   17  C   UNL     1      42.798 -17.273   3.689  1.00  0.00     0.063 A 
HETATM   18  N   UNL     1      42.758 -18.141   2.639  1.00  0.00    -0.256 NA
HETATM   19  C   UNL     1      43.427 -19.315   2.745  1.00  0.00     0.031 A 
HETATM   20  C   UNL     1      43.327 -20.277   1.600  1.00  0.00     0.070 C 
HETATM   21  C   UNL     1      44.163 -19.665   3.871  1.00  0.00     0.027 A 
HETATM   22  C   UNL     1      44.206 -18.780   4.937  1.00  0.00     0.004 A 
HETATM   23  C   UNL     1      43.510 -17.579   4.853  1.00  0.00     0.030 A 
ENDBRANCH   1  17
BRANCH   3  24
HETATM   24  C   UNL     1      40.212 -14.639   0.519  1.00  0.00     0.141 C 
BRANCH  24  25
HETATM   25  C   UNL     1      40.129 -13.156   0.793  1.00  0.00    -0.047 A 
HETATM   26  C   UNL     1      40.733 -12.174  -0.003  1.00  0.00     0.047 A 
HETATM   27  C   UNL     1      40.659 -10.818   0.355  1.00  0.00     0.102 A 
HETATM   28  C   UNL     1      39.942 -10.430   1.504  1.00  0.00     0.101 A 
HETATM   29  C   UNL     1      39.313 -11.404   2.279  1.00  0.00     0.040 A 
HETATM   30  C   UNL     1      39.412 -12.751   1.930  1.00  0.00     0.010 A 
BRANCH  27  31
HETATM   31  O   UNL     1      41.242  -9.801  -0.362  1.00  0.00    -0.353 OA
HETATM   32  C   UNL     1      41.378 -10.005  -1.761  1.00  0.00     0.210 C 
ENDBRANCH  27  31
BRANCH  28  33
HETATM   33  O   UNL     1      39.918  -9.085   1.783  1.00  0.00    -0.353 OA
HETATM   34  C   UNL     1      39.298  -8.681   2.995  1.00  0.00     0.210 C 
ENDBRANCH  28  33
ENDBRANCH  24  25
ENDBRANCH   3  24
TORSDOF 5
ENDMDL
MODEL 6
REMARK VINA RESULT:      -8.3      2.510      7.872
REMARK  5 active torsions:
REMARK  status: ('A' for Active; 'I' for Inactive)
REMARK    1  A    between atoms: C_4  and  C_5 
REMARK       I    between atoms: N_6  and  C_7 
REMARK    2  A    between atoms: C_7  and  C_8 
REMARK    3  A    between atoms: C_8  and  C_9 
REMARK    4  A    between atoms: C_11  and  O_12 
REMARK    5  A    between atoms: C_14  and  O_15 
ROOT
HETATM    1  C   UNL     1      40.622 -14.896   2.822  1.00  0.00     0.189 C 
HETATM    2  N   UNL     1      40.958 -14.404   1.463  1.00  0.00    -0.336 N 
HETATM    3  C   UNL     1      40.239 -14.912   0.396  1.00  0.00     0.225 C 
HETATM    4  O   UNL     1      39.552 -15.932   0.494  1.00  0.00    -0.273 OA
HETATM    5  C   UNL     1      42.005 -13.362   1.377  1.00  0.00     0.132 C 
HETATM    6  C   UNL     1      41.587 -12.061   2.078  1.00  0.00     0.061 C 
HETATM    7  C   UNL     1      40.891 -12.368   3.357  1.00  0.00    -0.019 A 
HETATM    8  C   UNL     1      40.462 -13.648   3.669  1.00  0.00     0.046 A 
HETATM    9  N   UNL     1      39.762 -13.568   4.846  1.00  0.00    -0.356 N 
HETATM   10  H   UNL     1      39.279 -14.329   5.301  1.00  0.00     0.166 HD
HETATM   11  C   UNL     1      39.763 -12.272   5.315  1.00  0.00     0.043 A 
HETATM   12  C   UNL     1      40.473 -11.496   4.397  1.00  0.00    -0.001 A 
HETATM   13  C   UNL     1      39.175 -11.730   6.463  1.00  0.00     0.030 A 
HETATM   14  C   UNL     1      39.319 -10.354   6.677  1.00  0.00     0.002 A 
HETATM   15  C   UNL     1      40.024  -9.556   5.779  1.00  0.00     0.001 A 
HETATM   16  C   UNL     1      40.604 -10.114   4.633  1.00  0.00     0.014 A 
ENDROOT
BRANCH   1  17
HETATM   17  C   UNL     1      41.613 -15.927   3.393  1.00  0.00     0.063 A 
HETATM   18  N   UNL     1      41.801 -16.009   4.741  1.00  0.00    -0.256 NA
HETATM   19  C   UNL     1      42.707 -16.900   5.214  1.00  0.00     0.031 A 
HETATM   20  C   UNL     1      42.936 -16.938   6.694  1.00  0.00     0.070 C 
HETATM   21  C   UNL     1      43.442 -17.740   4.385  1.00  0.00     0.027 A 
HETATM   22  C   UNL     1      43.248 -17.658   3.015  1.00  0.00     0.004 A 
HETATM   23  C   UNL     1      42.335 -16.737   2.512  1.00  0.00     0.030 A 
ENDBRANCH   1  17
BRANCH   3  24
HETATM   24  C   UNL     1      40.194 -14.095  -0.885  1.00  0.00     0.141 C 
BRANCH  24  25
HETATM   25  C   UNL     1      39.170 -12.992  -1.016  1.00  0.00    -0.047 A 
HETATM   26  C   UNL     1      38.623 -12.294   0.069  1.00  0.00     0.047 A 
HETATM   27  C   UNL     1      37.630 -11.322  -0.134  1.00  0.00     0.102 A 
HETATM   28  C   UNL     1      37.200 -11.014  -1.440  1.00  0.00     0.101 A 
HETATM   29  C   UNL     1      37.768 -11.685  -2.522  1.00  0.00     0.040 A 
HETATM   30  C   UNL     1      38.736 -12.667  -2.310  1.00  0.00     0.010 A 
BRANCH  27  31
HETATM   31  O   UNL     1      37.032 -10.612   0.879  1.00  0.00    -0.353 OA
HETATM   32  C   UNL     1      37.896 -10.004   1.828  1.00  0.00     0.210 C 
ENDBRANCH  27  31
BRANCH  28  33
HETATM   33  O   UNL     1      36.226 -10.051  -1.551  1.00  0.00    -0.353 OA
HETATM   34  C   UNL     1      36.582  -8.834  -2.190  1.00  0.00     0.210 C 
ENDBRANCH  28  33
ENDBRANCH  24  25
ENDBRANCH   3  24
TORSDOF 5
ENDMDL
MODEL 7
REMARK VINA RESULT:      -8.3      1.945      4.955
REMARK  5 active torsions:
REMARK  status: ('A' for Active; 'I' for Inactive)
REMARK    1  A    between atoms: C_4  and  C_5 
REMARK       I    between atoms: N_6  and  C_7 
REMARK    2  A    between atoms: C_7  and  C_8 
REMARK    3  A    between atoms: C_8  and  C_9 
REMARK    4  A    between atoms: C_11  and  O_12 
REMARK    5  A    between atoms: C_14  and  O_15 
ROOT
HETATM    1  C   UNL     1      41.646 -11.751   1.805  1.00  0.00     0.189 C 
HETATM    2  N   UNL     1      40.943 -13.047   1.968  1.00  0.00    -0.336 N 
HETATM    3  C   UNL     1      41.704 -14.202   1.951  1.00  0.00     0.225 C 
HETATM    4  O   UNL     1      42.865 -14.216   1.533  1.00  0.00    -0.273 OA
HETATM    5  C   UNL     1      39.482 -12.983   2.193  1.00  0.00     0.132 C 
HETATM    6  C   UNL     1      39.129 -12.276   3.511  1.00  0.00     0.061 C 
HETATM    7  C   UNL     1      40.004 -11.088   3.706  1.00  0.00    -0.019 A 
HETATM    8  C   UNL     1      41.132 -10.874   2.931  1.00  0.00     0.046 A 
HETATM    9  N   UNL     1      41.773  -9.773   3.439  1.00  0.00    -0.356 N 
HETATM   10  H   UNL     1      42.656  -9.401   3.120  1.00  0.00     0.166 HD
HETATM   11  C   UNL     1      41.062  -9.253   4.499  1.00  0.00     0.043 A 
HETATM   12  C   UNL     1      39.939 -10.061   4.685  1.00  0.00    -0.001 A 
HETATM   13  C   UNL     1      41.338  -8.150   5.315  1.00  0.00     0.030 A 
HETATM   14  C   UNL     1      40.438  -7.866   6.348  1.00  0.00     0.002 A 
HETATM   15  C   UNL     1      39.309  -8.654   6.555  1.00  0.00     0.001 A 
HETATM   16  C   UNL     1      39.048  -9.756   5.732  1.00  0.00     0.014 A 
ENDROOT
BRANCH   1  17
HETATM   17  C   UNL     1      41.517 -11.124   0.405  1.00  0.00     0.063 A 
HETATM   18  N   UNL     1      41.999  -9.870   0.178  1.00  0.00    -0.256 NA
HETATM   19  C   UNL     1      41.838  -9.328  -1.055  1.00  0.00     0.031 A 
HETATM   20  C   UNL     1      42.329  -7.928  -1.267  1.00  0.00     0.070 C 
HETATM   21  C   UNL     1      41.214 -10.001  -2.098  1.00  0.00     0.027 A 
HETATM   22  C   UNL     1      40.726 -11.278  -1.868  1.00  0.00     0.004 A 
HETATM   23  C   UNL     1      40.867 -11.842  -0.605  1.00  0.00     0.030 A 
ENDBRANCH   1  17
BRANCH   3  24
HETATM   24  C   UNL     1      41.124 -15.446   2.604  1.00  0.00     0.141 C 
BRANCH  24  25
HETATM   25  C   UNL     1      42.065 -16.481   3.175  1.00  0.00    -0.047 A 
HETATM   26  C   UNL     1      42.626 -16.412   4.457  1.00  0.00     0.047 A 
HETATM   27  C   UNL     1      43.540 -17.386   4.890  1.00  0.00     0.102 A 
HETATM   28  C   UNL     1      43.874 -18.465   4.048  1.00  0.00     0.101 A 
HETATM   29  C   UNL     1      43.291 -18.552   2.785  1.00  0.00     0.040 A 
HETATM   30  C   UNL     1      42.402 -17.567   2.352  1.00  0.00     0.010 A 
BRANCH  27  31
HETATM   31  O   UNL     1      44.148 -17.375   6.122  1.00  0.00    -0.353 OA
HETATM   32  C   UNL     1      43.397 -16.829   7.198  1.00  0.00     0.210 C 
ENDBRANCH  27  31
BRANCH  28  33
HETATM   33  O   UNL     1      44.775 -19.374   4.549  1.00  0.00    -0.353 OA
HETATM   34  C   UNL     1      44.265 -20.627   4.982  1.00  0.00     0.210 C 
ENDBRANCH  28  33
ENDBRANCH  24  25
ENDBRANCH   3  24
TORSDOF 5
ENDMDL
MODEL 8
REMARK VINA RESULT:      -8.2      3.334      7.691
REMARK  5 active torsions:
REMARK  status: ('A' for Active; 'I' for Inactive)
REMARK    1  A    between atoms: C_4  and  C_5 
REMARK       I    between atoms: N_6  and  C_7 
REMARK    2  A    between atoms: C_7  and  C_8 
REMARK    3  A    between atoms: C_8  and  C_9 
REMARK    4  A    between atoms: C_11  and  O_12 
REMARK    5  A    between atoms: C_14  and  O_15 
ROOT
HETATM    1  C   UNL     1      42.265 -11.268   5.700  1.00  0.00     0.189 C 
HETATM    2  N   UNL     1      40.878 -11.182   5.180  1.00  0.00    -0.336 N 
HETATM    3  C   UNL     1      40.671 -10.490   4.000  1.00  0.00     0.225 C 
HETATM    4  O   UNL     1      41.519  -9.725   3.532  1.00  0.00    -0.273 OA
HETATM    5  C   UNL     1      39.839 -11.901   5.949  1.00  0.00     0.132 C 
HETATM    6  C   UNL     1      40.068 -13.419   5.957  1.00  0.00     0.061 C 
HETATM    7  C   UNL     1      41.517 -13.718   6.130  1.00  0.00    -0.019 A 
HETATM    8  C   UNL     1      42.487 -12.737   6.005  1.00  0.00     0.046 A 
HETATM    9  N   UNL     1      43.707 -13.355   6.101  1.00  0.00    -0.356 N 
HETATM   10  H   UNL     1      44.607 -12.911   5.994  1.00  0.00     0.166 HD
HETATM   11  C   UNL     1      43.541 -14.706   6.320  1.00  0.00     0.043 A 
HETATM   12  C   UNL     1      42.169 -14.960   6.348  1.00  0.00    -0.001 A 
HETATM   13  C   UNL     1      44.497 -15.717   6.474  1.00  0.00     0.030 A 
HETATM   14  C   UNL     1      44.034 -17.024   6.662  1.00  0.00     0.002 A 
HETATM   15  C   UNL     1      42.670 -17.305   6.696  1.00  0.00     0.001 A 
HETATM   16  C   UNL     1      41.727 -16.283   6.538  1.00  0.00     0.014 A 
ENDROOT
BRANCH   1  17
HETATM   17  C   UNL     1      42.567 -10.323   6.878  1.00  0.00     0.063 A 
HETATM   18  N   UNL     1      43.606 -10.598   7.716  1.00  0.00    -0.256 NA
HETATM   19  C   UNL     1      43.825  -9.770   8.767  1.00  0.00     0.031 A 
HETATM   20  C   UNL     1      44.940 -10.120   9.706  1.00  0.00     0.070 C 
HETATM   21  C   UNL     1      43.045  -8.647   9.018  1.00  0.00     0.027 A 
HETATM   22  C   UNL     1      41.991  -8.366   8.163  1.00  0.00     0.004 A 
HETATM   23  C   UNL     1      41.740  -9.215   7.090  1.00  0.00     0.030 A 
ENDBRANCH   1  17
BRANCH   3  24
HETATM   24  C   UNL     1      39.419 -10.806   3.200  1.00  0.00     0.141 C 
BRANCH  24  25
HETATM   25  C   UNL     1      39.496 -11.825   2.087  1.00  0.00    -0.047 A 
HETATM   26  C   UNL     1      40.017 -13.117   2.239  1.00  0.00     0.047 A 
HETATM   27  C   UNL     1      40.109 -13.984   1.137  1.00  0.00     0.102 A 
HETATM   28  C   UNL     1      39.642 -13.572  -0.127  1.00  0.00     0.101 A 
HETATM   29  C   UNL     1      39.094 -12.298  -0.271  1.00  0.00     0.040 A 
HETATM   30  C   UNL     1      39.029 -11.434   0.823  1.00  0.00     0.010 A 
BRANCH  27  31
HETATM   31  O   UNL     1      40.626 -15.255   1.202  1.00  0.00    -0.353 OA
HETATM   32  C   UNL     1      40.649 -15.869   2.483  1.00  0.00     0.210 C 
ENDBRANCH  27  31
BRANCH  28  33
HETATM   33  O   UNL     1      39.768 -14.480  -1.149  1.00  0.00    -0.353 OA
HETATM   34  C   UNL     1      40.054 -13.970  -2.444  1.00  0.00     0.210 C 
ENDBRANCH  28  33
ENDBRANCH  24  25
ENDBRANCH   3  24
TORSDOF 5
ENDMDL
MODEL 9
REMARK VINA RESULT:      -8.1      3.049      6.989
REMARK  5 active torsions:
REMARK  status: ('A' for Active; 'I' for Inactive)
REMARK    1  A    between atoms: C_4  and  C_5 
REMARK       I    between atoms: N_6  and  C_7 
REMARK    2  A    between atoms: C_7  and  C_8 
REMARK    3  A    between atoms: C_8  and  C_9 
REMARK    4  A    between atoms: C_11  and  O_12 
REMARK    5  A    between atoms: C_14  and  O_15 
ROOT
HETATM    1  C   UNL     1      41.772 -13.246   1.825  1.00  0.00     0.189 C 
HETATM    2  N   UNL     1      41.280 -12.115   2.650  1.00  0.00    -0.336 N 
HETATM    3  C   UNL     1      42.190 -11.142   3.021  1.00  0.00     0.225 C 
HETATM    4  O   UNL     1      43.408 -11.319   2.940  1.00  0.00    -0.273 OA
HETATM    5  C   UNL     1      39.833 -12.102   2.957  1.00  0.00     0.132 C 
HETATM    6  C   UNL     1      38.973 -11.954   1.693  1.00  0.00     0.061 C 
HETATM    7  C   UNL     1      39.532 -12.786   0.592  1.00  0.00    -0.019 A 
HETATM    8  C   UNL     1      40.793 -13.353   0.670  1.00  0.00     0.046 A 
HETATM    9  N   UNL     1      41.050 -13.947  -0.539  1.00  0.00    -0.356 N 
HETATM   10  H   UNL     1      41.913 -14.396  -0.807  1.00  0.00     0.166 HD
HETATM   11  C   UNL     1      39.967 -13.805  -1.379  1.00  0.00     0.043 A 
HETATM   12  C   UNL     1      38.994 -13.081  -0.689  1.00  0.00    -0.001 A 
HETATM   13  C   UNL     1      39.787 -14.241  -2.697  1.00  0.00     0.030 A 
HETATM   14  C   UNL     1      38.574 -13.928  -3.323  1.00  0.00     0.002 A 
HETATM   15  C   UNL     1      37.586 -13.209  -2.657  1.00  0.00     0.001 A 
HETATM   16  C   UNL     1      37.783 -12.777  -1.340  1.00  0.00     0.014 A 
ENDROOT
BRANCH   1  17
HETATM   17  C   UNL     1      41.983 -14.560   2.600  1.00  0.00     0.063 A 
HETATM   18  N   UNL     1      41.266 -14.800   3.733  1.00  0.00    -0.256 NA
HETATM   19  C   UNL     1      41.501 -15.948   4.416  1.00  0.00     0.031 A 
HETATM   20  C   UNL     1      40.739 -16.167   5.688  1.00  0.00     0.070 C 
HETATM   21  C   UNL     1      42.430 -16.895   4.002  1.00  0.00     0.027 A 
HETATM   22  C   UNL     1      43.156 -16.652   2.847  1.00  0.00     0.004 A 
HETATM   23  C   UNL     1      42.942 -15.471   2.145  1.00  0.00     0.030 A 
ENDBRANCH   1  17
BRANCH   3  24
HETATM   24  C   UNL     1      41.652  -9.773   3.400  1.00  0.00     0.141 C 
BRANCH  24  25
HETATM   25  C   UNL     1      40.864  -9.623   4.681  1.00  0.00    -0.047 A 
HETATM   26  C   UNL     1      39.679  -8.883   4.794  1.00  0.00     0.047 A 
HETATM   27  C   UNL     1      39.040  -8.744   6.036  1.00  0.00     0.102 A 
HETATM   28  C   UNL     1      39.567  -9.380   7.177  1.00  0.00     0.101 A 
HETATM   29  C   UNL     1      40.728 -10.143   7.059  1.00  0.00     0.040 A 
HETATM   30  C   UNL     1      41.371 -10.256   5.826  1.00  0.00     0.010 A 
BRANCH  27  31
HETATM   31  O   UNL     1      37.889  -8.019   6.230  1.00  0.00    -0.353 OA
HETATM   32  C   UNL     1      37.367  -7.336   5.099  1.00  0.00     0.210 C 
ENDBRANCH  27  31
BRANCH  28  33
HETATM   33  O   UNL     1      38.880  -9.193   8.352  1.00  0.00    -0.353 OA
HETATM   34  C   UNL     1      39.613  -8.704   9.466  1.00  0.00     0.210 C 
ENDBRANCH  28  33
ENDBRANCH  24  25
ENDBRANCH   3  24
TORSDOF 5
ENDMDL
MODEL 10
REMARK VINA RESULT:      -7.9     16.649     18.443
REMARK  5 active torsions:
REMARK  status: ('A' for Active; 'I' for Inactive)
REMARK    1  A    between atoms: C_4  and  C_5 
REMARK       I    between atoms: N_6  and  C_7 
REMARK    2  A    between atoms: C_7  and  C_8 
REMARK    3  A    between atoms: C_8  and  C_9 
REMARK    4  A    between atoms: C_11  and  O_12 
REMARK    5  A    between atoms: C_14  and  O_15 
ROOT
HETATM    1  C   UNL     1      44.064 -29.945  -0.075  1.00  0.00     0.189 C 
HETATM    2  N   UNL     1      43.374 -30.990   0.721  1.00  0.00    -0.336 N 
HETATM    3  C   UNL     1      42.298 -30.604   1.501  1.00  0.00     0.225 C 
HETATM    4  O   UNL     1      42.078 -29.422   1.774  1.00  0.00    -0.273 OA
HETATM    5  C   UNL     1      43.869 -32.375   0.564  1.00  0.00     0.132 C 
HETATM    6  C   UNL     1      43.674 -32.903  -0.866  1.00  0.00     0.061 C 
HETATM    7  C   UNL     1      44.000 -31.837  -1.854  1.00  0.00    -0.019 A 
HETATM    8  C   UNL     1      44.166 -30.515  -1.478  1.00  0.00     0.046 A 
HETATM    9  N   UNL     1      44.335 -29.782  -2.624  1.00  0.00    -0.356 N 
HETATM   10  H   UNL     1      44.425 -28.778  -2.678  1.00  0.00     0.166 HD
HETATM   11  C   UNL     1      44.317 -30.610  -3.726  1.00  0.00     0.043 A 
HETATM   12  C   UNL     1      44.113 -31.912  -3.267  1.00  0.00    -0.001 A 
HETATM   13  C   UNL     1      44.445 -30.302  -5.086  1.00  0.00     0.030 A 
HETATM   14  C   UNL     1      44.362 -31.359  -6.000  1.00  0.00     0.002 A 
HETATM   15  C   UNL     1      44.160 -32.668  -5.569  1.00  0.00     0.001 A 
HETATM   16  C   UNL     1      44.031 -32.959  -4.206  1.00  0.00     0.014 A 
ENDROOT
BRANCH   1  17
HETATM   17  C   UNL     1      45.404 -29.471   0.515  1.00  0.00     0.063 A 
HETATM   18  N   UNL     1      46.534 -29.524  -0.244  1.00  0.00    -0.256 NA
HETATM   19  C   UNL     1      47.708 -29.135   0.314  1.00  0.00     0.031 A 
HETATM   20  C   UNL     1      48.946 -29.251  -0.522  1.00  0.00     0.070 C 
HETATM   21  C   UNL     1      47.803 -28.673   1.622  1.00  0.00     0.027 A 
HETATM   22  C   UNL     1      46.653 -28.615   2.392  1.00  0.00     0.004 A 
HETATM   23  C   UNL     1      45.445 -29.028   1.842  1.00  0.00     0.030 A 
ENDBRANCH   1  17
BRANCH   3  24
HETATM   24  C   UNL     1      41.291 -31.670   1.901  1.00  0.00     0.141 C 
BRANCH  24  25
HETATM   25  C   UNL     1      41.052 -31.939   3.368  1.00  0.00    -0.047 A 
HETATM   26  C   UNL     1      39.787 -32.132   3.936  1.00  0.00     0.047 A 
HETATM   27  C   UNL     1      39.646 -32.317   5.321  1.00  0.00     0.102 A 
HETATM   28  C   UNL     1      40.785 -32.346   6.149  1.00  0.00     0.101 A 
HETATM   29  C   UNL     1      42.048 -32.187   5.580  1.00  0.00     0.040 A 
HETATM   30  C   UNL     1      42.178 -31.979   4.206  1.00  0.00     0.010 A 
BRANCH  27  31
HETATM   31  O   UNL     1      38.438 -32.491   5.954  1.00  0.00    -0.353 OA
HETATM   32  C   UNL     1      37.658 -33.605   5.544  1.00  0.00     0.210 C 
ENDBRANCH  27  31
BRANCH  28  33
HETATM   33  O   UNL     1      40.559 -32.533   7.492  1.00  0.00    -0.353 OA
HETATM   34  C   UNL     1      41.576 -32.111   8.389  1.00  0.00     0.210 C 
ENDBRANCH  28  33
ENDBRANCH  24  25
ENDBRANCH   3  24
TORSDOF 5
ENDMDL
