MODEL 1
REMARK VINA RESULT:      -9.2      0.000      0.000
REMARK  6 active torsions:
REMARK  status: ('A' for Active; 'I' for Inactive)
REMARK    1  A    between atoms: O_2  and  C_3 
REMARK    2  A    between atoms: C_6  and  C_7 
REMARK    3  A    between atoms: C_9  and  N_10 
REMARK    4  A    between atoms: N_10  and  N_11 
REMARK       I    between atoms: N_10  and  C_22 
REMARK       I    between atoms: N_11  and  C_12 
REMARK       I    between atoms: C_12  and  N_13 
REMARK    5  A    between atoms: N_13  and  C_14 
REMARK       I    between atoms: C_22  and  N_23 
REMARK    6  A    between atoms: N_23  and  C_24 
ROOT
HETATM    1  N   UNL     1      42.687 -12.688   6.262  1.00  0.00    -0.195 N 
HETATM    2  C   UNL     1      43.101 -11.472   6.828  1.00  0.00     0.340 C 
HETATM    3  N   UNL     1      42.341 -10.358   6.540  1.00  0.00    -0.337 N 
HETATM    4  O   UNL     1      44.058 -11.412   7.608  1.00  0.00    -0.245 OA
HETATM    5  H   UNL     1      41.459 -10.519   6.077  1.00  0.00     0.164 HD
ENDROOT
BRANCH   1   6
HETATM    6  C   UNL     1      41.634 -12.760   5.360  1.00  0.00     0.193 A 
HETATM    7  N   UNL     1      41.786 -12.852   4.059  1.00  0.00    -0.222 NA
HETATM    8  C   UNL     1      40.548 -13.004   3.455  1.00  0.00     0.076 A 
HETATM    9  C   UNL     1      39.468 -12.889   4.309  1.00  0.00     0.085 A 
HETATM   10  S   UNL     1      40.021 -12.667   5.922  1.00  0.00    -0.060 SA
BRANCH   8  11
HETATM   11  C   UNL     1      40.455 -13.335   2.040  1.00  0.00    -0.007 A 
HETATM   12  C   UNL     1      40.117 -14.648   1.677  1.00  0.00     0.016 A 
HETATM   13  C   UNL     1      39.991 -15.015   0.333  1.00  0.00     0.037 A 
HETATM   14  C   UNL     1      40.213 -14.073  -0.670  1.00  0.00     0.068 A 
HETATM   15  C   UNL     1      40.548 -12.764  -0.313  1.00  0.00     0.037 A 
HETATM   16  C   UNL     1      40.671 -12.393   1.031  1.00  0.00     0.016 A 
BRANCH  14  17
HETATM   17  O   UNL     1      40.131 -14.303  -2.015  1.00  0.00    -0.356 OA
HETATM   18  C   UNL     1      38.859 -14.694  -2.518  1.00  0.00     0.210 C 
ENDBRANCH  14  17
ENDBRANCH   8  11
ENDBRANCH   1   6
BRANCH   1  19
HETATM   19  N   UNL     1      42.777 -13.827   7.133  1.00  0.00    -0.142 NA
HETATM   20  C   UNL     1      42.707 -15.103   6.613  1.00  0.00     0.317 C 
HETATM   21  N   UNL     1      43.410 -15.288   5.451  1.00  0.00    -0.312 N 
HETATM   22  O   UNL     1      42.079 -15.957   7.233  1.00  0.00    -0.252 OA
HETATM   23  H   UNL     1      44.080 -14.549   5.252  1.00  0.00     0.170 HD
HETATM   24  H   UNL     1      42.190 -13.728   7.959  1.00  0.00     0.158 HD
BRANCH  21  25
HETATM   25  C   UNL     1      43.519 -16.463   4.685  1.00  0.00     0.036 A 
HETATM   26  C   UNL     1      44.281 -17.571   5.066  1.00  0.00     0.031 A 
HETATM   27  C   UNL     1      44.350 -18.700   4.243  1.00  0.00     0.026 A 
HETATM   28  C   UNL     1      43.652 -18.726   3.039  1.00  0.00     0.034 A 
HETATM   29 CL   UNL     1      43.743 -20.112   2.024  1.00  0.00    -0.084 Cl
HETATM   30  C   UNL     1      42.880 -17.634   2.653  1.00  0.00     0.026 A 
HETATM   31  C   UNL     1      42.812 -16.508   3.477  1.00  0.00     0.031 A 
ENDBRANCH  21  25
ENDBRANCH   1  19
BRANCH   3  32
HETATM   32  C   UNL     1      42.392  -9.161   7.373  1.00  0.00     0.086 C 
HETATM   33  C   UNL     1      41.911  -7.936   6.584  1.00  0.00     0.025 C 
HETATM   34  C   UNL     1      40.408  -7.967   6.294  1.00  0.00     0.002 C 
HETATM   35  C   UNL     1      39.583  -8.190   7.558  1.00  0.00     0.000 C 
HETATM   36  C   UNL     1      40.048  -9.416   8.337  1.00  0.00     0.002 C 
HETATM   37  C   UNL     1      41.546  -9.354   8.642  1.00  0.00     0.025 C 
ENDBRANCH   3  32
TORSDOF 6
ENDMDL
MODEL 2
REMARK VINA RESULT:      -9.1      3.668      7.058
REMARK  6 active torsions:
REMARK  status: ('A' for Active; 'I' for Inactive)
REMARK    1  A    between atoms: O_2  and  C_3 
REMARK    2  A    between atoms: C_6  and  C_7 
REMARK    3  A    between atoms: C_9  and  N_10 
REMARK    4  A    between atoms: N_10  and  N_11 
REMARK       I    between atoms: N_10  and  C_22 
REMARK       I    between atoms: N_11  and  C_12 
REMARK       I    between atoms: C_12  and  N_13 
REMARK    5  A    between atoms: N_13  and  C_14 
REMARK       I    between atoms: C_22  and  N_23 
REMARK    6  A    between atoms: N_23  and  C_24 
ROOT
HETATM    1  N   UNL     1      43.074 -12.469   6.361  1.00  0.00    -0.195 N 
HETATM    2  C   UNL     1      42.773 -13.831   6.523  1.00  0.00     0.340 C 
HETATM    3  N   UNL     1      42.089 -14.445   5.495  1.00  0.00    -0.337 N 
HETATM    4  O   UNL     1      43.166 -14.471   7.504  1.00  0.00    -0.245 OA
HETATM    5  H   UNL     1      41.991 -13.920   4.639  1.00  0.00     0.164 HD
ENDROOT
BRANCH   1   6
HETATM    6  C   UNL     1      42.610 -11.735   5.278  1.00  0.00     0.193 A 
HETATM    7  N   UNL     1      42.561 -12.191   4.048  1.00  0.00    -0.222 NA
HETATM    8  C   UNL     1      41.959 -11.252   3.226  1.00  0.00     0.076 A 
HETATM    9  C   UNL     1      41.682 -10.041   3.835  1.00  0.00     0.085 A 
HETATM   10  S   UNL     1      42.114 -10.113   5.497  1.00  0.00    -0.060 SA
BRANCH   8  11
HETATM   11  C   UNL     1      41.596 -11.594   1.859  1.00  0.00    -0.007 A 
HETATM   12  C   UNL     1      41.353 -12.939   1.543  1.00  0.00     0.016 A 
HETATM   13  C   UNL     1      40.979 -13.321   0.250  1.00  0.00     0.037 A 
HETATM   14  C   UNL     1      40.854 -12.360  -0.751  1.00  0.00     0.068 A 
HETATM   15  C   UNL     1      41.093 -11.018  -0.441  1.00  0.00     0.037 A 
HETATM   16  C   UNL     1      41.464 -10.633   0.852  1.00  0.00     0.016 A 
BRANCH  14  17
HETATM   17  O   UNL     1      40.505 -12.600  -2.051  1.00  0.00    -0.356 OA
HETATM   18  C   UNL     1      41.052 -11.723  -3.029  1.00  0.00     0.210 C 
ENDBRANCH  14  17
ENDBRANCH   8  11
ENDBRANCH   1   6
BRANCH   1  19
HETATM   19  N   UNL     1      44.386 -12.080   6.801  1.00  0.00    -0.142 NA
HETATM   20  C   UNL     1      44.533 -11.068   7.727  1.00  0.00     0.317 C 
HETATM   21  N   UNL     1      43.635 -11.104   8.762  1.00  0.00    -0.312 N 
HETATM   22  O   UNL     1      45.454 -10.269   7.584  1.00  0.00    -0.252 OA
HETATM   23  H   UNL     1      43.140 -11.990   8.849  1.00  0.00     0.170 HD
HETATM   24  H   UNL     1      45.036 -11.972   6.023  1.00  0.00     0.158 HD
BRANCH  21  25
HETATM   25  C   UNL     1      43.527 -10.211   9.844  1.00  0.00     0.036 A 
HETATM   26  C   UNL     1      43.389  -8.828   9.699  1.00  0.00     0.031 A 
HETATM   27  C   UNL     1      43.299  -8.003  10.826  1.00  0.00     0.026 A 
HETATM   28  C   UNL     1      43.342  -8.562  12.100  1.00  0.00     0.034 A 
HETATM   29 CL   UNL     1      43.239  -7.545  13.485  1.00  0.00    -0.084 Cl
HETATM   30  C   UNL     1      43.467  -9.938  12.258  1.00  0.00     0.026 A 
HETATM   31  C   UNL     1      43.555 -10.760  11.132  1.00  0.00     0.031 A 
ENDBRANCH  21  25
ENDBRANCH   1  19
BRANCH   3  32
HETATM   32  C   UNL     1      42.090 -15.895   5.334  1.00  0.00     0.086 C 
HETATM   33  C   UNL     1      40.754 -16.372   4.749  1.00  0.00     0.025 C 
HETATM   34  C   UNL     1      40.564 -15.965   3.286  1.00  0.00     0.002 C 
HETATM   35  C   UNL     1      41.748 -16.380   2.416  1.00  0.00     0.000 C 
HETATM   36  C   UNL     1      43.077 -15.894   2.985  1.00  0.00     0.002 C 
HETATM   37  C   UNL     1      43.260 -16.335   4.439  1.00  0.00     0.025 C 
ENDBRANCH   3  32
TORSDOF 6
ENDMDL
MODEL 3
REMARK VINA RESULT:      -9.0      3.307      7.613
REMARK  6 active torsions:
REMARK  status: ('A' for Active; 'I' for Inactive)
REMARK    1  A    between atoms: O_2  and  C_3 
REMARK    2  A    between atoms: C_6  and  C_7 
REMARK    3  A    between atoms: C_9  and  N_10 
REMARK    4  A    between atoms: N_10  and  N_11 
REMARK       I    between atoms: N_10  and  C_22 
REMARK       I    between atoms: N_11  and  C_12 
REMARK       I    between atoms: C_12  and  N_13 
REMARK    5  A    between atoms: N_13  and  C_14 
REMARK       I    between atoms: C_22  and  N_23 
REMARK    6  A    between atoms: N_23  and  C_24 
ROOT
HETATM    1  N   UNL     1      41.246 -12.005   1.883  1.00  0.00    -0.195 N 
HETATM    2  C   UNL     1      41.343 -11.514   0.572  1.00  0.00     0.340 C 
HETATM    3  N   UNL     1      41.110 -12.411  -0.449  1.00  0.00    -0.337 N 
HETATM    4  O   UNL     1      41.551 -10.318   0.340  1.00  0.00    -0.245 OA
HETATM    5  H   UNL     1      40.736 -13.310  -0.185  1.00  0.00     0.164 HD
ENDROOT
BRANCH   1   6
HETATM    6  C   UNL     1      41.044 -13.351   2.153  1.00  0.00     0.193 A 
HETATM    7  N   UNL     1      42.013 -14.215   2.352  1.00  0.00    -0.222 NA
HETATM    8  C   UNL     1      41.478 -15.447   2.692  1.00  0.00     0.076 A 
HETATM    9  C   UNL     1      40.100 -15.522   2.613  1.00  0.00     0.085 A 
HETATM   10  S   UNL     1      39.457 -13.988   2.180  1.00  0.00    -0.060 SA
BRANCH   8  11
HETATM   11  C   UNL     1      42.341 -16.520   3.164  1.00  0.00    -0.007 A 
HETATM   12  C   UNL     1      42.638 -16.591   4.534  1.00  0.00     0.016 A 
HETATM   13  C   UNL     1      43.443 -17.614   5.045  1.00  0.00     0.037 A 
HETATM   14  C   UNL     1      43.973 -18.577   4.189  1.00  0.00     0.068 A 
HETATM   15  C   UNL     1      43.678 -18.512   2.824  1.00  0.00     0.037 A 
HETATM   16  C   UNL     1      42.870 -17.492   2.310  1.00  0.00     0.016 A 
BRANCH  14  17
HETATM   17  O   UNL     1      44.777 -19.620   4.557  1.00  0.00    -0.356 OA
HETATM   18  C   UNL     1      44.163 -20.665   5.303  1.00  0.00     0.210 C 
ENDBRANCH  14  17
ENDBRANCH   8  11
ENDBRANCH   1   6
BRANCH   1  19
HETATM   19  N   UNL     1      40.594 -11.127   2.816  1.00  0.00    -0.142 NA
HETATM   20  C   UNL     1      41.057 -11.028   4.112  1.00  0.00     0.317 C 
HETATM   21  N   UNL     1      42.421 -10.982   4.231  1.00  0.00    -0.312 N 
HETATM   22  O   UNL     1      40.239 -10.945   5.023  1.00  0.00    -0.252 OA
HETATM   23  H   UNL     1      42.906 -10.782   3.358  1.00  0.00     0.170 HD
HETATM   24  H   UNL     1      39.580 -11.220   2.787  1.00  0.00     0.158 HD
BRANCH  21  25
HETATM   25  C   UNL     1      43.183 -10.892   5.411  1.00  0.00     0.036 A 
HETATM   26  C   UNL     1      44.377 -11.588   5.619  1.00  0.00     0.031 A 
HETATM   27  C   UNL     1      45.073 -11.455   6.826  1.00  0.00     0.026 A 
HETATM   28  C   UNL     1      44.577 -10.623   7.826  1.00  0.00     0.034 A 
HETATM   29 CL   UNL     1      45.429 -10.468   9.312  1.00  0.00    -0.084 Cl
HETATM   30  C   UNL     1      43.395  -9.916   7.627  1.00  0.00     0.026 A 
HETATM   31  C   UNL     1      42.703 -10.049   6.420  1.00  0.00     0.031 A 
ENDBRANCH  21  25
ENDBRANCH   1  19
BRANCH   3  32
HETATM   32  C   UNL     1      40.760 -11.966  -1.794  1.00  0.00     0.086 C 
HETATM   33  C   UNL     1      40.937 -13.108  -2.802  1.00  0.00     0.025 C 
HETATM   34  C   UNL     1      39.897 -14.219  -2.634  1.00  0.00     0.002 C 
HETATM   35  C   UNL     1      38.471 -13.676  -2.635  1.00  0.00     0.000 C 
HETATM   36  C   UNL     1      38.286 -12.550  -1.622  1.00  0.00     0.002 C 
HETATM   37  C   UNL     1      39.316 -11.437  -1.824  1.00  0.00     0.025 C 
ENDBRANCH   3  32
TORSDOF 6
ENDMDL
MODEL 4
REMARK VINA RESULT:      -8.6      3.404      8.339
REMARK  6 active torsions:
REMARK  status: ('A' for Active; 'I' for Inactive)
REMARK    1  A    between atoms: O_2  and  C_3 
REMARK    2  A    between atoms: C_6  and  C_7 
REMARK    3  A    between atoms: C_9  and  N_10 
REMARK    4  A    between atoms: N_10  and  N_11 
REMARK       I    between atoms: N_10  and  C_22 
REMARK       I    between atoms: N_11  and  C_12 
REMARK       I    between atoms: C_12  and  N_13 
REMARK    5  A    between atoms: N_13  and  C_14 
REMARK       I    between atoms: C_22  and  N_23 
REMARK    6  A    between atoms: N_23  and  C_24 
ROOT
HETATM    1  N   UNL     1      40.718 -13.840   3.348  1.00  0.00    -0.195 N 
HETATM    2  C   UNL     1      40.846 -15.187   3.720  1.00  0.00     0.340 C 
HETATM    3  N   UNL     1      41.914 -15.513   4.528  1.00  0.00    -0.337 N 
HETATM    4  O   UNL     1      40.002 -16.032   3.402  1.00  0.00    -0.245 OA
HETATM    5  H   UNL     1      42.435 -14.744   4.922  1.00  0.00     0.164 HD
ENDROOT
BRANCH   1   6
HETATM    6  C   UNL     1      41.677 -12.892   3.673  1.00  0.00     0.193 A 
HETATM    7  N   UNL     1      41.928 -12.489   4.898  1.00  0.00    -0.222 NA
HETATM    8  C   UNL     1      43.003 -11.615   4.891  1.00  0.00     0.076 A 
HETATM    9  C   UNL     1      43.462 -11.270   3.633  1.00  0.00     0.085 A 
HETATM   10  S   UNL     1      42.575 -12.127   2.435  1.00  0.00    -0.060 SA
BRANCH   8  11
HETATM   11  C   UNL     1      43.612 -11.187   6.142  1.00  0.00    -0.007 A 
HETATM   12  C   UNL     1      44.964 -11.487   6.370  1.00  0.00     0.016 A 
HETATM   13  C   UNL     1      45.605 -11.079   7.544  1.00  0.00     0.037 A 
HETATM   14  C   UNL     1      44.898 -10.373   8.515  1.00  0.00     0.068 A 
HETATM   15  C   UNL     1      43.552 -10.070   8.292  1.00  0.00     0.037 A 
HETATM   16  C   UNL     1      42.909 -10.473   7.116  1.00  0.00     0.016 A 
BRANCH  14  17
HETATM   17  O   UNL     1      45.402  -9.926   9.704  1.00  0.00    -0.356 OA
HETATM   18  C   UNL     1      44.454  -9.545  10.695  1.00  0.00     0.210 C 
ENDBRANCH  14  17
ENDBRANCH   8  11
ENDBRANCH   1   6
BRANCH   1  19
HETATM   19  N   UNL     1      39.374 -13.329   3.365  1.00  0.00    -0.142 NA
HETATM   20  C   UNL     1      38.950 -12.467   2.375  1.00  0.00     0.317 C 
HETATM   21  N   UNL     1      39.356 -12.802   1.110  1.00  0.00    -0.312 N 
HETATM   22  O   UNL     1      38.229 -11.524   2.687  1.00  0.00    -0.252 OA
HETATM   23  H   UNL     1      39.703 -13.756   1.027  1.00  0.00     0.170 HD
HETATM   24  H   UNL     1      39.099 -13.001   4.289  1.00  0.00     0.158 HD
BRANCH  21  25
HETATM   25  C   UNL     1      39.094 -12.119  -0.092  1.00  0.00     0.036 A 
HETATM   26  C   UNL     1      37.856 -12.133  -0.739  1.00  0.00     0.031 A 
HETATM   27  C   UNL     1      37.676 -11.436  -1.939  1.00  0.00     0.026 A 
HETATM   28  C   UNL     1      38.734 -10.720  -2.492  1.00  0.00     0.034 A 
HETATM   29 CL   UNL     1      38.514  -9.870  -3.972  1.00  0.00    -0.084 Cl
HETATM   30  C   UNL     1      39.969 -10.688  -1.851  1.00  0.00     0.026 A 
HETATM   31  C   UNL     1      40.146 -11.383  -0.652  1.00  0.00     0.031 A 
ENDBRANCH  21  25
ENDBRANCH   1  19
BRANCH   3  32
HETATM   32  C   UNL     1      41.930 -16.739   5.319  1.00  0.00     0.086 C 
HETATM   33  C   UNL     1      43.218 -17.531   5.059  1.00  0.00     0.025 C 
HETATM   34  C   UNL     1      44.463 -16.853   5.636  1.00  0.00     0.002 C 
HETATM   35  C   UNL     1      44.296 -16.508   7.113  1.00  0.00     0.000 C 
HETATM   36  C   UNL     1      43.024 -15.706   7.375  1.00  0.00     0.002 C 
HETATM   37  C   UNL     1      41.788 -16.414   6.815  1.00  0.00     0.025 C 
ENDBRANCH   3  32
TORSDOF 6
ENDMDL
MODEL 5
REMARK VINA RESULT:      -8.5      2.977      5.938
REMARK  6 active torsions:
REMARK  status: ('A' for Active; 'I' for Inactive)
REMARK    1  A    between atoms: O_2  and  C_3 
REMARK    2  A    between atoms: C_6  and  C_7 
REMARK    3  A    between atoms: C_9  and  N_10 
REMARK    4  A    between atoms: N_10  and  N_11 
REMARK       I    between atoms: N_10  and  C_22 
REMARK       I    between atoms: N_11  and  C_12 
REMARK       I    between atoms: C_12  and  N_13 
REMARK    5  A    between atoms: N_13  and  C_14 
REMARK       I    between atoms: C_22  and  N_23 
REMARK    6  A    between atoms: N_23  and  C_24 
ROOT
HETATM    1  N   UNL     1      42.684 -12.037   6.114  1.00  0.00    -0.195 N 
HETATM    2  C   UNL     1      43.719 -11.971   7.060  1.00  0.00     0.340 C 
HETATM    3  N   UNL     1      44.147 -10.713   7.429  1.00  0.00    -0.337 N 
HETATM    4  O   UNL     1      44.175 -12.986   7.595  1.00  0.00    -0.245 OA
HETATM    5  H   UNL     1      43.588  -9.934   7.116  1.00  0.00     0.164 HD
ENDROOT
BRANCH   1   6
HETATM    6  C   UNL     1      42.188 -10.904   5.484  1.00  0.00     0.193 A 
HETATM    7  N   UNL     1      41.714  -9.858   6.119  1.00  0.00    -0.222 NA
HETATM    8  C   UNL     1      41.393  -8.864   5.208  1.00  0.00     0.076 A 
HETATM    9  C   UNL     1      41.509  -9.235   3.881  1.00  0.00     0.085 A 
HETATM   10  S   UNL     1      42.113 -10.841   3.776  1.00  0.00    -0.060 SA
BRANCH   8  11
HETATM   11  C   UNL     1      41.043  -7.528   5.668  1.00  0.00    -0.007 A 
HETATM   12  C   UNL     1      41.823  -6.936   6.673  1.00  0.00     0.016 A 
HETATM   13  C   UNL     1      41.545  -5.645   7.135  1.00  0.00     0.037 A 
HETATM   14  C   UNL     1      40.472  -4.931   6.605  1.00  0.00     0.068 A 
HETATM   15  C   UNL     1      39.693  -5.516   5.603  1.00  0.00     0.037 A 
HETATM   16  C   UNL     1      39.971  -6.806   5.135  1.00  0.00     0.016 A 
BRANCH  14  17
HETATM   17  O   UNL     1      40.090  -3.672   6.973  1.00  0.00    -0.356 OA
HETATM   18  C   UNL     1      40.642  -3.166   8.183  1.00  0.00     0.210 C 
ENDBRANCH  14  17
ENDBRANCH   8  11
ENDBRANCH   1   6
BRANCH   1  19
HETATM   19  N   UNL     1      41.684 -13.035   6.374  1.00  0.00    -0.142 NA
HETATM   20  C   UNL     1      41.619 -14.170   5.592  1.00  0.00     0.317 C 
HETATM   21  N   UNL     1      42.833 -14.728   5.290  1.00  0.00    -0.312 N 
HETATM   22  O   UNL     1      40.515 -14.605   5.278  1.00  0.00    -0.252 OA
HETATM   23  H   UNL     1      43.600 -14.388   5.868  1.00  0.00     0.170 HD
HETATM   24  H   UNL     1      40.761 -12.628   6.518  1.00  0.00     0.158 HD
BRANCH  21  25
HETATM   25  C   UNL     1      43.090 -15.871   4.510  1.00  0.00     0.036 A 
HETATM   26  C   UNL     1      42.908 -15.923   3.125  1.00  0.00     0.031 A 
HETATM   27  C   UNL     1      43.174 -17.102   2.421  1.00  0.00     0.026 A 
HETATM   28  C   UNL     1      43.627 -18.230   3.099  1.00  0.00     0.034 A 
HETATM   29 CL   UNL     1      43.946 -19.682   2.232  1.00  0.00    -0.084 Cl
HETATM   30  C   UNL     1      43.823 -18.188   4.476  1.00  0.00     0.026 A 
HETATM   31  C   UNL     1      43.558 -17.009   5.178  1.00  0.00     0.031 A 
ENDBRANCH  21  25
ENDBRANCH   1  19
BRANCH   3  32
HETATM   32  C   UNL     1      44.880 -10.488   8.670  1.00  0.00     0.086 C 
HETATM   33  C   UNL     1      45.635  -9.154   8.615  1.00  0.00     0.025 C 
HETATM   34  C   UNL     1      44.705  -7.939   8.658  1.00  0.00     0.002 C 
HETATM   35  C   UNL     1      43.739  -7.998   9.838  1.00  0.00     0.000 C 
HETATM   36  C   UNL     1      42.973  -9.317   9.887  1.00  0.00     0.002 C 
HETATM   37  C   UNL     1      43.922 -10.517   9.872  1.00  0.00     0.025 C 
ENDBRANCH   3  32
TORSDOF 6
ENDMDL
MODEL 6
REMARK VINA RESULT:      -8.2      2.626      3.354
REMARK  6 active torsions:
REMARK  status: ('A' for Active; 'I' for Inactive)
REMARK    1  A    between atoms: O_2  and  C_3 
REMARK    2  A    between atoms: C_6  and  C_7 
REMARK    3  A    between atoms: C_9  and  N_10 
REMARK    4  A    between atoms: N_10  and  N_11 
REMARK       I    between atoms: N_10  and  C_22 
REMARK       I    between atoms: N_11  and  C_12 
REMARK       I    between atoms: C_12  and  N_13 
REMARK    5  A    between atoms: N_13  and  C_14 
REMARK       I    between atoms: C_22  and  N_23 
REMARK    6  A    between atoms: N_23  and  C_24 
ROOT
HETATM    1  N   UNL     1      42.566 -12.599   6.158  1.00  0.00    -0.195 N 
HETATM    2  C   UNL     1      43.690 -12.372   6.967  1.00  0.00     0.340 C 
HETATM    3  N   UNL     1      44.004 -11.058   7.243  1.00  0.00    -0.337 N 
HETATM    4  O   UNL     1      44.326 -13.303   7.473  1.00  0.00    -0.245 OA
HETATM    5  H   UNL     1      43.322 -10.364   6.978  1.00  0.00     0.164 HD
ENDROOT
BRANCH   1   6
HETATM    6  C   UNL     1      41.866 -11.561   5.560  1.00  0.00     0.193 A 
HETATM    7  N   UNL     1      42.104 -11.115   4.348  1.00  0.00    -0.222 NA
HETATM    8  C   UNL     1      41.172 -10.146   4.016  1.00  0.00     0.076 A 
HETATM    9  C   UNL     1      40.321  -9.783   5.043  1.00  0.00     0.085 A 
HETATM   10  S   UNL     1      40.647 -10.739   6.435  1.00  0.00    -0.060 SA
BRANCH   8  11
HETATM   11  C   UNL     1      41.088  -9.641   2.653  1.00  0.00    -0.007 A 
HETATM   12  C   UNL     1      41.615 -10.420   1.612  1.00  0.00     0.016 A 
HETATM   13  C   UNL     1      41.541  -9.993   0.282  1.00  0.00     0.037 A 
HETATM   14  C   UNL     1      40.946  -8.771  -0.025  1.00  0.00     0.068 A 
HETATM   15  C   UNL     1      40.417  -7.992   1.008  1.00  0.00     0.037 A 
HETATM   16  C   UNL     1      40.487  -8.418   2.339  1.00  0.00     0.016 A 
BRANCH  14  17
HETATM   17  O   UNL     1      40.817  -8.236  -1.276  1.00  0.00    -0.356 OA
HETATM   18  C   UNL     1      42.022  -8.006  -1.998  1.00  0.00     0.210 C 
ENDBRANCH  14  17
ENDBRANCH   8  11
ENDBRANCH   1   6
BRANCH   1  19
HETATM   19  N   UNL     1      41.732 -13.695   6.569  1.00  0.00    -0.142 NA
HETATM   20  C   UNL     1      41.650 -14.832   5.791  1.00  0.00     0.317 C 
HETATM   21  N   UNL     1      42.846 -15.262   5.278  1.00  0.00    -0.312 N 
HETATM   22  O   UNL     1      40.559 -15.378   5.662  1.00  0.00    -0.252 OA
HETATM   23  H   UNL     1      43.661 -14.844   5.723  1.00  0.00     0.170 HD
HETATM   24  H   UNL     1      40.811 -13.384   6.873  1.00  0.00     0.158 HD
BRANCH  21  25
HETATM   25  C   UNL     1      43.080 -16.374   4.448  1.00  0.00     0.036 A 
HETATM   26  C   UNL     1      42.656 -16.455   3.120  1.00  0.00     0.031 A 
HETATM   27  C   UNL     1      42.917 -17.602   2.361  1.00  0.00     0.026 A 
HETATM   28  C   UNL     1      43.609 -18.668   2.930  1.00  0.00     0.034 A 
HETATM   29 CL   UNL     1      43.923 -20.080   1.998  1.00  0.00    -0.084 Cl
HETATM   30  C   UNL     1      44.047 -18.595   4.248  1.00  0.00     0.026 A 
HETATM   31  C   UNL     1      43.786 -17.449   5.003  1.00  0.00     0.031 A 
ENDBRANCH  21  25
ENDBRANCH   1  19
BRANCH   3  32
HETATM   32  C   UNL     1      44.846 -10.694   8.378  1.00  0.00     0.086 C 
HETATM   33  C   UNL     1      45.441  -9.294   8.180  1.00  0.00     0.025 C 
HETATM   34  C   UNL     1      44.396  -8.181   8.286  1.00  0.00     0.002 C 
HETATM   35  C   UNL     1      43.584  -8.277   9.574  1.00  0.00     0.000 C 
HETATM   36  C   UNL     1      42.976  -9.663   9.767  1.00  0.00     0.002 C 
HETATM   37  C   UNL     1      44.041 -10.759   9.686  1.00  0.00     0.025 C 
ENDBRANCH   3  32
TORSDOF 6
ENDMDL
MODEL 7
REMARK VINA RESULT:      -8.1      3.756      7.187
REMARK  6 active torsions:
REMARK  status: ('A' for Active; 'I' for Inactive)
REMARK    1  A    between atoms: O_2  and  C_3 
REMARK    2  A    between atoms: C_6  and  C_7 
REMARK    3  A    between atoms: C_9  and  N_10 
REMARK    4  A    between atoms: N_10  and  N_11 
REMARK       I    between atoms: N_10  and  C_22 
REMARK       I    between atoms: N_11  and  C_12 
REMARK       I    between atoms: C_12  and  N_13 
REMARK    5  A    between atoms: N_13  and  C_14 
REMARK       I    between atoms: C_22  and  N_23 
REMARK    6  A    between atoms: N_23  and  C_24 
ROOT
HETATM    1  N   UNL     1      42.004 -11.532   6.283  1.00  0.00    -0.195 N 
HETATM    2  C   UNL     1      42.572 -12.815   6.273  1.00  0.00     0.340 C 
HETATM    3  N   UNL     1      42.018 -13.736   5.408  1.00  0.00    -0.337 N 
HETATM    4  O   UNL     1      43.568 -13.090   6.949  1.00  0.00    -0.245 OA
HETATM    5  H   UNL     1      41.353 -13.382   4.736  1.00  0.00     0.164 HD
ENDROOT
BRANCH   1   6
HETATM    6  C   UNL     1      40.866 -11.223   5.551  1.00  0.00     0.193 A 
HETATM    7  N   UNL     1      40.764 -11.377   4.251  1.00  0.00    -0.222 NA
HETATM    8  C   UNL     1      39.475 -11.073   3.845  1.00  0.00     0.076 A 
HETATM    9  C   UNL     1      38.659 -10.564   4.838  1.00  0.00     0.085 A 
HETATM   10  S   UNL     1      39.506 -10.543   6.334  1.00  0.00    -0.060 SA
BRANCH   8  11
HETATM   11  C   UNL     1      39.043 -11.361   2.485  1.00  0.00    -0.007 A 
HETATM   12  C   UNL     1      37.869 -10.759   2.009  1.00  0.00     0.016 A 
HETATM   13  C   UNL     1      37.421 -10.983   0.703  1.00  0.00     0.037 A 
HETATM   14  C   UNL     1      38.138 -11.825  -0.144  1.00  0.00     0.068 A 
HETATM   15  C   UNL     1      39.310 -12.426   0.324  1.00  0.00     0.037 A 
HETATM   16  C   UNL     1      39.763 -12.200   1.629  1.00  0.00     0.016 A 
BRANCH  14  17
HETATM   17  O   UNL     1      37.807 -12.134  -1.434  1.00  0.00    -0.356 OA
HETATM   18  C   UNL     1      38.774 -12.858  -2.185  1.00  0.00     0.210 C 
ENDBRANCH  14  17
ENDBRANCH   8  11
ENDBRANCH   1   6
BRANCH   1  19
HETATM   19  N   UNL     1      42.947 -10.450   6.365  1.00  0.00    -0.142 NA
HETATM   20  C   UNL     1      42.945  -9.612   7.461  1.00  0.00     0.317 C 
HETATM   21  N   UNL     1      42.786 -10.246   8.666  1.00  0.00    -0.312 N 
HETATM   22  O   UNL     1      43.127  -8.411   7.284  1.00  0.00    -0.252 OA
HETATM   23  H   UNL     1      42.931 -11.252   8.626  1.00  0.00     0.170 HD
HETATM   24  H   UNL     1      43.006  -9.924   5.494  1.00  0.00     0.158 HD
BRANCH  21  25
HETATM   25  C   UNL     1      42.733  -9.666   9.947  1.00  0.00     0.036 A 
HETATM   26  C   UNL     1      41.543  -9.334  10.600  1.00  0.00     0.031 A 
HETATM   27  C   UNL     1      41.573  -8.749  11.871  1.00  0.00     0.026 A 
HETATM   28  C   UNL     1      42.793  -8.498  12.492  1.00  0.00     0.034 A 
HETATM   29 CL   UNL     1      42.828  -7.771  14.052  1.00  0.00    -0.084 Cl
HETATM   30  C   UNL     1      43.985  -8.835  11.857  1.00  0.00     0.026 A 
HETATM   31  C   UNL     1      43.953  -9.421  10.589  1.00  0.00     0.031 A 
ENDBRANCH  21  25
ENDBRANCH   1  19
BRANCH   3  32
HETATM   32  C   UNL     1      42.749 -14.926   4.988  1.00  0.00     0.086 C 
HETATM   33  C   UNL     1      41.931 -16.191   5.283  1.00  0.00     0.025 C 
HETATM   34  C   UNL     1      40.701 -16.330   4.384  1.00  0.00     0.002 C 
HETATM   35  C   UNL     1      41.054 -16.214   2.904  1.00  0.00     0.000 C 
HETATM   36  C   UNL     1      41.853 -14.950   2.602  1.00  0.00     0.002 C 
HETATM   37  C   UNL     1      43.094 -14.844   3.491  1.00  0.00     0.025 C 
ENDBRANCH   3  32
TORSDOF 6
ENDMDL
MODEL 8
REMARK VINA RESULT:      -8.1     17.109     19.006
REMARK  6 active torsions:
REMARK  status: ('A' for Active; 'I' for Inactive)
REMARK    1  A    between atoms: O_2  and  C_3 
REMARK    2  A    between atoms: C_6  and  C_7 
REMARK    3  A    between atoms: C_9  and  N_10 
REMARK    4  A    between atoms: N_10  and  N_11 
REMARK       I    between atoms: N_10  and  C_22 
REMARK       I    between atoms: N_11  and  C_12 
REMARK       I    between atoms: C_12  and  N_13 
REMARK    5  A    between atoms: N_13  and  C_14 
REMARK       I    between atoms: C_22  and  N_23 
REMARK    6  A    between atoms: N_23  and  C_24 
ROOT
HETATM    1  N   UNL     1      44.685 -30.151   1.262  1.00  0.00    -0.195 N 
HETATM    2  C   UNL     1      45.977 -29.681   1.545  1.00  0.00     0.340 C 
HETATM    3  N   UNL     1      46.970 -30.003   0.643  1.00  0.00    -0.337 N 
HETATM    4  O   UNL     1      46.205 -28.950   2.514  1.00  0.00    -0.245 OA
HETATM    5  H   UNL     1      46.673 -30.415  -0.229  1.00  0.00     0.164 HD
ENDROOT
BRANCH   1   6
HETATM    6  C   UNL     1      44.427 -30.999   0.195  1.00  0.00     0.193 A 
HETATM    7  N   UNL     1      44.271 -30.594  -1.044  1.00  0.00    -0.222 NA
HETATM    8  C   UNL     1      44.125 -31.691  -1.879  1.00  0.00     0.076 A 
HETATM    9  C   UNL     1      44.042 -32.908  -1.228  1.00  0.00     0.085 A 
HETATM   10  S   UNL     1      44.232 -32.677   0.465  1.00  0.00    -0.060 SA
BRANCH   8  11
HETATM   11  C   UNL     1      44.144 -31.524  -3.325  1.00  0.00    -0.007 A 
HETATM   12  C   UNL     1      44.133 -30.224  -3.853  1.00  0.00     0.016 A 
HETATM   13  C   UNL     1      44.173 -30.006  -5.234  1.00  0.00     0.037 A 
HETATM   14  C   UNL     1      44.214 -31.089  -6.110  1.00  0.00     0.068 A 
HETATM   15  C   UNL     1      44.228 -32.386  -5.589  1.00  0.00     0.037 A 
HETATM   16  C   UNL     1      44.192 -32.608  -4.207  1.00  0.00     0.016 A 
BRANCH  14  17
HETATM   17  O   UNL     1      44.248 -31.014  -7.474  1.00  0.00    -0.356 OA
HETATM   18  C   UNL     1      43.685 -32.110  -8.186  1.00  0.00     0.210 C 
ENDBRANCH  14  17
ENDBRANCH   8  11
ENDBRANCH   1   6
BRANCH   1  19
HETATM   19  N   UNL     1      43.626 -29.216   1.524  1.00  0.00    -0.142 NA
HETATM   20  C   UNL     1      42.392 -29.669   1.942  1.00  0.00     0.317 C 
HETATM   21  N   UNL     1      42.434 -30.670   2.876  1.00  0.00    -0.312 N 
HETATM   22  O   UNL     1      41.385 -29.127   1.495  1.00  0.00    -0.252 OA
HETATM   23  H   UNL     1      43.344 -30.784   3.318  1.00  0.00     0.170 HD
HETATM   24  H   UNL     1      43.538 -28.518   0.788  1.00  0.00     0.158 HD
BRANCH  21  25
HETATM   25  C   UNL     1      41.351 -31.337   3.480  1.00  0.00     0.036 A 
HETATM   26  C   UNL     1      40.475 -32.178   2.789  1.00  0.00     0.031 A 
HETATM   27  C   UNL     1      39.414 -32.797   3.458  1.00  0.00     0.026 A 
HETATM   28  C   UNL     1      39.229 -32.578   4.820  1.00  0.00     0.034 A 
HETATM   29 CL   UNL     1      37.917 -33.334   5.639  1.00  0.00    -0.084 Cl
HETATM   30  C   UNL     1      40.101 -31.752   5.522  1.00  0.00     0.026 A 
HETATM   31  C   UNL     1      41.161 -31.136   4.853  1.00  0.00     0.031 A 
ENDBRANCH  21  25
ENDBRANCH   1  19
BRANCH   3  32
HETATM   32  C   UNL     1      48.217 -29.250   0.577  1.00  0.00     0.086 C 
HETATM   33  C   UNL     1      49.420 -30.202   0.547  1.00  0.00     0.025 C 
HETATM   34  C   UNL     1      49.534 -30.979  -0.767  1.00  0.00     0.002 C 
HETATM   35  C   UNL     1      49.509 -30.057  -1.983  1.00  0.00     0.000 C 
HETATM   36  C   UNL     1      48.305 -29.119  -1.966  1.00  0.00     0.002 C 
HETATM   37  C   UNL     1      48.225 -28.331  -0.657  1.00  0.00     0.025 C 
ENDBRANCH   3  32
TORSDOF 6
ENDMDL
MODEL 9
REMARK VINA RESULT:      -8.0      2.574      5.510
REMARK  6 active torsions:
REMARK  status: ('A' for Active; 'I' for Inactive)
REMARK    1  A    between atoms: O_2  and  C_3 
REMARK    2  A    between atoms: C_6  and  C_7 
REMARK    3  A    between atoms: C_9  and  N_10 
REMARK    4  A    between atoms: N_10  and  N_11 
REMARK       I    between atoms: N_10  and  C_22 
REMARK       I    between atoms: N_11  and  C_12 
REMARK       I    between atoms: C_12  and  N_13 
REMARK    5  A    between atoms: N_13  and  C_14 
REMARK       I    between atoms: C_22  and  N_23 
REMARK    6  A    between atoms: N_23  and  C_24 
ROOT
HETATM    1  N   UNL     1      41.495 -10.679   5.548  1.00  0.00    -0.195 N 
HETATM    2  C   UNL     1      40.917  -9.845   6.518  1.00  0.00     0.340 C 
HETATM    3  N   UNL     1      41.349 -10.007   7.817  1.00  0.00    -0.337 N 
HETATM    4  O   UNL     1      40.115  -8.956   6.215  1.00  0.00    -0.245 OA
HETATM    5  H   UNL     1      42.155 -10.598   7.956  1.00  0.00     0.164 HD
ENDROOT
BRANCH   1   6
HETATM    6  C   UNL     1      42.372 -11.701   5.883  1.00  0.00     0.193 A 
HETATM    7  N   UNL     1      42.193 -12.960   5.556  1.00  0.00    -0.222 NA
HETATM    8  C   UNL     1      43.291 -13.706   5.952  1.00  0.00     0.076 A 
HETATM    9  C   UNL     1      44.227 -13.011   6.695  1.00  0.00     0.085 A 
HETATM   10  S   UNL     1      43.756 -11.363   6.830  1.00  0.00    -0.060 SA
BRANCH   8  11
HETATM   11  C   UNL     1      43.435 -15.090   5.524  1.00  0.00    -0.007 A 
HETATM   12  C   UNL     1      42.806 -15.497   4.338  1.00  0.00     0.016 A 
HETATM   13  C   UNL     1      42.931 -16.809   3.869  1.00  0.00     0.037 A 
HETATM   14  C   UNL     1      43.679 -17.738   4.589  1.00  0.00     0.068 A 
HETATM   15  C   UNL     1      44.310 -17.337   5.770  1.00  0.00     0.037 A 
HETATM   16  C   UNL     1      44.190 -16.024   6.240  1.00  0.00     0.016 A 
BRANCH  14  17
HETATM   17  O   UNL     1      43.873 -19.047   4.246  1.00  0.00    -0.356 OA
HETATM   18  C   UNL     1      43.856 -19.351   2.856  1.00  0.00     0.210 C 
ENDBRANCH  14  17
ENDBRANCH   8  11
ENDBRANCH   1   6
BRANCH   1  19
HETATM   19  N   UNL     1      41.809 -10.037   4.301  1.00  0.00    -0.142 NA
HETATM   20  C   UNL     1      41.747 -10.749   3.121  1.00  0.00     0.317 C 
HETATM   21  N   UNL     1      40.665 -11.583   3.011  1.00  0.00    -0.312 N 
HETATM   22  O   UNL     1      42.611 -10.554   2.271  1.00  0.00    -0.252 OA
HETATM   23  H   UNL     1      39.928 -11.395   3.688  1.00  0.00     0.170 HD
HETATM   24  H   UNL     1      42.661  -9.481   4.358  1.00  0.00     0.158 HD
BRANCH  21  25
HETATM   25  C   UNL     1      40.337 -12.437   1.941  1.00  0.00     0.036 A 
HETATM   26  C   UNL     1      40.679 -13.790   1.895  1.00  0.00     0.031 A 
HETATM   27  C   UNL     1      40.327 -14.573   0.790  1.00  0.00     0.026 A 
HETATM   28  C   UNL     1      39.628 -14.003  -0.270  1.00  0.00     0.034 A 
HETATM   29 CL   UNL     1      39.202 -14.964  -1.632  1.00  0.00    -0.084 Cl
HETATM   30  C   UNL     1      39.271 -12.658  -0.231  1.00  0.00     0.026 A 
HETATM   31  C   UNL     1      39.622 -11.879   0.874  1.00  0.00     0.031 A 
ENDBRANCH  21  25
ENDBRANCH   1  19
BRANCH   3  32
HETATM   32  C   UNL     1      41.169  -8.962   8.819  1.00  0.00     0.086 C 
HETATM   33  C   UNL     1      41.425  -9.516  10.227  1.00  0.00     0.025 C 
HETATM   34  C   UNL     1      42.899  -9.844  10.480  1.00  0.00     0.002 C 
HETATM   35  C   UNL     1      43.813  -8.666  10.157  1.00  0.00     0.000 C 
HETATM   36  C   UNL     1      43.573  -8.122   8.752  1.00  0.00     0.002 C 
HETATM   37  C   UNL     1      42.100  -7.773   8.528  1.00  0.00     0.025 C 
ENDBRANCH   3  32
TORSDOF 6
ENDMDL
MODEL 10
REMARK VINA RESULT:      -7.9      2.948      5.550
REMARK  6 active torsions:
REMARK  status: ('A' for Active; 'I' for Inactive)
REMARK    1  A    between atoms: O_2  and  C_3 
REMARK    2  A    between atoms: C_6  and  C_7 
REMARK    3  A    between atoms: C_9  and  N_10 
REMARK    4  A    between atoms: N_10  and  N_11 
REMARK       I    between atoms: N_10  and  C_22 
REMARK       I    between atoms: N_11  and  C_12 
REMARK       I    between atoms: C_12  and  N_13 
REMARK    5  A    between atoms: N_13  and  C_14 
REMARK       I    between atoms: C_22  and  N_23 
REMARK    6  A    between atoms: N_23  and  C_24 
ROOT
HETATM    1  N   UNL     1      42.617 -12.498   6.446  1.00  0.00    -0.195 N 
HETATM    2  C   UNL     1      43.713 -12.200   7.271  1.00  0.00     0.340 C 
HETATM    3  N   UNL     1      43.966 -10.867   7.516  1.00  0.00    -0.337 N 
HETATM    4  O   UNL     1      44.377 -13.089   7.816  1.00  0.00    -0.245 OA
HETATM    5  H   UNL     1      43.261 -10.210   7.217  1.00  0.00     0.164 HD
ENDROOT
BRANCH   1   6
HETATM    6  C   UNL     1      41.887 -11.507   5.805  1.00  0.00     0.193 A 
HETATM    7  N   UNL     1      41.158 -10.611   6.429  1.00  0.00    -0.222 NA
HETATM    8  C   UNL     1      40.640  -9.711   5.512  1.00  0.00     0.076 A 
HETATM    9  C   UNL     1      40.883 -10.026   4.188  1.00  0.00     0.085 A 
HETATM   10  S   UNL     1      41.854 -11.442   4.096  1.00  0.00    -0.060 SA
BRANCH   8  11
HETATM   11  C   UNL     1      39.968  -8.501   5.966  1.00  0.00    -0.007 A 
HETATM   12  C   UNL     1      40.415  -7.884   7.144  1.00  0.00     0.016 A 
HETATM   13  C   UNL     1      39.821  -6.708   7.613  1.00  0.00     0.037 A 
HETATM   14  C   UNL     1      38.760  -6.137   6.913  1.00  0.00     0.068 A 
HETATM   15  C   UNL     1      38.312  -6.747   5.738  1.00  0.00     0.037 A 
HETATM   16  C   UNL     1      38.907  -7.922   5.265  1.00  0.00     0.016 A 
BRANCH  14  17
HETATM   17  O   UNL     1      38.089  -5.000   7.266  1.00  0.00    -0.356 OA
HETATM   18  C   UNL     1      38.025  -4.703   8.657  1.00  0.00     0.210 C 
ENDBRANCH  14  17
ENDBRANCH   8  11
ENDBRANCH   1   6
BRANCH   1  19
HETATM   19  N   UNL     1      41.821 -13.616   6.871  1.00  0.00    -0.142 NA
HETATM   20  C   UNL     1      41.721 -14.737   6.074  1.00  0.00     0.317 C 
HETATM   21  N   UNL     1      42.897 -15.136   5.495  1.00  0.00    -0.312 N 
HETATM   22  O   UNL     1      40.633 -15.299   5.984  1.00  0.00    -0.252 OA
HETATM   23  H   UNL     1      43.725 -14.714   5.910  1.00  0.00     0.170 HD
HETATM   24  H   UNL     1      40.910 -13.327   7.226  1.00  0.00     0.158 HD
BRANCH  21  25
HETATM   25  C   UNL     1      43.109 -16.226   4.630  1.00  0.00     0.036 A 
HETATM   26  C   UNL     1      42.653 -16.270   3.310  1.00  0.00     0.031 A 
HETATM   27  C   UNL     1      42.894 -17.396   2.515  1.00  0.00     0.026 A 
HETATM   28  C   UNL     1      43.596 -18.479   3.039  1.00  0.00     0.034 A 
HETATM   29 CL   UNL     1      43.885 -19.866   2.062  1.00  0.00    -0.084 Cl
HETATM   30  C   UNL     1      44.066 -18.442   4.348  1.00  0.00     0.026 A 
HETATM   31  C   UNL     1      43.825 -17.316   5.140  1.00  0.00     0.031 A 
ENDBRANCH  21  25
ENDBRANCH   1  19
BRANCH   3  32
HETATM   32  C   UNL     1      44.768 -10.437   8.656  1.00  0.00     0.086 C 
HETATM   33  C   UNL     1      45.184  -8.969   8.498  1.00  0.00     0.025 C 
HETATM   34  C   UNL     1      44.011  -7.997   8.645  1.00  0.00     0.002 C 
HETATM   35  C   UNL     1      43.229  -8.231   9.935  1.00  0.00     0.000 C 
HETATM   36  C   UNL     1      42.799  -9.687  10.088  1.00  0.00     0.002 C 
HETATM   37  C   UNL     1      43.989 -10.640   9.967  1.00  0.00     0.025 C 
ENDBRANCH   3  32
TORSDOF 6
ENDMDL
