MODEL 1
REMARK VINA RESULT:      -8.7      0.000      0.000
REMARK  3 active torsions:
REMARK  status: ('A' for Active; 'I' for Inactive)
REMARK    1  A    between atoms: C_6  and  C_7 
REMARK       I    between atoms: C_7  and  N_8 
REMARK    2  A    between atoms: N_8  and  C_9 
REMARK    3  A    between atoms: N_12  and  C_13 
ROOT
HETATM    1  C   UNL     1      42.440 -12.780   4.878  1.00  0.00     0.177 C 
HETATM    2  C   UNL     1      43.474 -12.414   5.964  1.00  0.00     0.248 C 
HETATM    3  O   UNL     1      44.319 -13.249   6.292  1.00  0.00    -0.271 OA
HETATM    4  N   UNL     1      43.296 -11.115   6.484  1.00  0.00    -0.299 N 
HETATM    5  C   UNL     1      42.286 -10.267   5.854  1.00  0.00     0.134 C 
HETATM    6  C   UNL     1      42.417 -10.297   4.336  1.00  0.00     0.023 C 
HETATM    7  C   UNL     1      42.405 -11.719   3.781  1.00  0.00     0.036 C 
ENDROOT
BRANCH   1   8
HETATM    8  N   UNL     1      42.750 -14.091   4.330  1.00  0.00    -0.344 N 
HETATM    9  C   UNL     1      42.029 -15.212   4.654  1.00  0.00     0.253 C 
HETATM   10  O   UNL     1      41.022 -15.202   5.350  1.00  0.00    -0.268 OA
HETATM   11  H   UNL     1      43.612 -14.169   3.796  1.00  0.00     0.163 HD
BRANCH   9  12
HETATM   12  C   UNL     1      42.540 -16.476   4.061  1.00  0.00     0.043 A 
HETATM   13  C   UNL     1      43.521 -17.237   4.733  1.00  0.00    -0.045 A 
HETATM   14  C   UNL     1      44.010 -18.401   4.117  1.00  0.00     0.014 A 
HETATM   15  C   UNL     1      44.080 -16.842   6.072  1.00  0.00     0.049 C 
HETATM   16  C   UNL     1      43.514 -18.830   2.882  1.00  0.00    -0.061 A 
HETATM   17  C   UNL     1      44.025 -20.087   2.239  1.00  0.00     0.048 C 
HETATM   18  C   UNL     1      42.516 -18.082   2.248  1.00  0.00     0.014 A 
HETATM   19  C   UNL     1      42.024 -16.898   2.819  1.00  0.00    -0.045 A 
HETATM   20  C   UNL     1      40.948 -16.129   2.102  1.00  0.00     0.049 C 
ENDBRANCH   9  12
ENDBRANCH   1   8
BRANCH   4  21
HETATM   21  C   UNL     1      44.008 -10.698   7.622  1.00  0.00     0.154 A 
HETATM   22  N   UNL     1      43.451 -10.471   8.815  1.00  0.00    -0.155 NA
HETATM   23  N   UNL     1      44.447 -10.066   9.609  1.00  0.00    -0.283 N 
HETATM   24  C   UNL     1      44.172  -9.725  10.982  1.00  0.00     0.179 C 
HETATM   25  C   UNL     1      45.653 -10.029   8.984  1.00  0.00     0.115 A 
HETATM   26  C   UNL     1      45.406 -10.429   7.693  1.00  0.00     0.071 A 
ENDBRANCH   4  21
TORSDOF 3
ENDMDL
MODEL 2
REMARK VINA RESULT:      -8.7      0.106      1.745
REMARK  3 active torsions:
REMARK  status: ('A' for Active; 'I' for Inactive)
REMARK    1  A    between atoms: C_6  and  C_7 
REMARK       I    between atoms: C_7  and  N_8 
REMARK    2  A    between atoms: N_8  and  C_9 
REMARK    3  A    between atoms: N_12  and  C_13 
ROOT
HETATM    1  C   UNL     1      42.442 -12.829   4.851  1.00  0.00     0.177 C 
HETATM    2  C   UNL     1      43.474 -12.489   5.948  1.00  0.00     0.248 C 
HETATM    3  O   UNL     1      44.316 -13.334   6.261  1.00  0.00    -0.271 OA
HETATM    4  N   UNL     1      43.299 -11.201   6.494  1.00  0.00    -0.299 N 
HETATM    5  C   UNL     1      42.293 -10.337   5.880  1.00  0.00     0.134 C 
HETATM    6  C   UNL     1      42.428 -10.335   4.361  1.00  0.00     0.023 C 
HETATM    7  C   UNL     1      42.413 -11.745   3.776  1.00  0.00     0.036 C 
ENDROOT
BRANCH   1   8
HETATM    8  N   UNL     1      42.750 -14.129   4.276  1.00  0.00    -0.344 N 
HETATM    9  C   UNL     1      42.079 -15.270   4.638  1.00  0.00     0.253 C 
HETATM   10  O   UNL     1      41.118 -15.289   5.396  1.00  0.00    -0.268 OA
HETATM   11  H   UNL     1      43.578 -14.183   3.690  1.00  0.00     0.163 HD
BRANCH   9  12
HETATM   12  C   UNL     1      42.583 -16.518   4.006  1.00  0.00     0.043 A 
HETATM   13  C   UNL     1      42.070 -16.948   2.763  1.00  0.00    -0.045 A 
HETATM   14  C   UNL     1      42.540 -18.156   2.221  1.00  0.00     0.014 A 
HETATM   15  C   UNL     1      41.027 -16.176   2.003  1.00  0.00     0.049 C 
HETATM   16  C   UNL     1      43.524 -18.908   2.873  1.00  0.00    -0.061 A 
HETATM   17  C   UNL     1      44.037 -20.187   2.278  1.00  0.00     0.048 C 
HETATM   18  C   UNL     1      44.045 -18.447   4.087  1.00  0.00     0.014 A 
HETATM   19  C   UNL     1      43.580 -17.259   4.672  1.00  0.00    -0.045 A 
HETATM   20  C   UNL     1      44.173 -16.803   5.977  1.00  0.00     0.049 C 
ENDBRANCH   9  12
ENDBRANCH   1   8
BRANCH   4  21
HETATM   21  C   UNL     1      44.008 -10.811   7.643  1.00  0.00     0.154 A 
HETATM   22  N   UNL     1      43.436 -10.500   8.809  1.00  0.00    -0.155 NA
HETATM   23  N   UNL     1      44.439 -10.156   9.624  1.00  0.00    -0.283 N 
HETATM   24  C   UNL     1      44.152  -9.750  10.977  1.00  0.00     0.179 C 
HETATM   25  C   UNL     1      45.662 -10.240   9.039  1.00  0.00     0.115 A 
HETATM   26  C   UNL     1      45.421 -10.658   7.752  1.00  0.00     0.071 A 
ENDBRANCH   4  21
TORSDOF 3
ENDMDL
MODEL 3
REMARK VINA RESULT:      -8.0      1.446      1.945
REMARK  3 active torsions:
REMARK  status: ('A' for Active; 'I' for Inactive)
REMARK    1  A    between atoms: C_6  and  C_7 
REMARK       I    between atoms: C_7  and  N_8 
REMARK    2  A    between atoms: N_8  and  C_9 
REMARK    3  A    between atoms: N_12  and  C_13 
ROOT
HETATM    1  C   UNL     1      42.429 -13.064   4.352  1.00  0.00     0.177 C 
HETATM    2  C   UNL     1      42.724 -12.313   5.670  1.00  0.00     0.248 C 
HETATM    3  O   UNL     1      43.199 -12.937   6.621  1.00  0.00    -0.271 OA
HETATM    4  N   UNL     1      42.373 -10.949   5.620  1.00  0.00    -0.299 N 
HETATM    5  C   UNL     1      41.925 -10.411   4.337  1.00  0.00     0.134 C 
HETATM    6  C   UNL     1      42.861 -10.835   3.211  1.00  0.00     0.023 C 
HETATM    7  C   UNL     1      43.065 -12.347   3.164  1.00  0.00     0.036 C 
ENDROOT
BRANCH   1   8
HETATM    8  N   UNL     1      42.906 -14.434   4.455  1.00  0.00    -0.344 N 
HETATM    9  C   UNL     1      42.074 -15.515   4.301  1.00  0.00     0.253 C 
HETATM   10  O   UNL     1      40.895 -15.432   3.981  1.00  0.00    -0.268 OA
HETATM   11  H   UNL     1      43.860 -14.561   4.779  1.00  0.00     0.163 HD
BRANCH   9  12
HETATM   12  C   UNL     1      42.720 -16.836   4.517  1.00  0.00     0.043 A 
HETATM   13  C   UNL     1      42.875 -17.352   5.822  1.00  0.00    -0.045 A 
HETATM   14  C   UNL     1      43.531 -18.583   5.987  1.00  0.00     0.014 A 
HETATM   15  C   UNL     1      42.385 -16.628   7.046  1.00  0.00     0.049 C 
HETATM   16  C   UNL     1      43.992 -19.311   4.885  1.00  0.00    -0.061 A 
HETATM   17  C   UNL     1      44.673 -20.637   5.066  1.00  0.00     0.048 C 
HETATM   18  C   UNL     1      43.797 -18.801   3.597  1.00  0.00     0.014 A 
HETATM   19  C   UNL     1      43.171 -17.561   3.396  1.00  0.00    -0.045 A 
HETATM   20  C   UNL     1      42.981 -17.055   1.992  1.00  0.00     0.049 C 
ENDBRANCH   9  12
ENDBRANCH   1   8
BRANCH   4  21
HETATM   21  C   UNL     1      42.372 -10.169   6.790  1.00  0.00     0.154 A 
HETATM   22  N   UNL     1      43.476  -9.796   7.444  1.00  0.00    -0.155 NA
HETATM   23  N   UNL     1      43.050  -9.103   8.506  1.00  0.00    -0.283 N 
HETATM   24  C   UNL     1      44.010  -8.561   9.435  1.00  0.00     0.179 C 
HETATM   25  C   UNL     1      41.698  -8.994   8.572  1.00  0.00     0.115 A 
HETATM   26  C   UNL     1      41.224  -9.677   7.477  1.00  0.00     0.071 A 
ENDBRANCH   4  21
TORSDOF 3
ENDMDL
MODEL 4
REMARK VINA RESULT:      -7.9      3.829      5.991
REMARK  3 active torsions:
REMARK  status: ('A' for Active; 'I' for Inactive)
REMARK    1  A    between atoms: C_6  and  C_7 
REMARK       I    between atoms: C_7  and  N_8 
REMARK    2  A    between atoms: N_8  and  C_9 
REMARK    3  A    between atoms: N_12  and  C_13 
ROOT
HETATM    1  C   UNL     1      40.808 -13.483   4.459  1.00  0.00     0.177 C 
HETATM    2  C   UNL     1      40.015 -13.395   3.136  1.00  0.00     0.248 C 
HETATM    3  O   UNL     1      40.019 -14.360   2.369  1.00  0.00    -0.271 OA
HETATM    4  N   UNL     1      39.374 -12.152   2.957  1.00  0.00    -0.299 N 
HETATM    5  C   UNL     1      39.425 -11.198   4.063  1.00  0.00     0.134 C 
HETATM    6  C   UNL     1      39.073 -11.873   5.384  1.00  0.00     0.023 C 
HETATM    7  C   UNL     1      39.926 -13.111   5.648  1.00  0.00     0.036 C 
ENDROOT
BRANCH   1   8
HETATM    8  N   UNL     1      41.356 -14.822   4.611  1.00  0.00    -0.344 N 
HETATM    9  C   UNL     1      42.705 -15.060   4.679  1.00  0.00     0.253 C 
HETATM   10  O   UNL     1      43.556 -14.180   4.709  1.00  0.00    -0.268 OA
HETATM   11  H   UNL     1      40.700 -15.594   4.529  1.00  0.00     0.163 HD
BRANCH   9  12
HETATM   12  C   UNL     1      43.083 -16.496   4.755  1.00  0.00     0.043 A 
HETATM   13  C   UNL     1      43.180 -17.145   6.004  1.00  0.00    -0.045 A 
HETATM   14  C   UNL     1      43.585 -18.491   6.035  1.00  0.00     0.014 A 
HETATM   15  C   UNL     1      42.890 -16.451   7.306  1.00  0.00     0.049 C 
HETATM   16  C   UNL     1      43.850 -19.195   4.856  1.00  0.00    -0.061 A 
HETATM   17  C   UNL     1      44.260 -20.639   4.894  1.00  0.00     0.048 C 
HETATM   18  C   UNL     1      43.713 -18.544   3.625  1.00  0.00     0.014 A 
HETATM   19  C   UNL     1      43.339 -17.193   3.556  1.00  0.00    -0.045 A 
HETATM   20  C   UNL     1      43.202 -16.537   2.209  1.00  0.00     0.049 C 
ENDBRANCH   9  12
ENDBRANCH   1   8
BRANCH   4  21
HETATM   21  C   UNL     1      38.790 -11.822   1.722  1.00  0.00     0.154 A 
HETATM   22  N   UNL     1      39.457 -11.769   0.566  1.00  0.00    -0.155 NA
HETATM   23  N   UNL     1      38.562 -11.393  -0.353  1.00  0.00    -0.283 N 
HETATM   24  C   UNL     1      38.972 -11.230  -1.725  1.00  0.00     0.179 C 
HETATM   25  C   UNL     1      37.315 -11.206   0.154  1.00  0.00     0.115 A 
HETATM   26  C   UNL     1      37.427 -11.472   1.498  1.00  0.00     0.071 A 
ENDBRANCH   4  21
TORSDOF 3
ENDMDL
MODEL 5
REMARK VINA RESULT:      -7.6      4.061      6.884
REMARK  3 active torsions:
REMARK  status: ('A' for Active; 'I' for Inactive)
REMARK    1  A    between atoms: C_6  and  C_7 
REMARK       I    between atoms: C_7  and  N_8 
REMARK    2  A    between atoms: N_8  and  C_9 
REMARK    3  A    between atoms: N_12  and  C_13 
ROOT
HETATM    1  C   UNL     1      40.741 -13.388   2.851  1.00  0.00     0.177 C 
HETATM    2  C   UNL     1      40.471 -13.445   1.331  1.00  0.00     0.248 C 
HETATM    3  O   UNL     1      40.824 -14.442   0.697  1.00  0.00    -0.271 OA
HETATM    4  N   UNL     1      39.846 -12.282   0.836  1.00  0.00    -0.299 N 
HETATM    5  C   UNL     1      39.425 -11.274   1.807  1.00  0.00     0.134 C 
HETATM    6  C   UNL     1      38.673 -11.915   2.968  1.00  0.00     0.023 C 
HETATM    7  C   UNL     1      39.465 -13.047   3.617  1.00  0.00     0.036 C 
ENDROOT
BRANCH   1   8
HETATM    8  N   UNL     1      41.296 -14.657   3.296  1.00  0.00    -0.344 N 
HETATM    9  C   UNL     1      42.560 -14.762   3.822  1.00  0.00     0.253 C 
HETATM   10  O   UNL     1      43.290 -13.805   4.046  1.00  0.00    -0.268 OA
HETATM   11  H   UNL     1      40.759 -15.491   3.076  1.00  0.00     0.163 HD
BRANCH   9  12
HETATM   12  C   UNL     1      42.987 -16.147   4.148  1.00  0.00     0.043 A 
HETATM   13  C   UNL     1      43.372 -17.037   3.123  1.00  0.00    -0.045 A 
HETATM   14  C   UNL     1      43.726 -18.353   3.468  1.00  0.00     0.014 A 
HETATM   15  C   UNL     1      43.399 -16.644   1.672  1.00  0.00     0.049 C 
HETATM   16  C   UNL     1      43.738 -18.772   4.803  1.00  0.00    -0.061 A 
HETATM   17  C   UNL     1      44.139 -20.172   5.169  1.00  0.00     0.048 C 
HETATM   18  C   UNL     1      43.389 -17.864   5.809  1.00  0.00     0.014 A 
HETATM   19  C   UNL     1      43.002 -16.551   5.499  1.00  0.00    -0.045 A 
HETATM   20  C   UNL     1      42.638 -15.611   6.615  1.00  0.00     0.049 C 
ENDBRANCH   9  12
ENDBRANCH   1   8
BRANCH   4  21
HETATM   21  C   UNL     1      39.722 -12.074  -0.549  1.00  0.00     0.154 A 
HETATM   22  N   UNL     1      40.562 -11.331  -1.275  1.00  0.00    -0.155 NA
HETATM   23  N   UNL     1      40.084 -11.360  -2.524  1.00  0.00    -0.283 N 
HETATM   24  C   UNL     1      40.767 -10.635  -3.566  1.00  0.00     0.179 C 
HETATM   25  C   UNL     1      38.958 -12.109  -2.653  1.00  0.00     0.115 A 
HETATM   26  C   UNL     1      38.692 -12.585  -1.391  1.00  0.00     0.071 A 
ENDBRANCH   4  21
TORSDOF 3
ENDMDL
MODEL 6
REMARK VINA RESULT:      -7.6      2.020      7.949
REMARK  3 active torsions:
REMARK  status: ('A' for Active; 'I' for Inactive)
REMARK    1  A    between atoms: C_6  and  C_7 
REMARK       I    between atoms: C_7  and  N_8 
REMARK    2  A    between atoms: N_8  and  C_9 
REMARK    3  A    between atoms: N_12  and  C_13 
ROOT
HETATM    1  C   UNL     1      42.503 -13.522   4.292  1.00  0.00     0.177 C 
HETATM    2  C   UNL     1      42.947 -14.981   4.540  1.00  0.00     0.248 C 
HETATM    3  O   UNL     1      43.530 -15.259   5.590  1.00  0.00    -0.271 OA
HETATM    4  N   UNL     1      42.634 -15.844   3.469  1.00  0.00    -0.299 N 
HETATM    5  C   UNL     1      41.839 -15.299   2.371  1.00  0.00     0.134 C 
HETATM    6  C   UNL     1      40.633 -14.531   2.898  1.00  0.00     0.023 C 
HETATM    7  C   UNL     1      41.026 -13.460   3.913  1.00  0.00     0.036 C 
ENDROOT
BRANCH   1   8
HETATM    8  N   UNL     1      42.775 -12.722   5.476  1.00  0.00    -0.344 N 
HETATM    9  C   UNL     1      43.225 -11.427   5.400  1.00  0.00     0.253 C 
HETATM   10  O   UNL     1      43.352 -10.806   4.353  1.00  0.00    -0.268 OA
HETATM   11  H   UNL     1      42.746 -13.206   6.369  1.00  0.00     0.163 HD
BRANCH   9  12
HETATM   12  C   UNL     1      43.524 -10.792   6.711  1.00  0.00     0.043 A 
HETATM   13  C   UNL     1      44.832 -10.825   7.240  1.00  0.00    -0.045 A 
HETATM   14  C   UNL     1      45.063 -10.253   8.503  1.00  0.00     0.014 A 
HETATM   15  C   UNL     1      45.986 -11.464   6.518  1.00  0.00     0.049 C 
HETATM   16  C   UNL     1      44.033  -9.627   9.213  1.00  0.00    -0.061 A 
HETATM   17  C   UNL     1      44.291  -8.998  10.552  1.00  0.00     0.048 C 
HETATM   18  C   UNL     1      42.751  -9.573   8.656  1.00  0.00     0.014 A 
HETATM   19  C   UNL     1      42.477 -10.158   7.410  1.00  0.00    -0.045 A 
HETATM   20  C   UNL     1      41.083 -10.073   6.850  1.00  0.00     0.049 C 
ENDBRANCH   9  12
ENDBRANCH   1   8
BRANCH   4  21
HETATM   21  C   UNL     1      43.152 -17.150   3.432  1.00  0.00     0.154 A 
HETATM   22  N   UNL     1      42.931 -18.018   2.441  1.00  0.00    -0.155 NA
HETATM   23  N   UNL     1      43.562 -19.142   2.795  1.00  0.00    -0.283 N 
HETATM   24  C   UNL     1      43.509 -20.294   1.930  1.00  0.00     0.179 C 
HETATM   25  C   UNL     1      44.207 -19.045   3.987  1.00  0.00     0.115 A 
HETATM   26  C   UNL     1      43.960 -17.767   4.431  1.00  0.00     0.071 A 
ENDBRANCH   4  21
TORSDOF 3
ENDMDL
MODEL 7
REMARK VINA RESULT:      -7.5      1.979      7.921
REMARK  3 active torsions:
REMARK  status: ('A' for Active; 'I' for Inactive)
REMARK    1  A    between atoms: C_6  and  C_7 
REMARK       I    between atoms: C_7  and  N_8 
REMARK    2  A    between atoms: N_8  and  C_9 
REMARK    3  A    between atoms: N_12  and  C_13 
ROOT
HETATM    1  C   UNL     1      42.390 -13.424   4.330  1.00  0.00     0.177 C 
HETATM    2  C   UNL     1      42.837 -14.882   4.575  1.00  0.00     0.248 C 
HETATM    3  O   UNL     1      43.417 -15.162   5.626  1.00  0.00    -0.271 OA
HETATM    4  N   UNL     1      42.528 -15.744   3.502  1.00  0.00    -0.299 N 
HETATM    5  C   UNL     1      41.734 -15.198   2.403  1.00  0.00     0.134 C 
HETATM    6  C   UNL     1      40.525 -14.433   2.930  1.00  0.00     0.023 C 
HETATM    7  C   UNL     1      40.914 -13.364   3.948  1.00  0.00     0.036 C 
ENDROOT
BRANCH   1   8
HETATM    8  N   UNL     1      42.658 -12.626   5.516  1.00  0.00    -0.344 N 
HETATM    9  C   UNL     1      43.131 -11.340   5.445  1.00  0.00     0.253 C 
HETATM   10  O   UNL     1      43.284 -10.723   4.399  1.00  0.00    -0.268 OA
HETATM   11  H   UNL     1      42.608 -13.108   6.410  1.00  0.00     0.163 HD
BRANCH   9  12
HETATM   12  C   UNL     1      43.421 -10.707   6.759  1.00  0.00     0.043 A 
HETATM   13  C   UNL     1      42.396 -10.062   7.483  1.00  0.00    -0.045 A 
HETATM   14  C   UNL     1      42.720  -9.437   8.699  1.00  0.00     0.014 A 
HETATM   15  C   UNL     1      40.974  -9.997   6.998  1.00  0.00     0.049 C 
HETATM   16  C   UNL     1      44.021  -9.480   9.211  1.00  0.00    -0.061 A 
HETATM   17  C   UNL     1      44.357  -8.829  10.522  1.00  0.00     0.048 C 
HETATM   18  C   UNL     1      45.016 -10.156   8.496  1.00  0.00     0.014 A 
HETATM   19  C   UNL     1      44.735 -10.767   7.264  1.00  0.00    -0.045 A 
HETATM   20  C   UNL     1      45.837 -11.485   6.533  1.00  0.00     0.049 C 
ENDBRANCH   9  12
ENDBRANCH   1   8
BRANCH   4  21
HETATM   21  C   UNL     1      43.048 -17.049   3.463  1.00  0.00     0.154 A 
HETATM   22  N   UNL     1      43.354 -17.768   4.546  1.00  0.00    -0.155 NA
HETATM   23  N   UNL     1      43.842 -18.925   4.087  1.00  0.00    -0.283 N 
HETATM   24  C   UNL     1      44.282 -19.934   5.018  1.00  0.00     0.179 C 
HETATM   25  C   UNL     1      43.860 -19.002   2.730  1.00  0.00     0.115 A 
HETATM   26  C   UNL     1      43.355 -17.801   2.292  1.00  0.00     0.071 A 
ENDBRANCH   4  21
TORSDOF 3
ENDMDL
MODEL 8
REMARK VINA RESULT:      -7.4      1.683      2.538
REMARK  3 active torsions:
REMARK  status: ('A' for Active; 'I' for Inactive)
REMARK    1  A    between atoms: C_6  and  C_7 
REMARK       I    between atoms: C_7  and  N_8 
REMARK    2  A    between atoms: N_8  and  C_9 
REMARK    3  A    between atoms: N_12  and  C_13 
ROOT
HETATM    1  C   UNL     1      41.033 -11.800   5.639  1.00  0.00     0.177 C 
HETATM    2  C   UNL     1      42.113 -11.143   6.527  1.00  0.00     0.248 C 
HETATM    3  O   UNL     1      43.194 -11.718   6.679  1.00  0.00    -0.271 OA
HETATM    4  N   UNL     1      41.696  -9.922   7.095  1.00  0.00    -0.299 N 
HETATM    5  C   UNL     1      40.401  -9.388   6.677  1.00  0.00     0.134 C 
HETATM    6  C   UNL     1      40.259  -9.427   5.160  1.00  0.00     0.023 C 
HETATM    7  C   UNL     1      40.522 -10.818   4.588  1.00  0.00     0.036 C 
ENDROOT
BRANCH   1   8
HETATM    8  N   UNL     1      41.574 -12.999   5.018  1.00  0.00    -0.344 N 
HETATM    9  C   UNL     1      41.168 -14.259   5.377  1.00  0.00     0.253 C 
HETATM   10  O   UNL     1      40.266 -14.488   6.172  1.00  0.00    -0.268 OA
HETATM   11  H   UNL     1      42.368 -12.871   4.397  1.00  0.00     0.163 HD
BRANCH   9  12
HETATM   12  C   UNL     1      41.886 -15.366   4.692  1.00  0.00     0.043 A 
HETATM   13  C   UNL     1      41.388 -15.904   3.486  1.00  0.00    -0.045 A 
HETATM   14  C   UNL     1      42.071 -16.980   2.894  1.00  0.00     0.014 A 
HETATM   15  C   UNL     1      40.143 -15.388   2.818  1.00  0.00     0.049 C 
HETATM   16  C   UNL     1      43.246 -17.490   3.458  1.00  0.00    -0.061 A 
HETATM   17  C   UNL     1      43.984 -18.624   2.809  1.00  0.00     0.048 C 
HETATM   18  C   UNL     1      43.744 -16.919   4.634  1.00  0.00     0.014 A 
HETATM   19  C   UNL     1      43.072 -15.863   5.269  1.00  0.00    -0.045 A 
HETATM   20  C   UNL     1      43.649 -15.280   6.530  1.00  0.00     0.049 C 
ENDBRANCH   9  12
ENDBRANCH   1   8
BRANCH   4  21
HETATM   21  C   UNL     1      42.466  -9.300   8.093  1.00  0.00     0.154 A 
HETATM   22  N   UNL     1      42.546  -9.728   9.356  1.00  0.00    -0.155 NA
HETATM   23  N   UNL     1      43.343  -8.857   9.984  1.00  0.00    -0.283 N 
HETATM   24  C   UNL     1      43.627  -9.032  11.386  1.00  0.00     0.179 C 
HETATM   25  C   UNL     1      43.805  -7.868   9.174  1.00  0.00     0.115 A 
HETATM   26  C   UNL     1      43.253  -8.122   7.941  1.00  0.00     0.071 A 
ENDBRANCH   4  21
TORSDOF 3
ENDMDL
MODEL 9
REMARK VINA RESULT:      -7.4      3.432      5.396
REMARK  3 active torsions:
REMARK  status: ('A' for Active; 'I' for Inactive)
REMARK    1  A    between atoms: C_6  and  C_7 
REMARK       I    between atoms: C_7  and  N_8 
REMARK    2  A    between atoms: N_8  and  C_9 
REMARK    3  A    between atoms: N_12  and  C_13 
ROOT
HETATM    1  C   UNL     1      42.564 -12.906   3.953  1.00  0.00     0.177 C 
HETATM    2  C   UNL     1      42.140 -12.655   2.489  1.00  0.00     0.248 C 
HETATM    3  O   UNL     1      42.296 -13.553   1.658  1.00  0.00    -0.271 OA
HETATM    4  N   UNL     1      41.625 -11.360   2.276  1.00  0.00    -0.299 N 
HETATM    5  C   UNL     1      41.437 -10.505   3.446  1.00  0.00     0.134 C 
HETATM    6  C   UNL     1      40.728 -11.259   4.565  1.00  0.00     0.023 C 
HETATM    7  C   UNL     1      41.427 -12.571   4.914  1.00  0.00     0.036 C 
ENDROOT
BRANCH   1   8
HETATM    8  N   UNL     1      42.992 -14.288   4.107  1.00  0.00    -0.344 N 
HETATM    9  C   UNL     1      42.100 -15.323   4.234  1.00  0.00     0.253 C 
HETATM   10  O   UNL     1      40.886 -15.196   4.140  1.00  0.00    -0.268 OA
HETATM   11  H   UNL     1      43.986 -14.443   4.253  1.00  0.00     0.163 HD
BRANCH   9  12
HETATM   12  C   UNL     1      42.718 -16.656   4.461  1.00  0.00     0.043 A 
HETATM   13  C   UNL     1      42.851 -17.168   5.769  1.00  0.00    -0.045 A 
HETATM   14  C   UNL     1      43.481 -18.412   5.945  1.00  0.00     0.014 A 
HETATM   15  C   UNL     1      42.364 -16.430   6.986  1.00  0.00     0.049 C 
HETATM   16  C   UNL     1      43.937 -19.154   4.851  1.00  0.00    -0.061 A 
HETATM   17  C   UNL     1      44.591 -20.492   5.044  1.00  0.00     0.048 C 
HETATM   18  C   UNL     1      43.764 -18.646   3.559  1.00  0.00     0.014 A 
HETATM   19  C   UNL     1      43.164 -17.394   3.347  1.00  0.00    -0.045 A 
HETATM   20  C   UNL     1      42.997 -16.891   1.939  1.00  0.00     0.049 C 
ENDBRANCH   9  12
ENDBRANCH   1   8
BRANCH   4  21
HETATM   21  C   UNL     1      41.393 -10.891   0.971  1.00  0.00     0.154 A 
HETATM   22  N   UNL     1      42.073  -9.894   0.399  1.00  0.00    -0.155 NA
HETATM   23  N   UNL     1      41.533  -9.737  -0.814  1.00  0.00    -0.283 N 
HETATM   24  C   UNL     1      42.042  -8.716  -1.695  1.00  0.00     0.179 C 
HETATM   25  C   UNL     1      40.521 -10.607  -1.071  1.00  0.00     0.115 A 
HETATM   26  C   UNL     1      40.400 -11.369   0.067  1.00  0.00     0.071 A 
ENDBRANCH   4  21
TORSDOF 3
ENDMDL
MODEL 10
REMARK VINA RESULT:      -7.3      4.568      7.423
REMARK  3 active torsions:
REMARK  status: ('A' for Active; 'I' for Inactive)
REMARK    1  A    between atoms: C_6  and  C_7 
REMARK       I    between atoms: C_7  and  N_8 
REMARK    2  A    between atoms: N_8  and  C_9 
REMARK    3  A    between atoms: N_12  and  C_13 
ROOT
HETATM    1  C   UNL     1      39.962 -13.869   0.650  1.00  0.00     0.177 C 
HETATM    2  C   UNL     1      40.418 -12.496   0.110  1.00  0.00     0.248 C 
HETATM    3  O   UNL     1      41.378 -11.932   0.639  1.00  0.00    -0.271 OA
HETATM    4  N   UNL     1      39.624 -12.030  -0.958  1.00  0.00    -0.299 N 
HETATM    5  C   UNL     1      38.602 -12.931  -1.485  1.00  0.00     0.134 C 
HETATM    6  C   UNL     1      39.172 -14.325  -1.722  1.00  0.00     0.023 C 
HETATM    7  C   UNL     1      39.856 -14.890  -0.479  1.00  0.00     0.036 C 
ENDROOT
BRANCH   1   8
HETATM    8  N   UNL     1      40.886 -14.319   1.679  1.00  0.00    -0.344 N 
HETATM    9  C   UNL     1      40.539 -15.257   2.619  1.00  0.00     0.253 C 
HETATM   10  O   UNL     1      39.472 -15.858   2.626  1.00  0.00    -0.268 OA
HETATM   11  H   UNL     1      41.762 -13.811   1.759  1.00  0.00     0.163 HD
BRANCH   9  12
HETATM   12  C   UNL     1      41.584 -15.536   3.639  1.00  0.00     0.043 A 
HETATM   13  C   UNL     1      41.629 -14.794   4.838  1.00  0.00    -0.045 A 
HETATM   14  C   UNL     1      42.660 -15.057   5.756  1.00  0.00     0.014 A 
HETATM   15  C   UNL     1      40.632 -13.717   5.166  1.00  0.00     0.049 C 
HETATM   16  C   UNL     1      43.605 -16.060   5.515  1.00  0.00    -0.061 A 
HETATM   17  C   UNL     1      44.691 -16.353   6.510  1.00  0.00     0.048 C 
HETATM   18  C   UNL     1      43.522 -16.811   4.337  1.00  0.00     0.014 A 
HETATM   19  C   UNL     1      42.523 -16.556   3.384  1.00  0.00    -0.045 A 
HETATM   20  C   UNL     1      42.473 -17.391   2.134  1.00  0.00     0.049 C 
ENDBRANCH   9  12
ENDBRANCH   1   8
BRANCH   4  21
HETATM   21  C   UNL     1      39.761 -10.712  -1.427  1.00  0.00     0.154 A 
HETATM   22  N   UNL     1      40.574 -10.349  -2.423  1.00  0.00    -0.155 NA
HETATM   23  N   UNL     1      40.438  -9.024  -2.538  1.00  0.00    -0.283 N 
HETATM   24  C   UNL     1      41.201  -8.312  -3.533  1.00  0.00     0.179 C 
HETATM   25  C   UNL     1      39.551  -8.495  -1.656  1.00  0.00     0.115 A 
HETATM   26  C   UNL     1      39.094  -9.560  -0.916  1.00  0.00     0.071 A 
ENDBRANCH   4  21
TORSDOF 3
ENDMDL
