MODEL 1
REMARK VINA RESULT:      -9.0      0.000      0.000
REMARK  5 active torsions:
REMARK  status: ('A' for Active; 'I' for Inactive)
REMARK    1  A    between atoms: O_2  and  C_3 
REMARK    2  A    between atoms: C_6  and  C_7 
REMARK    3  A    between atoms: C_12  and  C_13 
REMARK    4  A    between atoms: N_14  and  N_15 
REMARK       I    between atoms: N_15  and  C_16 
REMARK    5  A    between atoms: C_16  and  C_17 
ROOT
HETATM    1  C   UNL     1      41.316 -13.803   4.418  1.00  0.00     0.154 C 
HETATM    2  N   UNL     1      42.464 -13.219   4.282  1.00  0.00    -0.183 NA
ENDROOT
BRANCH   1   3
HETATM    3  C   UNL     1      40.741 -14.472   3.270  1.00  0.00     0.031 A 
HETATM    4  C   UNL     1      41.057 -15.753   2.714  1.00  0.00     0.100 A 
HETATM    5  N   UNL     1      40.326 -15.986   1.609  1.00  0.00    -0.174 NA
HETATM    6  N   UNL     1      39.545 -14.907   1.484  1.00  0.00    -0.288 N 
HETATM    7  H   UNL     1      38.894 -14.874   0.708  1.00  0.00     0.188 HD
HETATM    8  C   UNL     1      39.750 -13.973   2.449  1.00  0.00     0.124 A 
BRANCH   4   9
HETATM    9  C   UNL     1      42.024 -16.750   3.179  1.00  0.00    -0.005 A 
HETATM   10  C   UNL     1      42.575 -17.665   2.272  1.00  0.00     0.016 A 
HETATM   11  C   UNL     1      43.503 -18.626   2.693  1.00  0.00     0.037 A 
HETATM   12  C   UNL     1      43.890 -18.686   4.030  1.00  0.00     0.068 A 
HETATM   13  C   UNL     1      43.333 -17.786   4.941  1.00  0.00     0.037 A 
HETATM   14  C   UNL     1      42.400 -16.830   4.524  1.00  0.00     0.016 A 
BRANCH  12  15
HETATM   15  O   UNL     1      44.785 -19.566   4.572  1.00  0.00    -0.356 OA
HETATM   16  C   UNL     1      44.246 -20.686   5.262  1.00  0.00     0.210 C 
ENDBRANCH  12  15
ENDBRANCH   4   9
ENDBRANCH   1   3
BRANCH   2  17
HETATM   17  N   UNL     1      43.032 -12.590   5.364  1.00  0.00    -0.243 N 
HETATM   18  C   UNL     1      44.072 -11.669   5.330  1.00  0.00     0.271 C 
HETATM   19  O   UNL     1      44.657 -11.283   4.323  1.00  0.00    -0.266 OA
HETATM   20  H   UNL     1      42.446 -12.629   6.192  1.00  0.00     0.192 HD
BRANCH  18  21
HETATM   21  C   UNL     1      44.460 -11.089   6.650  1.00  0.00     0.036 A 
HETATM   22  C   UNL     1      43.505 -10.752   7.622  1.00  0.00     0.057 A 
HETATM   23  C   UNL     1      43.966 -10.233   8.815  1.00  0.00     0.106 A 
HETATM   24  C   UNL     1      45.307 -10.056   9.068  1.00  0.00     0.105 A 
HETATM   25  O   UNL     1      43.187  -9.852   9.863  1.00  0.00    -0.323 OA
HETATM   26  O   UNL     1      45.538  -9.539  10.304  1.00  0.00    -0.323 OA
HETATM   27  C   UNL     1      46.269 -10.392   8.143  1.00  0.00     0.041 A 
HETATM   28  C   UNL     1      44.191  -9.414  10.805  1.00  0.00     0.352 A 
HETATM   29  C   UNL     1      45.837 -10.918   6.921  1.00  0.00     0.020 A 
ENDBRANCH  18  21
ENDBRANCH   2  17
TORSDOF 5
ENDMDL
MODEL 2
REMARK VINA RESULT:      -8.5      4.446      7.663
REMARK  5 active torsions:
REMARK  status: ('A' for Active; 'I' for Inactive)
REMARK    1  A    between atoms: O_2  and  C_3 
REMARK    2  A    between atoms: C_6  and  C_7 
REMARK    3  A    between atoms: C_12  and  C_13 
REMARK    4  A    between atoms: N_14  and  N_15 
REMARK       I    between atoms: N_15  and  C_16 
REMARK    5  A    between atoms: C_16  and  C_17 
ROOT
HETATM    1  C   UNL     1      42.405 -15.063   5.161  1.00  0.00     0.154 C 
HETATM    2  N   UNL     1      41.231 -15.392   4.722  1.00  0.00    -0.183 NA
ENDROOT
BRANCH   1   3
HETATM    3  C   UNL     1      42.878 -15.664   6.389  1.00  0.00     0.031 A 
HETATM    4  C   UNL     1      43.358 -16.993   6.623  1.00  0.00     0.100 A 
HETATM    5  N   UNL     1      43.653 -17.171   7.924  1.00  0.00    -0.174 NA
HETATM    6  N   UNL     1      43.404 -15.987   8.494  1.00  0.00    -0.288 N 
HETATM    7  H   UNL     1      43.570 -15.889   9.490  1.00  0.00     0.188 HD
HETATM    8  C   UNL     1      42.941 -15.051   7.625  1.00  0.00     0.124 A 
BRANCH   4   9
HETATM    9  C   UNL     1      43.536 -18.093   5.673  1.00  0.00    -0.005 A 
HETATM   10  C   UNL     1      43.583 -19.415   6.135  1.00  0.00     0.016 A 
HETATM   11  C   UNL     1      43.749 -20.484   5.245  1.00  0.00     0.037 A 
HETATM   12  C   UNL     1      43.874 -20.242   3.878  1.00  0.00     0.068 A 
HETATM   13  C   UNL     1      43.842 -18.925   3.414  1.00  0.00     0.037 A 
HETATM   14  C   UNL     1      43.683 -17.856   4.303  1.00  0.00     0.016 A 
BRANCH  12  15
HETATM   15  O   UNL     1      44.037 -21.188   2.904  1.00  0.00    -0.356 OA
HETATM   16  C   UNL     1      43.789 -20.778   1.565  1.00  0.00     0.210 C 
ENDBRANCH  12  15
ENDBRANCH   4   9
ENDBRANCH   1   3
BRANCH   2  17
HETATM   17  N   UNL     1      40.771 -14.841   3.551  1.00  0.00    -0.243 N 
HETATM   18  C   UNL     1      41.125 -15.227   2.264  1.00  0.00     0.271 C 
HETATM   19  O   UNL     1      41.919 -16.116   1.974  1.00  0.00    -0.266 OA
HETATM   20  H   UNL     1      39.921 -14.302   3.679  1.00  0.00     0.192 HD
BRANCH  18  21
HETATM   21  C   UNL     1      40.429 -14.499   1.161  1.00  0.00     0.036 A 
HETATM   22  C   UNL     1      39.962 -15.160   0.015  1.00  0.00     0.057 A 
HETATM   23  C   UNL     1      39.321 -14.400  -0.942  1.00  0.00     0.106 A 
HETATM   24  C   UNL     1      39.126 -13.046  -0.793  1.00  0.00     0.105 A 
HETATM   25  O   UNL     1      38.807 -14.871  -2.111  1.00  0.00    -0.323 OA
HETATM   26  O   UNL     1      38.468 -12.496  -1.849  1.00  0.00    -0.323 OA
HETATM   27  C   UNL     1      39.558 -12.371   0.326  1.00  0.00     0.041 A 
HETATM   28  C   UNL     1      38.267 -13.658  -2.680  1.00  0.00     0.352 A 
HETATM   29  C   UNL     1      40.214 -13.110   1.315  1.00  0.00     0.020 A 
ENDBRANCH  18  21
ENDBRANCH   2  17
TORSDOF 5
ENDMDL
MODEL 3
REMARK VINA RESULT:      -8.4      1.998      8.377
REMARK  5 active torsions:
REMARK  status: ('A' for Active; 'I' for Inactive)
REMARK    1  A    between atoms: O_2  and  C_3 
REMARK    2  A    between atoms: C_6  and  C_7 
REMARK    3  A    between atoms: C_12  and  C_13 
REMARK    4  A    between atoms: N_14  and  N_15 
REMARK       I    between atoms: N_15  and  C_16 
REMARK    5  A    between atoms: C_16  and  C_17 
ROOT
HETATM    1  C   UNL     1      42.743 -13.048   3.766  1.00  0.00     0.154 C 
HETATM    2  N   UNL     1      41.914 -13.943   3.331  1.00  0.00    -0.183 NA
ENDROOT
BRANCH   1   3
HETATM    3  C   UNL     1      42.364 -11.654   3.680  1.00  0.00     0.031 A 
HETATM    4  C   UNL     1      42.556 -10.601   4.631  1.00  0.00     0.100 A 
HETATM    5  N   UNL     1      42.009  -9.454   4.189  1.00  0.00    -0.174 NA
HETATM    6  N   UNL     1      41.516  -9.755   2.982  1.00  0.00    -0.288 N 
HETATM    7  H   UNL     1      41.058  -9.021   2.454  1.00  0.00     0.188 HD
HETATM    8  C   UNL     1      41.701 -11.054   2.628  1.00  0.00     0.124 A 
BRANCH   4   9
HETATM    9  C   UNL     1      43.223 -10.642   5.935  1.00  0.00    -0.005 A 
HETATM   10  C   UNL     1      42.625 -10.027   7.044  1.00  0.00     0.016 A 
HETATM   11  C   UNL     1      43.242 -10.056   8.301  1.00  0.00     0.037 A 
HETATM   12  C   UNL     1      44.468 -10.698   8.464  1.00  0.00     0.068 A 
HETATM   13  C   UNL     1      45.074 -11.300   7.358  1.00  0.00     0.037 A 
HETATM   14  C   UNL     1      44.462 -11.266   6.100  1.00  0.00     0.016 A 
BRANCH  12  15
HETATM   15  O   UNL     1      45.174 -10.805   9.630  1.00  0.00    -0.356 OA
HETATM   16  C   UNL     1      44.702 -10.048  10.737  1.00  0.00     0.210 C 
ENDBRANCH  12  15
ENDBRANCH   4   9
ENDBRANCH   1   3
BRANCH   2  17
HETATM   17  N   UNL     1      42.252 -15.272   3.416  1.00  0.00    -0.243 N 
HETATM   18  C   UNL     1      43.075 -15.971   2.542  1.00  0.00     0.271 C 
HETATM   19  O   UNL     1      43.620 -15.510   1.545  1.00  0.00    -0.266 OA
HETATM   20  H   UNL     1      42.083 -15.660   4.339  1.00  0.00     0.192 HD
BRANCH  18  21
HETATM   21  C   UNL     1      43.328 -17.398   2.901  1.00  0.00     0.036 A 
HETATM   22  C   UNL     1      43.668 -17.787   4.206  1.00  0.00     0.057 A 
HETATM   23  C   UNL     1      43.869 -19.132   4.439  1.00  0.00     0.106 A 
HETATM   24  C   UNL     1      43.736 -20.075   3.446  1.00  0.00     0.105 A 
HETATM   25  O   UNL     1      44.205 -19.684   5.637  1.00  0.00    -0.323 OA
HETATM   26  O   UNL     1      43.973 -21.337   3.895  1.00  0.00    -0.323 OA
HETATM   27  C   UNL     1      43.389 -19.730   2.161  1.00  0.00     0.041 A 
HETATM   28  C   UNL     1      44.267 -21.084   5.284  1.00  0.00     0.352 A 
HETATM   29  C   UNL     1      43.179 -18.374   1.889  1.00  0.00     0.020 A 
ENDBRANCH  18  21
ENDBRANCH   2  17
TORSDOF 5
ENDMDL
MODEL 4
REMARK VINA RESULT:      -8.3      4.170      7.933
REMARK  5 active torsions:
REMARK  status: ('A' for Active; 'I' for Inactive)
REMARK    1  A    between atoms: O_2  and  C_3 
REMARK    2  A    between atoms: C_6  and  C_7 
REMARK    3  A    between atoms: C_12  and  C_13 
REMARK    4  A    between atoms: N_14  and  N_15 
REMARK       I    between atoms: N_15  and  C_16 
REMARK    5  A    between atoms: C_16  and  C_17 
ROOT
HETATM    1  C   UNL     1      41.441 -13.843   4.086  1.00  0.00     0.154 C 
HETATM    2  N   UNL     1      41.863 -13.226   3.028  1.00  0.00    -0.183 NA
ENDROOT
BRANCH   1   3
HETATM    3  C   UNL     1      42.318 -13.928   5.234  1.00  0.00     0.031 A 
HETATM    4  C   UNL     1      43.157 -15.009   5.656  1.00  0.00     0.100 A 
HETATM    5  N   UNL     1      43.778 -14.707   6.811  1.00  0.00    -0.174 NA
HETATM    6  N   UNL     1      43.376 -13.464   7.098  1.00  0.00    -0.288 N 
HETATM    7  H   UNL     1      43.736 -13.026   7.939  1.00  0.00     0.188 HD
HETATM    8  C   UNL     1      42.506 -12.950   6.190  1.00  0.00     0.124 A 
BRANCH   4   9
HETATM    9  C   UNL     1      43.384 -16.308   5.018  1.00  0.00    -0.005 A 
HETATM   10  C   UNL     1      43.753 -17.413   5.797  1.00  0.00     0.016 A 
HETATM   11  C   UNL     1      43.972 -18.666   5.210  1.00  0.00     0.037 A 
HETATM   12  C   UNL     1      43.828 -18.828   3.833  1.00  0.00     0.068 A 
HETATM   13  C   UNL     1      43.474 -17.726   3.051  1.00  0.00     0.037 A 
HETATM   14  C   UNL     1      43.262 -16.473   3.635  1.00  0.00     0.016 A 
BRANCH  12  15
HETATM   15  O   UNL     1      44.007 -19.990   3.135  1.00  0.00    -0.356 OA
HETATM   16  C   UNL     1      43.266 -20.134   1.929  1.00  0.00     0.210 C 
ENDBRANCH  12  15
ENDBRANCH   4   9
ENDBRANCH   1   3
BRANCH   2  17
HETATM   17  N   UNL     1      41.040 -13.125   1.934  1.00  0.00    -0.243 N 
HETATM   18  C   UNL     1      40.874 -14.077   0.936  1.00  0.00     0.271 C 
HETATM   19  O   UNL     1      41.452 -15.158   0.871  1.00  0.00    -0.266 OA
HETATM   20  H   UNL     1      40.329 -12.409   2.043  1.00  0.00     0.192 HD
BRANCH  18  21
HETATM   21  C   UNL     1      39.866 -13.740  -0.113  1.00  0.00     0.036 A 
HETATM   22  C   UNL     1      39.194 -12.508  -0.128  1.00  0.00     0.057 A 
HETATM   23  C   UNL     1      38.290 -12.287  -1.147  1.00  0.00     0.106 A 
HETATM   24  C   UNL     1      38.050 -13.221  -2.129  1.00  0.00     0.105 A 
HETATM   25  O   UNL     1      37.550 -11.158  -1.315  1.00  0.00    -0.323 OA
HETATM   26  O   UNL     1      37.130 -12.796  -3.035  1.00  0.00    -0.323 OA
HETATM   27  C   UNL     1      38.705 -14.431  -2.153  1.00  0.00     0.041 A 
HETATM   28  C   UNL     1      36.818 -11.487  -2.516  1.00  0.00     0.352 A 
HETATM   29  C   UNL     1      39.626 -14.689  -1.133  1.00  0.00     0.020 A 
ENDBRANCH  18  21
ENDBRANCH   2  17
TORSDOF 5
ENDMDL
MODEL 5
REMARK VINA RESULT:      -8.3      1.113      1.597
REMARK  5 active torsions:
REMARK  status: ('A' for Active; 'I' for Inactive)
REMARK    1  A    between atoms: O_2  and  C_3 
REMARK    2  A    between atoms: C_6  and  C_7 
REMARK    3  A    between atoms: C_12  and  C_13 
REMARK    4  A    between atoms: N_14  and  N_15 
REMARK       I    between atoms: N_15  and  C_16 
REMARK    5  A    between atoms: C_16  and  C_17 
ROOT
HETATM    1  C   UNL     1      40.763 -12.519   3.888  1.00  0.00     0.154 C 
HETATM    2  N   UNL     1      41.973 -12.056   3.873  1.00  0.00    -0.183 NA
ENDROOT
BRANCH   1   3
HETATM    3  C   UNL     1      40.163 -12.925   2.635  1.00  0.00     0.031 A 
HETATM    4  C   UNL     1      40.438 -14.075   1.828  1.00  0.00     0.100 A 
HETATM    5  N   UNL     1      39.695 -14.060   0.706  1.00  0.00    -0.174 NA
HETATM    6  N   UNL     1      38.946 -12.956   0.810  1.00  0.00    -0.288 N 
HETATM    7  H   UNL     1      38.293 -12.748   0.063  1.00  0.00     0.188 HD
HETATM    8  C   UNL     1      39.183 -12.242   1.941  1.00  0.00     0.124 A 
BRANCH   4   9
HETATM    9  C   UNL     1      41.376 -15.174   2.072  1.00  0.00    -0.005 A 
HETATM   10  C   UNL     1      42.572 -15.245   1.345  1.00  0.00     0.016 A 
HETATM   11  C   UNL     1      43.487 -16.283   1.563  1.00  0.00     0.037 A 
HETATM   12  C   UNL     1      43.213 -17.268   2.511  1.00  0.00     0.068 A 
HETATM   13  C   UNL     1      42.016 -17.209   3.228  1.00  0.00     0.037 A 
HETATM   14  C   UNL     1      41.099 -16.176   3.006  1.00  0.00     0.016 A 
BRANCH  12  15
HETATM   15  O   UNL     1      44.016 -18.329   2.826  1.00  0.00    -0.356 OA
HETATM   16  C   UNL     1      44.254 -18.566   4.207  1.00  0.00     0.210 C 
ENDBRANCH  12  15
ENDBRANCH   4   9
ENDBRANCH   1   3
BRANCH   2  17
HETATM   17  N   UNL     1      42.563 -11.678   5.054  1.00  0.00    -0.243 N 
HETATM   18  C   UNL     1      43.898 -11.337   5.237  1.00  0.00     0.271 C 
HETATM   19  O   UNL     1      44.764 -11.335   4.368  1.00  0.00    -0.266 OA
HETATM   20  H   UNL     1      41.888 -11.385   5.753  1.00  0.00     0.192 HD
BRANCH  18  21
HETATM   21  C   UNL     1      44.267 -10.903   6.617  1.00  0.00     0.036 A 
HETATM   22  C   UNL     1      43.300 -10.517   7.557  1.00  0.00     0.057 A 
HETATM   23  C   UNL     1      43.742 -10.143   8.810  1.00  0.00     0.106 A 
HETATM   24  C   UNL     1      45.075 -10.153   9.149  1.00  0.00     0.105 A 
HETATM   25  O   UNL     1      42.949  -9.740   9.839  1.00  0.00    -0.323 OA
HETATM   26  O   UNL     1      45.287  -9.756  10.433  1.00  0.00    -0.323 OA
HETATM   27  C   UNL     1      46.047 -10.542   8.256  1.00  0.00     0.041 A 
HETATM   28  C   UNL     1      43.936  -9.498  10.866  1.00  0.00     0.352 A 
HETATM   29  C   UNL     1      45.634 -10.924   6.976  1.00  0.00     0.020 A 
ENDBRANCH  18  21
ENDBRANCH   2  17
TORSDOF 5
ENDMDL
MODEL 6
REMARK VINA RESULT:      -8.2     16.235     18.172
REMARK  5 active torsions:
REMARK  status: ('A' for Active; 'I' for Inactive)
REMARK    1  A    between atoms: O_2  and  C_3 
REMARK    2  A    between atoms: C_6  and  C_7 
REMARK    3  A    between atoms: C_12  and  C_13 
REMARK    4  A    between atoms: N_14  and  N_15 
REMARK       I    between atoms: N_15  and  C_16 
REMARK    5  A    between atoms: C_16  and  C_17 
ROOT
HETATM    1  C   UNL     1      45.016 -29.714   1.583  1.00  0.00     0.154 C 
HETATM    2  N   UNL     1      44.304 -29.213   2.542  1.00  0.00    -0.183 NA
ENDROOT
BRANCH   1   3
HETATM    3  C   UNL     1      46.115 -28.933   1.056  1.00  0.00     0.031 A 
HETATM    4  C   UNL     1      46.421 -28.599  -0.303  1.00  0.00     0.100 A 
HETATM    5  N   UNL     1      47.565 -27.896  -0.374  1.00  0.00    -0.174 NA
HETATM    6  N   UNL     1      47.959 -27.756   0.897  1.00  0.00    -0.288 N 
HETATM    7  H   UNL     1      48.812 -27.240   1.082  1.00  0.00     0.188 HD
HETATM    8  C   UNL     1      47.129 -28.355   1.792  1.00  0.00     0.124 A 
BRANCH   4   9
HETATM    9  C   UNL     1      45.682 -28.925  -1.525  1.00  0.00    -0.005 A 
HETATM   10  C   UNL     1      45.687 -28.030  -2.603  1.00  0.00     0.016 A 
HETATM   11  C   UNL     1      44.991 -28.322  -3.783  1.00  0.00     0.037 A 
HETATM   12  C   UNL     1      44.276 -29.513  -3.898  1.00  0.00     0.068 A 
HETATM   13  C   UNL     1      44.257 -30.401  -2.820  1.00  0.00     0.037 A 
HETATM   14  C   UNL     1      44.946 -30.109  -1.638  1.00  0.00     0.016 A 
BRANCH  12  15
HETATM   15  O   UNL     1      43.560 -29.922  -4.988  1.00  0.00    -0.356 OA
HETATM   16  C   UNL     1      44.228 -30.772  -5.912  1.00  0.00     0.210 C 
ENDBRANCH  12  15
ENDBRANCH   4   9
ENDBRANCH   1   3
BRANCH   2  17
HETATM   17  N   UNL     1      43.265 -29.945   3.062  1.00  0.00    -0.243 N 
HETATM   18  C   UNL     1      41.993 -30.075   2.517  1.00  0.00     0.271 C 
HETATM   19  O   UNL     1      41.596 -29.542   1.486  1.00  0.00    -0.266 OA
HETATM   20  H   UNL     1      43.572 -30.630   3.745  1.00  0.00     0.192 HD
BRANCH  18  21
HETATM   21  C   UNL     1      41.067 -30.983   3.257  1.00  0.00     0.036 A 
HETATM   22  C   UNL     1      40.876 -30.880   4.643  1.00  0.00     0.057 A 
HETATM   23  C   UNL     1      39.989 -31.759   5.232  1.00  0.00     0.106 A 
HETATM   24  C   UNL     1      39.300 -32.701   4.504  1.00  0.00     0.105 A 
HETATM   25  O   UNL     1      39.684 -31.803   6.557  1.00  0.00    -0.323 OA
HETATM   26  O   UNL     1      38.477 -33.456   5.280  1.00  0.00    -0.323 OA
HETATM   27  C   UNL     1      39.452 -32.818   3.141  1.00  0.00     0.041 A 
HETATM   28  C   UNL     1      38.723 -32.881   6.580  1.00  0.00     0.352 A 
HETATM   29  C   UNL     1      40.345 -31.944   2.513  1.00  0.00     0.020 A 
ENDBRANCH  18  21
ENDBRANCH   2  17
TORSDOF 5
ENDMDL
MODEL 7
REMARK VINA RESULT:      -8.2      4.922      8.203
REMARK  5 active torsions:
REMARK  status: ('A' for Active; 'I' for Inactive)
REMARK    1  A    between atoms: O_2  and  C_3 
REMARK    2  A    between atoms: C_6  and  C_7 
REMARK    3  A    between atoms: C_12  and  C_13 
REMARK    4  A    between atoms: N_14  and  N_15 
REMARK       I    between atoms: N_15  and  C_16 
REMARK    5  A    between atoms: C_16  and  C_17 
ROOT
HETATM    1  C   UNL     1      41.680 -12.440   2.826  1.00  0.00     0.154 C 
HETATM    2  N   UNL     1      42.675 -13.111   2.339  1.00  0.00    -0.183 NA
ENDROOT
BRANCH   1   3
HETATM    3  C   UNL     1      41.406 -11.123   2.291  1.00  0.00     0.031 A 
HETATM    4  C   UNL     1      40.962 -10.750   0.982  1.00  0.00     0.100 A 
HETATM    5  N   UNL     1      40.876  -9.413   0.871  1.00  0.00    -0.174 NA
HETATM    6  N   UNL     1      41.220  -8.949   2.078  1.00  0.00    -0.288 N 
HETATM    7  H   UNL     1      41.216  -7.945   2.225  1.00  0.00     0.188 HD
HETATM    8  C   UNL     1      41.544  -9.926   2.964  1.00  0.00     0.124 A 
BRANCH   4   9
HETATM    9  C   UNL     1      40.628 -11.605  -0.160  1.00  0.00    -0.005 A 
HETATM   10  C   UNL     1      41.269 -11.408  -1.390  1.00  0.00     0.016 A 
HETATM   11  C   UNL     1      40.969 -12.215  -2.496  1.00  0.00     0.037 A 
HETATM   12  C   UNL     1      40.019 -13.228  -2.384  1.00  0.00     0.068 A 
HETATM   13  C   UNL     1      39.366 -13.418  -1.164  1.00  0.00     0.037 A 
HETATM   14  C   UNL     1      39.660 -12.609  -0.061  1.00  0.00     0.016 A 
BRANCH  12  15
HETATM   15  O   UNL     1      39.635 -14.086  -3.377  1.00  0.00    -0.356 OA
HETATM   16  C   UNL     1      38.283 -14.525  -3.358  1.00  0.00     0.210 C 
ENDBRANCH  12  15
ENDBRANCH   4   9
ENDBRANCH   1   3
BRANCH   2  17
HETATM   17  N   UNL     1      42.942 -14.368   2.826  1.00  0.00    -0.243 N 
HETATM   18  C   UNL     1      42.674 -15.573   2.188  1.00  0.00     0.271 C 
HETATM   19  O   UNL     1      42.143 -15.701   1.090  1.00  0.00    -0.266 OA
HETATM   20  H   UNL     1      43.619 -14.360   3.582  1.00  0.00     0.192 HD
BRANCH  18  21
HETATM   21  C   UNL     1      43.123 -16.798   2.914  1.00  0.00     0.036 A 
HETATM   22  C   UNL     1      43.083 -18.069   2.322  1.00  0.00     0.057 A 
HETATM   23  C   UNL     1      43.531 -19.137   3.073  1.00  0.00     0.106 A 
HETATM   24  C   UNL     1      44.014 -18.981   4.352  1.00  0.00     0.105 A 
HETATM   25  O   UNL     1      43.563 -20.433   2.662  1.00  0.00    -0.323 OA
HETATM   26  O   UNL     1      44.407 -20.160   4.905  1.00  0.00    -0.323 OA
HETATM   27  C   UNL     1      44.082 -17.747   4.956  1.00  0.00     0.041 A 
HETATM   28  C   UNL     1      44.121 -21.077   3.829  1.00  0.00     0.352 A 
HETATM   29  C   UNL     1      43.633 -16.643   4.224  1.00  0.00     0.020 A 
ENDBRANCH  18  21
ENDBRANCH   2  17
TORSDOF 5
ENDMDL
MODEL 8
REMARK VINA RESULT:      -7.9      4.316      8.501
REMARK  5 active torsions:
REMARK  status: ('A' for Active; 'I' for Inactive)
REMARK    1  A    between atoms: O_2  and  C_3 
REMARK    2  A    between atoms: C_6  and  C_7 
REMARK    3  A    between atoms: C_12  and  C_13 
REMARK    4  A    between atoms: N_14  and  N_15 
REMARK       I    between atoms: N_15  and  C_16 
REMARK    5  A    between atoms: C_16  and  C_17 
ROOT
HETATM    1  C   UNL     1      42.143 -13.231   1.842  1.00  0.00     0.154 C 
HETATM    2  N   UNL     1      41.991 -13.900   2.941  1.00  0.00    -0.183 NA
ENDROOT
BRANCH   1   3
HETATM    3  C   UNL     1      41.725 -11.846   1.813  1.00  0.00     0.031 A 
HETATM    4  C   UNL     1      40.750 -11.210   0.978  1.00  0.00     0.100 A 
HETATM    5  N   UNL     1      40.695  -9.890   1.230  1.00  0.00    -0.174 NA
HETATM    6  N   UNL     1      41.579  -9.695   2.216  1.00  0.00    -0.288 N 
HETATM    7  H   UNL     1      41.697  -8.754   2.575  1.00  0.00     0.188 HD
HETATM    8  C   UNL     1      42.221 -10.828   2.602  1.00  0.00     0.124 A 
BRANCH   4   9
HETATM    9  C   UNL     1      39.884 -11.799  -0.046  1.00  0.00    -0.005 A 
HETATM   10  C   UNL     1      38.510 -11.524  -0.040  1.00  0.00     0.016 A 
HETATM   11  C   UNL     1      37.662 -12.072  -1.011  1.00  0.00     0.037 A 
HETATM   12  C   UNL     1      38.179 -12.907  -1.999  1.00  0.00     0.068 A 
HETATM   13  C   UNL     1      39.545 -13.196  -2.001  1.00  0.00     0.037 A 
HETATM   14  C   UNL     1      40.392 -12.654  -1.028  1.00  0.00     0.016 A 
BRANCH  12  15
HETATM   15  O   UNL     1      37.468 -13.504  -3.004  1.00  0.00    -0.356 OA
HETATM   16  C   UNL     1      38.071 -14.623  -3.639  1.00  0.00     0.210 C 
ENDBRANCH  12  15
ENDBRANCH   4   9
ENDBRANCH   1   3
BRANCH   2  17
HETATM   17  N   UNL     1      42.393 -15.213   2.991  1.00  0.00    -0.243 N 
HETATM   18  C   UNL     1      43.067 -15.829   4.039  1.00  0.00     0.271 C 
HETATM   19  O   UNL     1      43.420 -15.288   5.082  1.00  0.00    -0.266 OA
HETATM   20  H   UNL     1      41.913 -15.796   2.314  1.00  0.00     0.192 HD
BRANCH  18  21
HETATM   21  C   UNL     1      43.334 -17.287   3.862  1.00  0.00     0.036 A 
HETATM   22  C   UNL     1      43.702 -18.111   4.937  1.00  0.00     0.057 A 
HETATM   23  C   UNL     1      43.914 -19.448   4.672  1.00  0.00     0.106 A 
HETATM   24  C   UNL     1      43.766 -19.978   3.410  1.00  0.00     0.105 A 
HETATM   25  O   UNL     1      44.276 -20.387   5.588  1.00  0.00    -0.323 OA
HETATM   26  O   UNL     1      44.018 -21.314   3.375  1.00  0.00    -0.323 OA
HETATM   27  C   UNL     1      43.390 -19.201   2.338  1.00  0.00     0.041 A 
HETATM   28  C   UNL     1      44.338 -21.568   4.758  1.00  0.00     0.352 A 
HETATM   29  C   UNL     1      43.169 -17.840   2.571  1.00  0.00     0.020 A 
ENDBRANCH  18  21
ENDBRANCH   2  17
TORSDOF 5
ENDMDL
MODEL 9
REMARK VINA RESULT:      -7.5      3.057      3.767
REMARK  5 active torsions:
REMARK  status: ('A' for Active; 'I' for Inactive)
REMARK    1  A    between atoms: O_2  and  C_3 
REMARK    2  A    between atoms: C_6  and  C_7 
REMARK    3  A    between atoms: C_12  and  C_13 
REMARK    4  A    between atoms: N_14  and  N_15 
REMARK       I    between atoms: N_15  and  C_16 
REMARK    5  A    between atoms: C_16  and  C_17 
ROOT
HETATM    1  C   UNL     1      39.989 -12.189   2.096  1.00  0.00     0.154 C 
HETATM    2  N   UNL     1      39.349 -12.427   3.197  1.00  0.00    -0.183 NA
ENDROOT
BRANCH   1   3
HETATM    3  C   UNL     1      39.726 -13.029   0.947  1.00  0.00     0.031 A 
HETATM    4  C   UNL     1      40.245 -14.327   0.634  1.00  0.00     0.100 A 
HETATM    5  N   UNL     1      39.789 -14.747  -0.560  1.00  0.00    -0.174 NA
HETATM    6  N   UNL     1      38.981 -13.767  -0.980  1.00  0.00    -0.288 N 
HETATM    7  H   UNL     1      38.513 -13.879  -1.873  1.00  0.00     0.188 HD
HETATM    8  C   UNL     1      38.905 -12.718  -0.119  1.00  0.00     0.124 A 
BRANCH   4   9
HETATM    9  C   UNL     1      41.154 -15.172   1.412  1.00  0.00    -0.005 A 
HETATM   10  C   UNL     1      42.510 -15.239   1.067  1.00  0.00     0.016 A 
HETATM   11  C   UNL     1      43.400 -16.038   1.798  1.00  0.00     0.037 A 
HETATM   12  C   UNL     1      42.941 -16.783   2.883  1.00  0.00     0.068 A 
HETATM   13  C   UNL     1      41.587 -16.730   3.221  1.00  0.00     0.037 A 
HETATM   14  C   UNL     1      40.696 -15.938   2.488  1.00  0.00     0.016 A 
BRANCH  12  15
HETATM   15  O   UNL     1      43.698 -17.596   3.680  1.00  0.00    -0.356 OA
HETATM   16  C   UNL     1      43.888 -18.933   3.236  1.00  0.00     0.210 C 
ENDBRANCH  12  15
ENDBRANCH   4   9
ENDBRANCH   1   3
BRANCH   2  17
HETATM   17  N   UNL     1      39.577 -11.632   4.293  1.00  0.00    -0.243 N 
HETATM   18  C   UNL     1      39.586 -12.042   5.621  1.00  0.00     0.271 C 
HETATM   19  O   UNL     1      39.376 -13.182   6.022  1.00  0.00    -0.266 OA
HETATM   20  H   UNL     1      40.026 -10.754   4.054  1.00  0.00     0.192 HD
BRANCH  18  21
HETATM   21  C   UNL     1      39.922 -10.982   6.618  1.00  0.00     0.036 A 
HETATM   22  C   UNL     1      38.998 -10.548   7.581  1.00  0.00     0.057 A 
HETATM   23  C   UNL     1      39.409  -9.572   8.465  1.00  0.00     0.106 A 
HETATM   24  C   UNL     1      40.677  -9.038   8.429  1.00  0.00     0.105 A 
HETATM   25  O   UNL     1      38.649  -9.034   9.457  1.00  0.00    -0.323 OA
HETATM   26  O   UNL     1      40.872  -8.098   9.392  1.00  0.00    -0.323 OA
HETATM   27  C   UNL     1      41.612  -9.453   7.509  1.00  0.00     0.041 A 
HETATM   28  C   UNL     1      39.584  -8.101  10.042  1.00  0.00     0.352 A 
HETATM   29  C   UNL     1      41.227 -10.440   6.595  1.00  0.00     0.020 A 
ENDBRANCH  18  21
ENDBRANCH   2  17
TORSDOF 5
ENDMDL
MODEL 10
REMARK VINA RESULT:      -7.5      4.425      8.202
REMARK  5 active torsions:
REMARK  status: ('A' for Active; 'I' for Inactive)
REMARK    1  A    between atoms: O_2  and  C_3 
REMARK    2  A    between atoms: C_6  and  C_7 
REMARK    3  A    between atoms: C_12  and  C_13 
REMARK    4  A    between atoms: N_14  and  N_15 
REMARK       I    between atoms: N_15  and  C_16 
REMARK    5  A    between atoms: C_16  and  C_17 
ROOT
HETATM    1  C   UNL     1      39.915 -14.730  -0.754  1.00  0.00     0.154 C 
HETATM    2  N   UNL     1      39.796 -14.687   0.535  1.00  0.00    -0.183 NA
ENDROOT
BRANCH   1   3
HETATM    3  C   UNL     1      39.040 -13.901  -1.557  1.00  0.00     0.031 A 
HETATM    4  C   UNL     1      38.607 -12.555  -1.332  1.00  0.00     0.100 A 
HETATM    5  N   UNL     1      37.751 -12.163  -2.292  1.00  0.00    -0.174 NA
HETATM    6  N   UNL     1      37.667 -13.210  -3.121  1.00  0.00    -0.288 N 
HETATM    7  H   UNL     1      37.070 -13.129  -3.937  1.00  0.00     0.188 HD
HETATM    8  C   UNL     1      38.417 -14.274  -2.731  1.00  0.00     0.124 A 
BRANCH   4   9
HETATM    9  C   UNL     1      38.963 -11.638  -0.246  1.00  0.00    -0.005 A 
HETATM   10  C   UNL     1      38.075 -11.440   0.819  1.00  0.00     0.016 A 
HETATM   11  C   UNL     1      38.395 -10.571   1.871  1.00  0.00     0.037 A 
HETATM   12  C   UNL     1      39.608  -9.885   1.866  1.00  0.00     0.068 A 
HETATM   13  C   UNL     1      40.490 -10.069   0.799  1.00  0.00     0.037 A 
HETATM   14  C   UNL     1      40.170 -10.932  -0.254  1.00  0.00     0.016 A 
BRANCH  12  15
HETATM   15  O   UNL     1      40.046  -9.015   2.826  1.00  0.00    -0.356 OA
HETATM   16  C   UNL     1      41.065  -9.483   3.700  1.00  0.00     0.210 C 
ENDBRANCH  12  15
ENDBRANCH   4   9
ENDBRANCH   1   3
BRANCH   2  17
HETATM   17  N   UNL     1      40.626 -15.457   1.313  1.00  0.00    -0.243 N 
HETATM   18  C   UNL     1      41.872 -15.087   1.806  1.00  0.00     0.271 C 
HETATM   19  O   UNL     1      42.431 -14.013   1.610  1.00  0.00    -0.266 OA
HETATM   20  H   UNL     1      40.143 -16.234   1.751  1.00  0.00     0.192 HD
BRANCH  18  21
HETATM   21  C   UNL     1      42.542 -16.095   2.680  1.00  0.00     0.036 A 
HETATM   22  C   UNL     1      42.730 -17.424   2.271  1.00  0.00     0.057 A 
HETATM   23  C   UNL     1      43.371 -18.276   3.148  1.00  0.00     0.106 A 
HETATM   24  C   UNL     1      43.827 -17.856   4.376  1.00  0.00     0.105 A 
HETATM   25  O   UNL     1      43.635 -19.591   2.919  1.00  0.00    -0.323 OA
HETATM   26  O   UNL     1      44.433 -18.854   5.074  1.00  0.00    -0.323 OA
HETATM   27  C   UNL     1      43.673 -16.557   4.801  1.00  0.00     0.041 A 
HETATM   28  C   UNL     1      44.311 -19.951   4.145  1.00  0.00     0.352 A 
HETATM   29  C   UNL     1      43.025 -15.667   3.938  1.00  0.00     0.020 A 
ENDBRANCH  18  21
ENDBRANCH   2  17
TORSDOF 5
ENDMDL
