MODEL 1
REMARK VINA RESULT:      -8.8      0.000      0.000
REMARK  9 active torsions:
REMARK  status: ('A' for Active; 'I' for Inactive)
REMARK    1  A    between atoms: C_2  and  C_3 
REMARK    2  A    between atoms: C_4  and  O_5 
REMARK    3  A    between atoms: C_6  and  C_7 
REMARK    4  A    between atoms: C_12  and  C_13 
REMARK    5  A    between atoms: C_13  and  C_14 
REMARK    6  A    between atoms: C_14  and  N_15 
REMARK    7  A    between atoms: N_20  and  C_21 
REMARK    8  A    between atoms: C_21  and  C_22 
REMARK    9  A    between atoms: C_22  and  N_23 
ROOT
HETATM    1  N   UNL     1      41.914 -10.334   6.635  1.00  0.00    -0.174 N 
HETATM    2  C   UNL     1      41.710  -9.719   7.857  1.00  0.00     0.681 A 
HETATM    3  N   UNL     1      40.516  -9.323   8.307  1.00  0.00    -0.234 N 
HETATM    4  H   UNL     1      40.318  -9.011   9.243  1.00  0.00     0.174 HD
HETATM    5  H   UNL     1      39.761  -9.210   7.621  1.00  0.00     0.174 HD
HETATM    6  N   UNL     1      42.891  -9.575   8.605  1.00  0.00    -0.180 N 
HETATM    7  C   UNL     1      43.895 -10.199   7.790  1.00  0.00     0.079 A 
HETATM    8  C   UNL     1      43.309 -10.618   6.586  1.00  0.00     0.079 A 
HETATM    9  C   UNL     1      45.226 -10.443   8.058  1.00  0.00     0.032 A 
HETATM   10  C   UNL     1      45.981 -11.073   7.062  1.00  0.00     0.002 A 
HETATM   11  C   UNL     1      45.396 -11.464   5.845  1.00  0.00     0.002 A 
HETATM   12  C   UNL     1      44.038 -11.249   5.601  1.00  0.00     0.032 A 
ENDROOT
BRANCH   1  13
HETATM   13  C   UNL     1      40.922 -10.852   5.675  1.00  0.00     0.231 C 
BRANCH  13  14
HETATM   14  C   UNL     1      40.399 -12.238   5.963  1.00  0.00     0.178 C 
HETATM   15  O   UNL     1      39.395 -12.402   6.659  1.00  0.00    -0.290 OA
BRANCH  14  16
HETATM   16  C   UNL     1      41.162 -13.403   5.419  1.00  0.00     0.013 A 
HETATM   17  C   UNL     1      41.910 -14.238   6.257  1.00  0.00     0.026 A 
HETATM   18  C   UNL     1      42.624 -15.349   5.764  1.00  0.00    -0.016 A 
HETATM   19  C   UNL     1      42.508 -15.603   4.378  1.00  0.00     0.079 A 
HETATM   20  C   UNL     1      41.791 -14.768   3.484  1.00  0.00    -0.016 A 
HETATM   21  C   UNL     1      41.108 -13.671   4.049  1.00  0.00     0.026 A 
BRANCH  18  22
HETATM   22  C   UNL     1      43.402 -16.235   6.775  1.00  0.00    -0.021 C 
HETATM   23  C   UNL     1      43.065 -17.744   6.753  1.00  0.00     0.019 C 
HETATM   24  C   UNL     1      44.932 -16.162   6.514  1.00  0.00     0.019 C 
HETATM   25  C   UNL     1      43.118 -15.710   8.197  1.00  0.00     0.019 C 
ENDBRANCH  18  22
BRANCH  19  26
HETATM   26  O   UNL     1      43.030 -16.761   3.885  1.00  0.00    -0.360 OA
HETATM   27  H   UNL     1      42.724 -16.839   2.964  1.00  0.00     0.217 HD
ENDBRANCH  19  26
BRANCH  20  28
HETATM   28  C   UNL     1      41.671 -15.055   1.961  1.00  0.00    -0.021 C 
HETATM   29  C   UNL     1      41.444 -13.716   1.233  1.00  0.00     0.019 C 
HETATM   30  C   UNL     1      40.521 -16.028   1.600  1.00  0.00     0.019 C 
HETATM   31  C   UNL     1      42.950 -15.706   1.373  1.00  0.00     0.019 C 
ENDBRANCH  20  28
ENDBRANCH  14  16
ENDBRANCH  13  14
ENDBRANCH   1  13
BRANCH   6  32
HETATM   32  C   UNL     1      43.023  -9.179  10.014  1.00  0.00     0.175 C 
BRANCH  32  33
HETATM   33  C   UNL     1      43.134 -10.318  11.056  1.00  0.00     0.256 C 
BRANCH  33  34
HETATM   34  N   UNL     1      42.199 -10.186  12.244  1.00  0.00    -0.066 N 
HETATM   35  H   UNL     1      42.265 -11.027  12.834  1.00  0.00     0.280 HD
HETATM   36  C   UNL     1      42.668  -9.013  13.142  1.00  0.00     0.261 C 
HETATM   37  C   UNL     1      41.726  -8.852  14.336  1.00  0.00     0.195 C 
HETATM   38  O   UNL     1      40.383  -8.647  13.890  1.00  0.00    -0.388 OA
HETATM   39  C   UNL     1      39.896  -9.761  13.142  1.00  0.00     0.195 C 
HETATM   40  C   UNL     1      40.732  -9.975  11.874  1.00  0.00     0.261 C 
ENDBRANCH  33  34
ENDBRANCH  32  33
ENDBRANCH   6  32
TORSDOF 9
ENDMDL
MODEL 2
REMARK VINA RESULT:      -8.7      0.166      3.093
REMARK  9 active torsions:
REMARK  status: ('A' for Active; 'I' for Inactive)
REMARK    1  A    between atoms: C_2  and  C_3 
REMARK    2  A    between atoms: C_4  and  O_5 
REMARK    3  A    between atoms: C_6  and  C_7 
REMARK    4  A    between atoms: C_12  and  C_13 
REMARK    5  A    between atoms: C_13  and  C_14 
REMARK    6  A    between atoms: C_14  and  N_15 
REMARK    7  A    between atoms: N_20  and  C_21 
REMARK    8  A    between atoms: C_21  and  C_22 
REMARK    9  A    between atoms: C_22  and  N_23 
ROOT
HETATM    1  N   UNL     1      41.862 -10.345   6.513  1.00  0.00    -0.174 N 
HETATM    2  C   UNL     1      41.635  -9.686   7.708  1.00  0.00     0.681 A 
HETATM    3  N   UNL     1      40.433  -9.272   8.118  1.00  0.00    -0.234 N 
HETATM    4  H   UNL     1      40.217  -8.926   9.039  1.00  0.00     0.174 HD
HETATM    5  H   UNL     1      39.692  -9.182   7.414  1.00  0.00     0.174 HD
HETATM    6  N   UNL     1      42.801  -9.516   8.473  1.00  0.00    -0.180 N 
HETATM    7  C   UNL     1      43.820 -10.171   7.702  1.00  0.00     0.079 A 
HETATM    8  C   UNL     1      43.257 -10.632   6.503  1.00  0.00     0.079 A 
HETATM    9  C   UNL     1      45.145 -10.408   8.006  1.00  0.00     0.032 A 
HETATM   10  C   UNL     1      45.918 -11.074   7.048  1.00  0.00     0.002 A 
HETATM   11  C   UNL     1      45.357 -11.509   5.834  1.00  0.00     0.002 A 
HETATM   12  C   UNL     1      44.005 -11.300   5.555  1.00  0.00     0.032 A 
ENDROOT
BRANCH   1  13
HETATM   13  C   UNL     1      40.889 -10.896   5.553  1.00  0.00     0.231 C 
BRANCH  13  14
HETATM   14  C   UNL     1      40.355 -12.269   5.881  1.00  0.00     0.178 C 
HETATM   15  O   UNL     1      39.369 -12.406   6.608  1.00  0.00    -0.290 OA
BRANCH  14  16
HETATM   16  C   UNL     1      41.088 -13.455   5.338  1.00  0.00     0.013 A 
HETATM   17  C   UNL     1      41.063 -13.762   3.974  1.00  0.00     0.026 A 
HETATM   18  C   UNL     1      41.759 -14.867   3.442  1.00  0.00    -0.016 A 
HETATM   19  C   UNL     1      42.524 -15.624   4.358  1.00  0.00     0.079 A 
HETATM   20  C   UNL     1      42.554 -15.373   5.753  1.00  0.00    -0.016 A 
HETATM   21  C   UNL     1      41.826 -14.255   6.212  1.00  0.00     0.026 A 
BRANCH  18  22
HETATM   22  C   UNL     1      41.696 -15.112   1.909  1.00  0.00    -0.021 C 
HETATM   23  C   UNL     1      42.941 -15.778   1.278  1.00  0.00     0.019 C 
HETATM   24  C   UNL     1      40.511 -16.049   1.545  1.00  0.00     0.019 C 
HETATM   25  C   UNL     1      41.484 -13.753   1.210  1.00  0.00     0.019 C 
ENDBRANCH  18  22
BRANCH  19  26
HETATM   26  O   UNL     1      43.353 -16.589   3.869  1.00  0.00    -0.360 OA
HETATM   27  H   UNL     1      42.793 -17.224   3.388  1.00  0.00     0.217 HD
ENDBRANCH  19  26
BRANCH  20  28
HETATM   28  C   UNL     1      43.396 -16.213   6.752  1.00  0.00    -0.021 C 
HETATM   29  C   UNL     1      43.137 -15.677   8.174  1.00  0.00     0.019 C 
HETATM   30  C   UNL     1      44.919 -16.176   6.468  1.00  0.00     0.019 C 
HETATM   31  C   UNL     1      43.019 -17.718   6.736  1.00  0.00     0.019 C 
ENDBRANCH  20  28
ENDBRANCH  14  16
ENDBRANCH  13  14
ENDBRANCH   1  13
BRANCH   6  32
HETATM   32  C   UNL     1      42.906  -9.070   9.870  1.00  0.00     0.175 C 
BRANCH  32  33
HETATM   33  C   UNL     1      43.070 -10.168  10.948  1.00  0.00     0.256 C 
BRANCH  33  34
HETATM   34  N   UNL     1      42.052 -10.112  12.072  1.00  0.00    -0.066 N 
HETATM   35  H   UNL     1      42.040 -11.010  12.575  1.00  0.00     0.280 HD
HETATM   36  C   UNL     1      42.496  -9.057  13.118  1.00  0.00     0.261 C 
HETATM   37  C   UNL     1      41.473  -8.974  14.251  1.00  0.00     0.195 C 
HETATM   38  O   UNL     1      40.177  -8.663  13.732  1.00  0.00    -0.388 OA
HETATM   39  C   UNL     1      39.706  -9.673  12.840  1.00  0.00     0.195 C 
HETATM   40  C   UNL     1      40.628  -9.797  11.620  1.00  0.00     0.261 C 
ENDBRANCH  33  34
ENDBRANCH  32  33
ENDBRANCH   6  32
TORSDOF 9
ENDMDL
MODEL 3
REMARK VINA RESULT:      -8.5      3.447      9.368
REMARK  9 active torsions:
REMARK  status: ('A' for Active; 'I' for Inactive)
REMARK    1  A    between atoms: C_2  and  C_3 
REMARK    2  A    between atoms: C_4  and  O_5 
REMARK    3  A    between atoms: C_6  and  C_7 
REMARK    4  A    between atoms: C_12  and  C_13 
REMARK    5  A    between atoms: C_13  and  C_14 
REMARK    6  A    between atoms: C_14  and  N_15 
REMARK    7  A    between atoms: N_20  and  C_21 
REMARK    8  A    between atoms: C_21  and  C_22 
REMARK    9  A    between atoms: C_22  and  N_23 
ROOT
HETATM    1  N   UNL     1      41.691 -15.129   4.649  1.00  0.00    -0.174 N 
HETATM    2  C   UNL     1      40.685 -14.932   3.720  1.00  0.00     0.681 A 
HETATM    3  N   UNL     1      39.805 -13.929   3.770  1.00  0.00    -0.234 N 
HETATM    4  H   UNL     1      39.163 -13.677   3.037  1.00  0.00     0.174 HD
HETATM    5  H   UNL     1      39.683 -13.445   4.667  1.00  0.00     0.174 HD
HETATM    6  N   UNL     1      40.695 -15.886   2.688  1.00  0.00    -0.180 N 
HETATM    7  C   UNL     1      41.834 -16.707   2.984  1.00  0.00     0.079 A 
HETATM    8  C   UNL     1      42.407 -16.272   4.190  1.00  0.00     0.079 A 
HETATM    9  C   UNL     1      42.393 -17.741   2.262  1.00  0.00     0.032 A 
HETATM   10  C   UNL     1      43.516 -18.376   2.805  1.00  0.00     0.002 A 
HETATM   11  C   UNL     1      44.068 -17.957   4.028  1.00  0.00     0.002 A 
HETATM   12  C   UNL     1      43.520 -16.882   4.730  1.00  0.00     0.032 A 
ENDROOT
BRANCH   1  13
HETATM   13  C   UNL     1      42.144 -14.242   5.735  1.00  0.00     0.231 C 
BRANCH  13  14
HETATM   14  C   UNL     1      42.790 -12.950   5.296  1.00  0.00     0.178 C 
HETATM   15  O   UNL     1      43.442 -12.893   4.252  1.00  0.00    -0.290 OA
BRANCH  14  16
HETATM   16  C   UNL     1      42.654 -11.759   6.191  1.00  0.00     0.013 A 
HETATM   17  C   UNL     1      41.436 -11.084   6.323  1.00  0.00     0.026 A 
HETATM   18  C   UNL     1      41.286  -9.969   7.173  1.00  0.00    -0.016 A 
HETATM   19  C   UNL     1      42.425  -9.595   7.921  1.00  0.00     0.079 A 
HETATM   20  C   UNL     1      43.689 -10.225   7.796  1.00  0.00    -0.016 A 
HETATM   21  C   UNL     1      43.764 -11.329   6.922  1.00  0.00     0.026 A 
BRANCH  18  22
HETATM   22  C   UNL     1      39.886  -9.302   7.277  1.00  0.00    -0.021 C 
HETATM   23  C   UNL     1      39.268  -9.244   8.693  1.00  0.00     0.019 C 
HETATM   24  C   UNL     1      39.940  -7.824   6.801  1.00  0.00     0.019 C 
HETATM   25  C   UNL     1      38.912 -10.079   6.368  1.00  0.00     0.019 C 
ENDBRANCH  18  22
BRANCH  19  26
HETATM   26  O   UNL     1      42.284  -8.641   8.884  1.00  0.00    -0.360 OA
HETATM   27  H   UNL     1      42.455  -7.782   8.458  1.00  0.00     0.217 HD
ENDBRANCH  19  26
BRANCH  20  28
HETATM   28  C   UNL     1      44.936  -9.805   8.623  1.00  0.00    -0.021 C 
HETATM   29  C   UNL     1      46.173 -10.501   8.020  1.00  0.00     0.019 C 
HETATM   30  C   UNL     1      44.837 -10.164  10.126  1.00  0.00     0.019 C 
HETATM   31  C   UNL     1      45.188  -8.275   8.588  1.00  0.00     0.019 C 
ENDBRANCH  20  28
ENDBRANCH  14  16
ENDBRANCH  13  14
ENDBRANCH   1  13
BRANCH   6  32
HETATM   32  C   UNL     1      39.932 -15.862   1.431  1.00  0.00     0.175 C 
BRANCH  32  33
HETATM   33  C   UNL     1      40.360 -14.822   0.368  1.00  0.00     0.256 C 
BRANCH  33  34
HETATM   34  N   UNL     1      39.219 -14.032  -0.245  1.00  0.00    -0.066 N 
HETATM   35  H   UNL     1      38.330 -14.301   0.200  1.00  0.00     0.280 HD
HETATM   36  C   UNL     1      39.404 -12.527   0.074  1.00  0.00     0.261 C 
HETATM   37  C   UNL     1      38.273 -11.711  -0.552  1.00  0.00     0.195 C 
HETATM   38  O   UNL     1      38.221 -11.930  -1.965  1.00  0.00    -0.388 OA
HETATM   39  C   UNL     1      37.953 -13.296  -2.281  1.00  0.00     0.195 C 
HETATM   40  C   UNL     1      39.070 -14.207  -1.755  1.00  0.00     0.261 C 
ENDBRANCH  33  34
ENDBRANCH  32  33
ENDBRANCH   6  32
TORSDOF 9
ENDMDL
MODEL 4
REMARK VINA RESULT:      -8.4      3.391      8.976
REMARK  9 active torsions:
REMARK  status: ('A' for Active; 'I' for Inactive)
REMARK    1  A    between atoms: C_2  and  C_3 
REMARK    2  A    between atoms: C_4  and  O_5 
REMARK    3  A    between atoms: C_6  and  C_7 
REMARK    4  A    between atoms: C_12  and  C_13 
REMARK    5  A    between atoms: C_13  and  C_14 
REMARK    6  A    between atoms: C_14  and  N_15 
REMARK    7  A    between atoms: N_20  and  C_21 
REMARK    8  A    between atoms: C_21  and  C_22 
REMARK    9  A    between atoms: C_22  and  N_23 
ROOT
HETATM    1  N   UNL     1      41.786 -15.236   4.705  1.00  0.00    -0.174 N 
HETATM    2  C   UNL     1      40.760 -15.032   3.800  1.00  0.00     0.681 A 
HETATM    3  N   UNL     1      39.877 -14.033   3.881  1.00  0.00    -0.234 N 
HETATM    4  H   UNL     1      39.219 -13.776   3.165  1.00  0.00     0.174 HD
HETATM    5  H   UNL     1      39.771 -13.561   4.786  1.00  0.00     0.174 HD
HETATM    6  N   UNL     1      40.752 -15.972   2.756  1.00  0.00    -0.180 N 
HETATM    7  C   UNL     1      41.901 -16.792   3.018  1.00  0.00     0.079 A 
HETATM    8  C   UNL     1      42.497 -16.370   4.216  1.00  0.00     0.079 A 
HETATM    9  C   UNL     1      42.449 -17.814   2.271  1.00  0.00     0.032 A 
HETATM   10  C   UNL     1      43.585 -18.451   2.782  1.00  0.00     0.002 A 
HETATM   11  C   UNL     1      44.162 -18.044   3.998  1.00  0.00     0.002 A 
HETATM   12  C   UNL     1      43.623 -16.981   4.726  1.00  0.00     0.032 A 
ENDROOT
BRANCH   1  13
HETATM   13  C   UNL     1      42.258 -14.360   5.792  1.00  0.00     0.231 C 
BRANCH  13  14
HETATM   14  C   UNL     1      42.885 -13.059   5.356  1.00  0.00     0.178 C 
HETATM   15  O   UNL     1      43.534 -12.989   4.311  1.00  0.00    -0.290 OA
BRANCH  14  16
HETATM   16  C   UNL     1      42.737 -11.873   6.256  1.00  0.00     0.013 A 
HETATM   17  C   UNL     1      43.815 -11.388   7.003  1.00  0.00     0.026 A 
HETATM   18  C   UNL     1      43.698 -10.263   7.845  1.00  0.00    -0.016 A 
HETATM   19  C   UNL     1      42.439  -9.621   7.859  1.00  0.00     0.079 A 
HETATM   20  C   UNL     1      41.308 -10.093   7.146  1.00  0.00    -0.016 A 
HETATM   21  C   UNL     1      41.500 -11.228   6.332  1.00  0.00     0.026 A 
BRANCH  18  22
HETATM   22  C   UNL     1      44.959  -9.780   8.613  1.00  0.00    -0.021 C 
HETATM   23  C   UNL     1      45.188  -8.251   8.646  1.00  0.00     0.019 C 
HETATM   24  C   UNL     1      44.897 -10.209  10.106  1.00  0.00     0.019 C 
HETATM   25  C   UNL     1      46.199 -10.429   7.965  1.00  0.00     0.019 C 
ENDBRANCH  18  22
BRANCH  19  26
HETATM   26  O   UNL     1      42.325  -8.431   8.514  1.00  0.00    -0.360 OA
HETATM   27  H   UNL     1      42.073  -8.637   9.432  1.00  0.00     0.217 HD
ENDBRANCH  19  26
BRANCH  20  28
HETATM   28  C   UNL     1      39.927  -9.381   7.170  1.00  0.00    -0.021 C 
HETATM   29  C   UNL     1      38.897 -10.299   6.484  1.00  0.00     0.019 C 
HETATM   30  C   UNL     1      39.925  -8.003   6.463  1.00  0.00     0.019 C 
HETATM   31  C   UNL     1      39.426  -9.096   8.610  1.00  0.00     0.019 C 
ENDBRANCH  20  28
ENDBRANCH  14  16
ENDBRANCH  13  14
ENDBRANCH   1  13
BRANCH   6  32
HETATM   32  C   UNL     1      39.962 -15.936   1.516  1.00  0.00     0.175 C 
BRANCH  32  33
HETATM   33  C   UNL     1      40.428 -14.955   0.414  1.00  0.00     0.256 C 
BRANCH  33  34
HETATM   34  N   UNL     1      39.391 -13.931  -0.007  1.00  0.00    -0.066 N 
HETATM   35  H   UNL     1      38.509 -14.101   0.498  1.00  0.00     0.280 HD
HETATM   36  C   UNL     1      39.854 -12.518   0.429  1.00  0.00     0.261 C 
HETATM   37  C   UNL     1      38.828 -11.469  -0.003  1.00  0.00     0.195 C 
HETATM   38  O   UNL     1      38.623 -11.524  -1.417  1.00  0.00    -0.388 OA
HETATM   39  C   UNL     1      38.103 -12.788  -1.830  1.00  0.00     0.195 C 
HETATM   40  C   UNL     1      39.089 -13.916  -1.504  1.00  0.00     0.261 C 
ENDBRANCH  33  34
ENDBRANCH  32  33
ENDBRANCH   6  32
TORSDOF 9
ENDMDL
MODEL 5
REMARK VINA RESULT:      -8.1      3.434      8.513
REMARK  9 active torsions:
REMARK  status: ('A' for Active; 'I' for Inactive)
REMARK    1  A    between atoms: C_2  and  C_3 
REMARK    2  A    between atoms: C_4  and  O_5 
REMARK    3  A    between atoms: C_6  and  C_7 
REMARK    4  A    between atoms: C_12  and  C_13 
REMARK    5  A    between atoms: C_13  and  C_14 
REMARK    6  A    between atoms: C_14  and  N_15 
REMARK    7  A    between atoms: N_20  and  C_21 
REMARK    8  A    between atoms: C_21  and  C_22 
REMARK    9  A    between atoms: C_22  and  N_23 
ROOT
HETATM    1  N   UNL     1      41.745 -15.668   5.226  1.00  0.00    -0.174 N 
HETATM    2  C   UNL     1      40.823 -15.257   4.280  1.00  0.00     0.681 A 
HETATM    3  N   UNL     1      39.934 -14.281   4.475  1.00  0.00    -0.234 N 
HETATM    4  H   UNL     1      39.357 -13.865   3.763  1.00  0.00     0.174 HD
HETATM    5  H   UNL     1      39.728 -14.007   5.443  1.00  0.00     0.174 HD
HETATM    6  N   UNL     1      40.932 -15.957   3.066  1.00  0.00    -0.180 N 
HETATM    7  C   UNL     1      42.048 -16.837   3.271  1.00  0.00     0.079 A 
HETATM    8  C   UNL     1      42.508 -16.688   4.588  1.00  0.00     0.079 A 
HETATM    9  C   UNL     1      42.676 -17.690   2.388  1.00  0.00     0.032 A 
HETATM   10  C   UNL     1      43.752 -18.443   2.872  1.00  0.00     0.002 A 
HETATM   11  C   UNL     1      44.192 -18.313   4.201  1.00  0.00     0.002 A 
HETATM   12  C   UNL     1      43.574 -17.415   5.075  1.00  0.00     0.032 A 
ENDROOT
BRANCH   1  13
HETATM   13  C   UNL     1      42.093 -15.050   6.518  1.00  0.00     0.231 C 
BRANCH  13  14
HETATM   14  C   UNL     1      43.306 -14.153   6.507  1.00  0.00     0.178 C 
HETATM   15  O   UNL     1      44.437 -14.622   6.361  1.00  0.00    -0.290 OA
BRANCH  14  16
HETATM   16  C   UNL     1      43.098 -12.688   6.726  1.00  0.00     0.013 A 
HETATM   17  C   UNL     1      41.984 -12.026   6.199  1.00  0.00     0.026 A 
HETATM   18  C   UNL     1      41.763 -10.649   6.407  1.00  0.00    -0.016 A 
HETATM   19  C   UNL     1      42.706  -9.980   7.220  1.00  0.00     0.079 A 
HETATM   20  C   UNL     1      43.867 -10.599   7.749  1.00  0.00    -0.016 A 
HETATM   21  C   UNL     1      44.024 -11.977   7.491  1.00  0.00     0.026 A 
BRANCH  18  22
HETATM   22  C   UNL     1      40.483 -10.007   5.806  1.00  0.00    -0.021 C 
HETATM   23  C   UNL     1      39.565 -10.953   4.998  1.00  0.00     0.019 C 
HETATM   24  C   UNL     1      39.575  -9.426   6.926  1.00  0.00     0.019 C 
HETATM   25  C   UNL     1      40.912  -8.856   4.872  1.00  0.00     0.019 C 
ENDBRANCH  18  22
BRANCH  19  26
HETATM   26  O   UNL     1      42.443  -8.697   7.597  1.00  0.00    -0.360 OA
HETATM   27  H   UNL     1      42.001  -8.266   6.844  1.00  0.00     0.217 HD
ENDBRANCH  19  26
BRANCH  20  28
HETATM   28  C   UNL     1      44.899  -9.854   8.640  1.00  0.00    -0.021 C 
HETATM   29  C   UNL     1      44.619 -10.217  10.112  1.00  0.00     0.019 C 
HETATM   30  C   UNL     1      44.860  -8.314   8.483  1.00  0.00     0.019 C 
HETATM   31  C   UNL     1      46.364 -10.256   8.322  1.00  0.00     0.019 C 
ENDBRANCH  20  28
ENDBRANCH  14  16
ENDBRANCH  13  14
ENDBRANCH   1  13
BRANCH   6  32
HETATM   32  C   UNL     1      40.282 -15.646   1.785  1.00  0.00     0.175 C 
BRANCH  32  33
HETATM   33  C   UNL     1      41.028 -14.678   0.835  1.00  0.00     0.256 C 
BRANCH  33  34
HETATM   34  N   UNL     1      40.999 -13.222   1.258  1.00  0.00    -0.066 N 
HETATM   35  H   UNL     1      40.216 -13.064   1.909  1.00  0.00     0.280 HD
HETATM   36  C   UNL     1      42.281 -12.893   2.064  1.00  0.00     0.261 C 
HETATM   37  C   UNL     1      42.278 -11.422   2.484  1.00  0.00     0.195 C 
HETATM   38  O   UNL     1      42.166 -10.575   1.337  1.00  0.00    -0.388 OA
HETATM   39  C   UNL     1      40.943 -10.794   0.634  1.00  0.00     0.195 C 
HETATM   40  C   UNL     1      40.868 -12.231   0.103  1.00  0.00     0.261 C 
ENDBRANCH  33  34
ENDBRANCH  32  33
ENDBRANCH   6  32
TORSDOF 9
ENDMDL
MODEL 6
REMARK VINA RESULT:      -8.0      3.771      8.759
REMARK  9 active torsions:
REMARK  status: ('A' for Active; 'I' for Inactive)
REMARK    1  A    between atoms: C_2  and  C_3 
REMARK    2  A    between atoms: C_4  and  O_5 
REMARK    3  A    between atoms: C_6  and  C_7 
REMARK    4  A    between atoms: C_12  and  C_13 
REMARK    5  A    between atoms: C_13  and  C_14 
REMARK    6  A    between atoms: C_14  and  N_15 
REMARK    7  A    between atoms: N_20  and  C_21 
REMARK    8  A    between atoms: C_21  and  C_22 
REMARK    9  A    between atoms: C_22  and  N_23 
ROOT
HETATM    1  N   UNL     1      40.587 -13.385   2.704  1.00  0.00    -0.174 N 
HETATM    2  C   UNL     1      41.145 -14.396   1.942  1.00  0.00     0.681 A 
HETATM    3  N   UNL     1      41.468 -14.270   0.652  1.00  0.00    -0.234 N 
HETATM    4  H   UNL     1      42.005 -14.932   0.117  1.00  0.00     0.174 HD
HETATM    5  H   UNL     1      41.041 -13.500   0.125  1.00  0.00     0.174 HD
HETATM    6  N   UNL     1      41.367 -15.577   2.670  1.00  0.00    -0.180 N 
HETATM    7  C   UNL     1      40.956 -15.244   4.005  1.00  0.00     0.079 A 
HETATM    8  C   UNL     1      40.449 -13.936   4.011  1.00  0.00     0.079 A 
HETATM    9  C   UNL     1      41.040 -15.982   5.167  1.00  0.00     0.032 A 
HETATM   10  C   UNL     1      40.548 -15.398   6.341  1.00  0.00     0.002 A 
HETATM   11  C   UNL     1      40.013 -14.098   6.337  1.00  0.00     0.002 A 
HETATM   12  C   UNL     1      39.971 -13.344   5.162  1.00  0.00     0.032 A 
ENDROOT
BRANCH   1  13
HETATM   13  C   UNL     1      40.408 -11.960   2.375  1.00  0.00     0.231 C 
BRANCH  13  14
HETATM   14  C   UNL     1      41.588 -11.068   2.672  1.00  0.00     0.178 C 
HETATM   15  O   UNL     1      42.345 -10.701   1.771  1.00  0.00    -0.290 OA
BRANCH  14  16
HETATM   16  C   UNL     1      41.837 -10.686   4.096  1.00  0.00     0.013 A 
HETATM   17  C   UNL     1      40.980  -9.813   4.776  1.00  0.00     0.026 A 
HETATM   18  C   UNL     1      41.191  -9.453   6.122  1.00  0.00    -0.016 A 
HETATM   19  C   UNL     1      42.293 -10.058   6.767  1.00  0.00     0.079 A 
HETATM   20  C   UNL     1      43.209 -10.921   6.113  1.00  0.00    -0.016 A 
HETATM   21  C   UNL     1      42.937 -11.229   4.764  1.00  0.00     0.026 A 
BRANCH  18  22
HETATM   22  C   UNL     1      40.168  -8.500   6.801  1.00  0.00    -0.021 C 
HETATM   23  C   UNL     1      39.473  -9.046   8.069  1.00  0.00     0.019 C 
HETATM   24  C   UNL     1      40.856  -7.182   7.256  1.00  0.00     0.019 C 
HETATM   25  C   UNL     1      39.072  -8.155   5.773  1.00  0.00     0.019 C 
ENDBRANCH  18  22
BRANCH  19  26
HETATM   26  O   UNL     1      42.435  -9.883   8.111  1.00  0.00    -0.360 OA
HETATM   27  H   UNL     1      43.354 -10.120   8.331  1.00  0.00     0.217 HD
ENDBRANCH  19  26
BRANCH  20  28
HETATM   28  C   UNL     1      44.419 -11.580   6.830  1.00  0.00    -0.021 C 
HETATM   29  C   UNL     1      44.148 -13.094   6.945  1.00  0.00     0.019 C 
HETATM   30  C   UNL     1      44.694 -11.008   8.243  1.00  0.00     0.019 C 
HETATM   31  C   UNL     1      45.749 -11.393   6.053  1.00  0.00     0.019 C 
ENDBRANCH  20  28
ENDBRANCH  14  16
ENDBRANCH  13  14
ENDBRANCH   1  13
BRANCH   6  32
HETATM   32  C   UNL     1      42.134 -16.761   2.256  1.00  0.00     0.175 C 
BRANCH  32  33
HETATM   33  C   UNL     1      43.587 -16.874   2.777  1.00  0.00     0.256 C 
BRANCH  33  34
HETATM   34  N   UNL     1      44.054 -18.290   3.058  1.00  0.00    -0.066 N 
HETATM   35  H   UNL     1      45.059 -18.373   2.850  1.00  0.00     0.280 HD
HETATM   36  C   UNL     1      43.918 -18.586   4.573  1.00  0.00     0.261 C 
HETATM   37  C   UNL     1      44.368 -20.017   4.874  1.00  0.00     0.195 C 
HETATM   38  O   UNL     1      43.609 -20.951   4.102  1.00  0.00    -0.388 OA
HETATM   39  C   UNL     1      43.797 -20.758   2.700  1.00  0.00     0.195 C 
HETATM   40  C   UNL     1      43.312 -19.368   2.271  1.00  0.00     0.261 C 
ENDBRANCH  33  34
ENDBRANCH  32  33
ENDBRANCH   6  32
TORSDOF 9
ENDMDL
MODEL 7
REMARK VINA RESULT:      -7.7      2.767      9.272
REMARK  9 active torsions:
REMARK  status: ('A' for Active; 'I' for Inactive)
REMARK    1  A    between atoms: C_2  and  C_3 
REMARK    2  A    between atoms: C_4  and  O_5 
REMARK    3  A    between atoms: C_6  and  C_7 
REMARK    4  A    between atoms: C_12  and  C_13 
REMARK    5  A    between atoms: C_13  and  C_14 
REMARK    6  A    between atoms: C_14  and  N_15 
REMARK    7  A    between atoms: N_20  and  C_21 
REMARK    8  A    between atoms: C_21  and  C_22 
REMARK    9  A    between atoms: C_22  and  N_23 
ROOT
HETATM    1  N   UNL     1      42.068  -9.556   7.494  1.00  0.00    -0.174 N 
HETATM    2  C   UNL     1      41.876 -10.776   6.870  1.00  0.00     0.681 A 
HETATM    3  N   UNL     1      40.705 -11.190   6.379  1.00  0.00    -0.234 N 
HETATM    4  H   UNL     1      40.570 -11.999   5.796  1.00  0.00     0.174 HD
HETATM    5  H   UNL     1      39.855 -10.724   6.714  1.00  0.00     0.174 HD
HETATM    6  N   UNL     1      43.053 -11.537   6.777  1.00  0.00    -0.180 N 
HETATM    7  C   UNL     1      44.062 -10.689   7.348  1.00  0.00     0.079 A 
HETATM    8  C   UNL     1      43.455  -9.513   7.816  1.00  0.00     0.079 A 
HETATM    9  C   UNL     1      45.426 -10.871   7.435  1.00  0.00     0.032 A 
HETATM   10  C   UNL     1      46.174  -9.865   8.058  1.00  0.00     0.002 A 
HETATM   11  C   UNL     1      45.558  -8.702   8.553  1.00  0.00     0.002 A 
HETATM   12  C   UNL     1      44.181  -8.510   8.422  1.00  0.00     0.032 A 
ENDROOT
BRANCH   1  13
HETATM   13  C   UNL     1      41.153  -8.405   7.591  1.00  0.00     0.231 C 
BRANCH  13  14
HETATM   14  C   UNL     1      40.020  -8.553   8.577  1.00  0.00     0.178 C 
HETATM   15  O   UNL     1      38.990  -9.157   8.270  1.00  0.00    -0.290 OA
BRANCH  14  16
HETATM   16  C   UNL     1      40.166  -7.903   9.916  1.00  0.00     0.013 A 
HETATM   17  C   UNL     1      41.150  -8.316  10.821  1.00  0.00     0.026 A 
HETATM   18  C   UNL     1      41.312  -7.706  12.081  1.00  0.00    -0.016 A 
HETATM   19  C   UNL     1      40.454  -6.620  12.367  1.00  0.00     0.079 A 
HETATM   20  C   UNL     1      39.420  -6.187  11.498  1.00  0.00    -0.016 A 
HETATM   21  C   UNL     1      39.314  -6.850  10.258  1.00  0.00     0.026 A 
BRANCH  18  22
HETATM   22  C   UNL     1      42.452  -8.214  13.007  1.00  0.00    -0.021 C 
HETATM   23  C   UNL     1      43.322  -7.122  13.672  1.00  0.00     0.019 C 
HETATM   24  C   UNL     1      41.879  -9.046  14.188  1.00  0.00     0.019 C 
HETATM   25  C   UNL     1      43.385  -9.117  12.175  1.00  0.00     0.019 C 
ENDBRANCH  18  22
BRANCH  19  26
HETATM   26  O   UNL     1      40.687  -5.886  13.491  1.00  0.00    -0.360 OA
HETATM   27  H   UNL     1      41.631  -5.992  13.706  1.00  0.00     0.217 HD
ENDBRANCH  19  26
BRANCH  20  28
HETATM   28  C   UNL     1      38.480  -4.993  11.821  1.00  0.00    -0.021 C 
HETATM   29  C   UNL     1      37.775  -4.566  10.518  1.00  0.00     0.019 C 
HETATM   30  C   UNL     1      39.213  -3.768  12.423  1.00  0.00     0.019 C 
HETATM   31  C   UNL     1      37.385  -5.358  12.857  1.00  0.00     0.019 C 
ENDBRANCH  20  28
ENDBRANCH  14  16
ENDBRANCH  13  14
ENDBRANCH   1  13
BRANCH   6  32
HETATM   32  C   UNL     1      43.275 -12.762   5.995  1.00  0.00     0.175 C 
BRANCH  32  33
HETATM   33  C   UNL     1      43.524 -14.067   6.788  1.00  0.00     0.256 C 
BRANCH  33  34
HETATM   34  N   UNL     1      43.206 -15.343   6.032  1.00  0.00    -0.066 N 
HETATM   35  H   UNL     1      42.323 -15.743   6.379  1.00  0.00     0.280 HD
HETATM   36  C   UNL     1      42.951 -15.008   4.540  1.00  0.00     0.261 C 
HETATM   37  C   UNL     1      42.646 -16.285   3.756  1.00  0.00     0.195 C 
HETATM   38  O   UNL     1      43.718 -17.222   3.892  1.00  0.00    -0.388 OA
HETATM   39  C   UNL     1      43.906 -17.620   5.250  1.00  0.00     0.195 C 
HETATM   40  C   UNL     1      44.287 -16.418   6.123  1.00  0.00     0.261 C 
ENDBRANCH  33  34
ENDBRANCH  32  33
ENDBRANCH   6  32
TORSDOF 9
ENDMDL
MODEL 8
REMARK VINA RESULT:      -7.7      2.764      9.600
REMARK  9 active torsions:
REMARK  status: ('A' for Active; 'I' for Inactive)
REMARK    1  A    between atoms: C_2  and  C_3 
REMARK    2  A    between atoms: C_4  and  O_5 
REMARK    3  A    between atoms: C_6  and  C_7 
REMARK    4  A    between atoms: C_12  and  C_13 
REMARK    5  A    between atoms: C_13  and  C_14 
REMARK    6  A    between atoms: C_14  and  N_15 
REMARK    7  A    between atoms: N_20  and  C_21 
REMARK    8  A    between atoms: C_21  and  C_22 
REMARK    9  A    between atoms: C_22  and  N_23 
ROOT
HETATM    1  N   UNL     1      42.011  -9.338   7.440  1.00  0.00    -0.174 N 
HETATM    2  C   UNL     1      41.737 -10.453   6.668  1.00  0.00     0.681 A 
HETATM    3  N   UNL     1      40.551 -10.702   6.107  1.00  0.00    -0.234 N 
HETATM    4  H   UNL     1      40.366 -11.420   5.426  1.00  0.00     0.174 HD
HETATM    5  H   UNL     1      39.732 -10.207   6.479  1.00  0.00     0.174 HD
HETATM    6  N   UNL     1      42.849 -11.296   6.505  1.00  0.00    -0.180 N 
HETATM    7  C   UNL     1      43.907 -10.614   7.196  1.00  0.00     0.079 A 
HETATM    8  C   UNL     1      43.387  -9.455   7.792  1.00  0.00     0.079 A 
HETATM    9  C   UNL     1      45.248 -10.923   7.287  1.00  0.00     0.032 A 
HETATM   10  C   UNL     1      46.058 -10.068   8.044  1.00  0.00     0.002 A 
HETATM   11  C   UNL     1      45.527  -8.924   8.665  1.00  0.00     0.002 A 
HETATM   12  C   UNL     1      44.175  -8.599   8.532  1.00  0.00     0.032 A 
ENDROOT
BRANCH   1  13
HETATM   13  C   UNL     1      41.193  -8.132   7.660  1.00  0.00     0.231 C 
BRANCH  13  14
HETATM   14  C   UNL     1      40.060  -8.282   8.645  1.00  0.00     0.178 C 
HETATM   15  O   UNL     1      39.024  -8.872   8.331  1.00  0.00    -0.290 OA
BRANCH  14  16
HETATM   16  C   UNL     1      40.214  -7.651   9.992  1.00  0.00     0.013 A 
HETATM   17  C   UNL     1      39.349  -6.639  10.424  1.00  0.00     0.026 A 
HETATM   18  C   UNL     1      39.470  -6.043  11.696  1.00  0.00    -0.016 A 
HETATM   19  C   UNL     1      40.487  -6.555  12.533  1.00  0.00     0.079 A 
HETATM   20  C   UNL     1      41.408  -7.555  12.129  1.00  0.00    -0.016 A 
HETATM   21  C   UNL     1      41.229  -8.099  10.840  1.00  0.00     0.026 A 
BRANCH  18  22
HETATM   22  C   UNL     1      38.445  -4.947  12.099  1.00  0.00    -0.021 C 
HETATM   23  C   UNL     1      39.027  -3.705  12.813  1.00  0.00     0.019 C 
HETATM   24  C   UNL     1      37.714  -4.385  10.848  1.00  0.00     0.019 C 
HETATM   25  C   UNL     1      37.400  -5.584  13.037  1.00  0.00     0.019 C 
ENDBRANCH  18  22
BRANCH  19  26
HETATM   26  O   UNL     1      40.530  -6.139  13.830  1.00  0.00    -0.360 OA
HETATM   27  H   UNL     1      41.419  -5.769  13.978  1.00  0.00     0.217 HD
ENDBRANCH  19  26
BRANCH  20  28
HETATM   28  C   UNL     1      42.524  -8.111  13.057  1.00  0.00    -0.021 C 
HETATM   29  C   UNL     1      43.551  -8.859  12.184  1.00  0.00     0.019 C 
HETATM   30  C   UNL     1      42.001  -9.070  14.155  1.00  0.00     0.019 C 
HETATM   31  C   UNL     1      43.277  -6.991  13.823  1.00  0.00     0.019 C 
ENDBRANCH  20  28
ENDBRANCH  14  16
ENDBRANCH  13  14
ENDBRANCH   1  13
BRANCH   6  32
HETATM   32  C   UNL     1      42.991 -12.433   5.583  1.00  0.00     0.175 C 
BRANCH  32  33
HETATM   33  C   UNL     1      42.776 -13.847   6.173  1.00  0.00     0.256 C 
BRANCH  33  34
HETATM   34  N   UNL     1      43.278 -14.983   5.302  1.00  0.00    -0.066 N 
HETATM   35  H   UNL     1      44.017 -14.640   4.674  1.00  0.00     0.280 HD
HETATM   36  C   UNL     1      43.954 -16.056   6.193  1.00  0.00     0.261 C 
HETATM   37  C   UNL     1      44.451 -17.219   5.333  1.00  0.00     0.195 C 
HETATM   38  O   UNL     1      43.371 -17.786   4.587  1.00  0.00    -0.388 OA
HETATM   39  C   UNL     1      42.795 -16.839   3.686  1.00  0.00     0.195 C 
HETATM   40  C   UNL     1      42.199 -15.651   4.451  1.00  0.00     0.261 C 
ENDBRANCH  33  34
ENDBRANCH  32  33
ENDBRANCH   6  32
TORSDOF 9
ENDMDL
MODEL 9
REMARK VINA RESULT:      -7.1     18.606     22.481
REMARK  9 active torsions:
REMARK  status: ('A' for Active; 'I' for Inactive)
REMARK    1  A    between atoms: C_2  and  C_3 
REMARK    2  A    between atoms: C_4  and  O_5 
REMARK    3  A    between atoms: C_6  and  C_7 
REMARK    4  A    between atoms: C_12  and  C_13 
REMARK    5  A    between atoms: C_13  and  C_14 
REMARK    6  A    between atoms: C_14  and  N_15 
REMARK    7  A    between atoms: N_20  and  C_21 
REMARK    8  A    between atoms: C_21  and  C_22 
REMARK    9  A    between atoms: C_22  and  N_23 
ROOT
HETATM    1  N   UNL     1      45.141 -29.275  -1.511  1.00  0.00    -0.174 N 
HETATM    2  C   UNL     1      44.990 -29.033  -2.865  1.00  0.00     0.681 A 
HETATM    3  N   UNL     1      45.356 -27.899  -3.469  1.00  0.00    -0.234 N 
HETATM    4  H   UNL     1      45.394 -27.753  -4.464  1.00  0.00     0.174 HD
HETATM    5  H   UNL     1      45.498 -27.069  -2.882  1.00  0.00     0.174 HD
HETATM    6  N   UNL     1      44.430 -30.118  -3.560  1.00  0.00    -0.180 N 
HETATM    7  C   UNL     1      44.272 -31.130  -2.553  1.00  0.00     0.079 A 
HETATM    8  C   UNL     1      44.663 -30.603  -1.313  1.00  0.00     0.079 A 
HETATM    9  C   UNL     1      43.861 -32.441  -2.672  1.00  0.00     0.032 A 
HETATM   10  C   UNL     1      43.795 -33.207  -1.503  1.00  0.00     0.002 A 
HETATM   11  C   UNL     1      44.160 -32.665  -0.257  1.00  0.00     0.002 A 
HETATM   12  C   UNL     1      44.614 -31.349  -0.154  1.00  0.00     0.032 A 
ENDROOT
BRANCH   1  13
HETATM   13  C   UNL     1      45.872 -28.491  -0.500  1.00  0.00     0.231 C 
BRANCH  13  14
HETATM   14  C   UNL     1      47.335 -28.254  -0.790  1.00  0.00     0.178 C 
HETATM   15  O   UNL     1      47.688 -27.367  -1.569  1.00  0.00    -0.290 OA
BRANCH  14  16
HETATM   16  C   UNL     1      48.333 -29.160  -0.143  1.00  0.00     0.013 A 
HETATM   17  C   UNL     1      48.378 -29.317   1.247  1.00  0.00     0.026 A 
HETATM   18  C   UNL     1      49.303 -30.177   1.874  1.00  0.00    -0.016 A 
HETATM   19  C   UNL     1      50.156 -30.910   1.018  1.00  0.00     0.079 A 
HETATM   20  C   UNL     1      50.171 -30.761  -0.393  1.00  0.00    -0.016 A 
HETATM   21  C   UNL     1      49.222 -29.877  -0.947  1.00  0.00     0.026 A 
BRANCH  18  22
HETATM   22  C   UNL     1      49.258 -30.309   3.421  1.00  0.00    -0.021 C 
HETATM   23  C   UNL     1      50.626 -30.452   4.128  1.00  0.00     0.019 C 
HETATM   24  C   UNL     1      48.602 -29.057   4.066  1.00  0.00     0.019 C 
HETATM   25  C   UNL     1      48.411 -31.548   3.777  1.00  0.00     0.019 C 
ENDBRANCH  18  22
BRANCH  19  26
HETATM   26  O   UNL     1      50.941 -31.883   1.561  1.00  0.00    -0.360 OA
HETATM   27  H   UNL     1      50.881 -31.786   2.528  1.00  0.00     0.217 HD
ENDBRANCH  19  26
BRANCH  20  28
HETATM   28  C   UNL     1      51.114 -31.570  -1.325  1.00  0.00    -0.021 C 
HETATM   29  C   UNL     1      50.288 -32.683  -2.001  1.00  0.00     0.019 C 
HETATM   30  C   UNL     1      52.318 -32.211  -0.590  1.00  0.00     0.019 C 
HETATM   31  C   UNL     1      51.741 -30.698  -2.444  1.00  0.00     0.019 C 
ENDBRANCH  20  28
ENDBRANCH  14  16
ENDBRANCH  13  14
ENDBRANCH   1  13
BRANCH   6  32
HETATM   32  C   UNL     1      44.331 -30.304  -5.015  1.00  0.00     0.175 C 
BRANCH  32  33
HETATM   33  C   UNL     1      45.465 -31.103  -5.700  1.00  0.00     0.256 C 
BRANCH  33  34
HETATM   34  N   UNL     1      45.012 -32.007  -6.831  1.00  0.00    -0.066 N 
HETATM   35  H   UNL     1      45.831 -32.442  -7.278  1.00  0.00     0.280 HD
HETATM   36  C   UNL     1      44.183 -33.182  -6.252  1.00  0.00     0.261 C 
HETATM   37  C   UNL     1      43.702 -34.096  -7.379  1.00  0.00     0.195 C 
HETATM   38  O   UNL     1      42.936 -33.353  -8.332  1.00  0.00    -0.388 OA
HETATM   39  C   UNL     1      43.711 -32.326  -8.951  1.00  0.00     0.195 C 
HETATM   40  C   UNL     1      44.193 -31.305  -7.912  1.00  0.00     0.261 C 
ENDBRANCH  33  34
ENDBRANCH  32  33
ENDBRANCH   6  32
TORSDOF 9
ENDMDL
MODEL 10
REMARK VINA RESULT:      -7.1     18.166     20.712
REMARK  9 active torsions:
REMARK  status: ('A' for Active; 'I' for Inactive)
REMARK    1  A    between atoms: C_2  and  C_3 
REMARK    2  A    between atoms: C_4  and  O_5 
REMARK    3  A    between atoms: C_6  and  C_7 
REMARK    4  A    between atoms: C_12  and  C_13 
REMARK    5  A    between atoms: C_13  and  C_14 
REMARK    6  A    between atoms: C_14  and  N_15 
REMARK    7  A    between atoms: N_20  and  C_21 
REMARK    8  A    between atoms: C_21  and  C_22 
REMARK    9  A    between atoms: C_22  and  N_23 
ROOT
HETATM    1  N   UNL     1      46.270 -28.543   0.138  1.00  0.00    -0.174 N 
HETATM    2  C   UNL     1      46.435 -28.682   1.505  1.00  0.00     0.681 A 
HETATM    3  N   UNL     1      45.494 -28.391   2.407  1.00  0.00    -0.234 N 
HETATM    4  H   UNL     1      45.533 -28.619   3.386  1.00  0.00     0.174 HD
HETATM    5  H   UNL     1      44.721 -27.783   2.112  1.00  0.00     0.174 HD
HETATM    6  N   UNL     1      47.696 -29.191   1.858  1.00  0.00    -0.180 N 
HETATM    7  C   UNL     1      48.339 -29.431   0.597  1.00  0.00     0.079 A 
HETATM    8  C   UNL     1      47.491 -29.000  -0.435  1.00  0.00     0.079 A 
HETATM    9  C   UNL     1      49.556 -30.019   0.321  1.00  0.00     0.032 A 
HETATM   10  C   UNL     1      49.937 -30.118  -1.022  1.00  0.00     0.002 A 
HETATM   11  C   UNL     1      49.097 -29.657  -2.052  1.00  0.00     0.002 A 
HETATM   12  C   UNL     1      47.849 -29.101  -1.763  1.00  0.00     0.032 A 
ENDROOT
BRANCH   1  13
HETATM   13  C   UNL     1      45.045 -28.254  -0.628  1.00  0.00     0.231 C 
BRANCH  13  14
HETATM   14  C   UNL     1      43.915 -29.239  -0.447  1.00  0.00     0.178 C 
HETATM   15  O   UNL     1      43.017 -29.027   0.369  1.00  0.00    -0.290 OA
BRANCH  14  16
HETATM   16  C   UNL     1      43.948 -30.499  -1.253  1.00  0.00     0.013 A 
HETATM   17  C   UNL     1      44.262 -30.482  -2.616  1.00  0.00     0.026 A 
HETATM   18  C   UNL     1      44.312 -31.661  -3.388  1.00  0.00    -0.016 A 
HETATM   19  C   UNL     1      44.071 -32.871  -2.699  1.00  0.00     0.079 A 
HETATM   20  C   UNL     1      43.717 -32.937  -1.327  1.00  0.00    -0.016 A 
HETATM   21  C   UNL     1      43.679 -31.716  -0.622  1.00  0.00     0.026 A 
BRANCH  18  22
HETATM   22  C   UNL     1      44.698 -31.546  -4.888  1.00  0.00    -0.021 C 
HETATM   23  C   UNL     1      44.078 -32.603  -5.831  1.00  0.00     0.019 C 
HETATM   24  C   UNL     1      44.253 -30.176  -5.473  1.00  0.00     0.019 C 
HETATM   25  C   UNL     1      46.233 -31.655  -5.003  1.00  0.00     0.019 C 
ENDBRANCH  18  22
BRANCH  19  26
HETATM   26  O   UNL     1      44.283 -34.046  -3.357  1.00  0.00    -0.360 OA
HETATM   27  H   UNL     1      43.636 -34.082  -4.084  1.00  0.00     0.217 HD
ENDBRANCH  19  26
BRANCH  20  28
HETATM   28  C   UNL     1      43.453 -34.273  -0.579  1.00  0.00    -0.021 C 
HETATM   29  C   UNL     1      43.075 -33.944   0.879  1.00  0.00     0.019 C 
HETATM   30  C   UNL     1      44.664 -35.238  -0.581  1.00  0.00     0.019 C 
HETATM   31  C   UNL     1      42.286 -35.086  -1.200  1.00  0.00     0.019 C 
ENDBRANCH  20  28
ENDBRANCH  14  16
ENDBRANCH  13  14
ENDBRANCH   1  13
BRANCH   6  32
HETATM   32  C   UNL     1      48.138 -29.672   3.175  1.00  0.00     0.175 C 
BRANCH  32  33
HETATM   33  C   UNL     1      47.772 -31.128   3.551  1.00  0.00     0.256 C 
BRANCH  33  34
HETATM   34  N   UNL     1      46.501 -31.275   4.366  1.00  0.00    -0.066 N 
HETATM   35  H   UNL     1      46.109 -30.345   4.571  1.00  0.00     0.280 HD
HETATM   36  C   UNL     1      45.425 -32.001   3.520  1.00  0.00     0.261 C 
HETATM   37  C   UNL     1      44.141 -32.175   4.332  1.00  0.00     0.195 C 
HETATM   38  O   UNL     1      44.408 -32.892   5.540  1.00  0.00    -0.388 OA
HETATM   39  C   UNL     1      45.324 -32.192   6.382  1.00  0.00     0.195 C 
HETATM   40  C   UNL     1      46.681 -32.020   5.688  1.00  0.00     0.261 C 
ENDBRANCH  33  34
ENDBRANCH  32  33
ENDBRANCH   6  32
TORSDOF 9
ENDMDL
