MODEL 1
REMARK VINA RESULT:      -8.3      0.000      0.000
REMARK  7 active torsions:
REMARK  status: ('A' for Active; 'I' for Inactive)
REMARK    1  A    between atoms: C_8  and  C_9 
REMARK    2  A    between atoms: C_9  and  N_10 
REMARK    3  A    between atoms: C_9  and  C_14 
REMARK       I    between atoms: C_14  and  N_15 
REMARK    4  A    between atoms: N_15  and  C_16 
REMARK    5  A    between atoms: C_16  and  C_17 
REMARK    6  A    between atoms: C_17  and  C_18 
REMARK    7  A    between atoms: C_17  and  C_24 
ROOT
HETATM    1  C   UNL     1      39.835 -14.227   2.266  1.00  0.00     0.253 C 
HETATM    2  N   UNL     1      40.264 -15.209   3.132  1.00  0.00    -0.358 N 
HETATM    3  O   UNL     1      40.059 -14.246   1.057  1.00  0.00    -0.271 OA
HETATM    4  H   UNL     1      39.847 -15.263   4.056  1.00  0.00     0.162 HD
ENDROOT
BRANCH   2   5
HETATM    5  C   UNL     1      40.955 -16.429   2.692  1.00  0.00     0.141 C 
BRANCH   5   6
HETATM    6  C   UNL     1      42.452 -16.567   3.196  1.00  0.00     0.026 C 
HETATM    7  C   UNL     1      43.308 -15.731   2.192  1.00  0.00     0.027 C 
BRANCH   6   8
HETATM    8  C   UNL     1      42.497 -15.979   4.632  1.00  0.00    -0.044 A 
HETATM    9  C   UNL     1      43.267 -14.827   4.894  1.00  0.00     0.008 A 
HETATM   10  C   UNL     1      43.350 -14.283   6.178  1.00  0.00     0.001 A 
HETATM   11  C   UNL     1      42.662 -14.873   7.232  1.00  0.00     0.000 A 
HETATM   12  C   UNL     1      41.890 -16.006   7.001  1.00  0.00     0.001 A 
HETATM   13  C   UNL     1      41.809 -16.554   5.716  1.00  0.00     0.008 A 
ENDBRANCH   6   8
BRANCH   6  14
HETATM   14  C   UNL     1      43.000 -18.022   3.206  1.00  0.00    -0.044 A 
HETATM   15  C   UNL     1      42.765 -18.884   2.115  1.00  0.00     0.008 A 
HETATM   16  C   UNL     1      43.273 -20.188   2.084  1.00  0.00     0.001 A 
HETATM   17  C   UNL     1      44.051 -20.658   3.134  1.00  0.00     0.000 A 
HETATM   18  C   UNL     1      44.334 -19.819   4.205  1.00  0.00     0.001 A 
HETATM   19  C   UNL     1      43.822 -18.516   4.233  1.00  0.00     0.008 A 
ENDBRANCH   6  14
ENDBRANCH   5   6
ENDBRANCH   2   5
BRANCH   1  20
HETATM   20  C   UNL     1      39.259 -12.937   2.894  1.00  0.00     0.311 C 
BRANCH  20  21
HETATM   21  C   UNL     1      40.280 -12.036   3.512  1.00  0.00     0.031 A 
HETATM   22  C   UNL     1      41.156 -11.116   2.946  1.00  0.00     0.035 A 
HETATM   23  C   UNL     1      41.436 -10.672   1.559  1.00  0.00     0.070 C 
HETATM   24  N   UNL     1      41.853 -10.566   3.994  1.00  0.00    -0.282 N 
HETATM   25  H   UNL     1      42.582  -9.857   3.972  1.00  0.00     0.189 HD
HETATM   26  N   UNL     1      41.496 -11.059   5.179  1.00  0.00    -0.179 NA
HETATM   27  C   UNL     1      40.542 -11.949   4.914  1.00  0.00     0.061 A 
HETATM   28  C   UNL     1      39.896 -12.686   6.035  1.00  0.00     0.073 C 
ENDBRANCH  20  21
BRANCH  20  29
HETATM   29  N   UNL     1      38.400 -12.251   1.883  1.00  0.00    -0.062 N 
HETATM   30  H   UNL     1      38.889 -11.451   1.472  1.00  0.00     0.275 HD
HETATM   31  H   UNL     1      38.203 -12.906   1.113  1.00  0.00     0.275 HD
HETATM   32  H   UNL     1      37.516 -11.940   2.298  1.00  0.00     0.275 HD
ENDBRANCH  20  29
ENDBRANCH   1  20
TORSDOF 7
ENDMDL
MODEL 2
REMARK VINA RESULT:      -8.2      1.680      2.352
REMARK  7 active torsions:
REMARK  status: ('A' for Active; 'I' for Inactive)
REMARK    1  A    between atoms: C_8  and  C_9 
REMARK    2  A    between atoms: C_9  and  N_10 
REMARK    3  A    between atoms: C_9  and  C_14 
REMARK       I    between atoms: C_14  and  N_15 
REMARK    4  A    between atoms: N_15  and  C_16 
REMARK    5  A    between atoms: C_16  and  C_17 
REMARK    6  A    between atoms: C_17  and  C_18 
REMARK    7  A    between atoms: C_17  and  C_24 
ROOT
HETATM    1  C   UNL     1      40.317 -14.077   1.432  1.00  0.00     0.253 C 
HETATM    2  N   UNL     1      41.103 -15.160   1.105  1.00  0.00    -0.358 N 
HETATM    3  O   UNL     1      39.546 -14.065   2.390  1.00  0.00    -0.271 OA
HETATM    4  H   UNL     1      41.881 -15.027   0.468  1.00  0.00     0.162 HD
ENDROOT
BRANCH   2   5
HETATM    5  C   UNL     1      41.172 -16.384   1.918  1.00  0.00     0.141 C 
BRANCH   5   6
HETATM    6  C   UNL     1      42.474 -16.519   2.812  1.00  0.00     0.026 C 
HETATM    7  C   UNL     1      43.581 -15.712   2.060  1.00  0.00     0.027 C 
BRANCH   6   8
HETATM    8  C   UNL     1      42.135 -15.898   4.193  1.00  0.00    -0.044 A 
HETATM    9  C   UNL     1      43.041 -15.005   4.801  1.00  0.00     0.008 A 
HETATM   10  C   UNL     1      42.780 -14.443   6.055  1.00  0.00     0.001 A 
HETATM   11  C   UNL     1      41.607 -14.758   6.730  1.00  0.00     0.000 A 
HETATM   12  C   UNL     1      40.694 -15.632   6.150  1.00  0.00     0.001 A 
HETATM   13  C   UNL     1      40.954 -16.197   4.898  1.00  0.00     0.008 A 
ENDBRANCH   6   8
BRANCH   6  14
HETATM   14  C   UNL     1      42.980 -17.977   3.000  1.00  0.00    -0.044 A 
HETATM   15  C   UNL     1      42.776 -18.942   1.993  1.00  0.00     0.008 A 
HETATM   16  C   UNL     1      43.250 -20.254   2.123  1.00  0.00     0.001 A 
HETATM   17  C   UNL     1      43.961 -20.629   3.255  1.00  0.00     0.000 A 
HETATM   18  C   UNL     1      44.214 -19.689   4.247  1.00  0.00     0.001 A 
HETATM   19  C   UNL     1      43.737 -18.379   4.114  1.00  0.00     0.008 A 
ENDBRANCH   6  14
ENDBRANCH   5   6
ENDBRANCH   2   5
BRANCH   1  20
HETATM   20  C   UNL     1      40.237 -12.929   0.401  1.00  0.00     0.311 C 
BRANCH  20  21
HETATM   21  C   UNL     1      40.745 -11.612   0.894  1.00  0.00     0.031 A 
HETATM   22  C   UNL     1      41.739 -11.297   1.815  1.00  0.00     0.035 A 
HETATM   23  C   UNL     1      42.660 -12.098   2.657  1.00  0.00     0.070 C 
HETATM   24  N   UNL     1      41.784  -9.925   1.866  1.00  0.00    -0.282 N 
HETATM   25  H   UNL     1      42.385  -9.328   2.429  1.00  0.00     0.189 HD
HETATM   26  N   UNL     1      40.902  -9.340   1.058  1.00  0.00    -0.179 NA
HETATM   27  C   UNL     1      40.262 -10.340   0.455  1.00  0.00     0.061 A 
HETATM   28  C   UNL     1      39.204 -10.035  -0.547  1.00  0.00     0.073 C 
ENDBRANCH  20  21
BRANCH  20  29
HETATM   29  N   UNL     1      40.888 -13.375  -0.868  1.00  0.00    -0.062 N 
HETATM   30  H   UNL     1      41.879 -13.584  -0.715  1.00  0.00     0.275 HD
HETATM   31  H   UNL     1      40.445 -14.251  -1.179  1.00  0.00     0.275 HD
HETATM   32  H   UNL     1      40.793 -12.667  -1.603  1.00  0.00     0.275 HD
ENDBRANCH  20  29
ENDBRANCH   1  20
TORSDOF 7
ENDMDL
MODEL 3
REMARK VINA RESULT:      -8.2      2.395      3.754
REMARK  7 active torsions:
REMARK  status: ('A' for Active; 'I' for Inactive)
REMARK    1  A    between atoms: C_8  and  C_9 
REMARK    2  A    between atoms: C_9  and  N_10 
REMARK    3  A    between atoms: C_9  and  C_14 
REMARK       I    between atoms: C_14  and  N_15 
REMARK    4  A    between atoms: N_15  and  C_16 
REMARK    5  A    between atoms: C_16  and  C_17 
REMARK    6  A    between atoms: C_17  and  C_18 
REMARK    7  A    between atoms: C_17  and  C_24 
ROOT
HETATM    1  C   UNL     1      40.574 -13.882   1.005  1.00  0.00     0.253 C 
HETATM    2  N   UNL     1      41.244 -15.063   0.770  1.00  0.00    -0.358 N 
HETATM    3  O   UNL     1      39.841 -13.701   1.975  1.00  0.00    -0.271 OA
HETATM    4  H   UNL     1      42.009 -15.069   0.104  1.00  0.00     0.162 HD
ENDROOT
BRANCH   2   5
HETATM    5  C   UNL     1      41.226 -16.201   1.701  1.00  0.00     0.141 C 
BRANCH   5   6
HETATM    6  C   UNL     1      42.491 -16.308   2.651  1.00  0.00     0.026 C 
HETATM    7  C   UNL     1      43.629 -15.529   1.917  1.00  0.00     0.027 C 
BRANCH   6   8
HETATM    8  C   UNL     1      42.098 -15.639   3.995  1.00  0.00    -0.044 A 
HETATM    9  C   UNL     1      40.972 -16.103   4.706  1.00  0.00     0.008 A 
HETATM   10  C   UNL     1      40.574 -15.512   5.908  1.00  0.00     0.001 A 
HETATM   11  C   UNL     1      41.294 -14.444   6.432  1.00  0.00     0.000 A 
HETATM   12  C   UNL     1      42.412 -13.971   5.755  1.00  0.00     0.001 A 
HETATM   13  C   UNL     1      42.810 -14.560   4.550  1.00  0.00     0.008 A 
ENDBRANCH   6   8
BRANCH   6  14
HETATM   14  C   UNL     1      42.984 -17.759   2.909  1.00  0.00    -0.044 A 
HETATM   15  C   UNL     1      42.720 -18.784   1.977  1.00  0.00     0.008 A 
HETATM   16  C   UNL     1      43.180 -20.091   2.170  1.00  0.00     0.001 A 
HETATM   17  C   UNL     1      43.938 -20.406   3.289  1.00  0.00     0.000 A 
HETATM   18  C   UNL     1      44.249 -19.409   4.207  1.00  0.00     0.001 A 
HETATM   19  C   UNL     1      43.786 -18.103   4.012  1.00  0.00     0.008 A 
ENDBRANCH   6  14
ENDBRANCH   5   6
ENDBRANCH   2   5
BRANCH   1  20
HETATM   20  C   UNL     1      40.568 -12.839  -0.136  1.00  0.00     0.311 C 
BRANCH  20  21
HETATM   21  C   UNL     1      39.240 -12.643  -0.794  1.00  0.00     0.031 A 
HETATM   22  C   UNL     1      38.186 -11.783  -0.499  1.00  0.00     0.035 A 
HETATM   23  C   UNL     1      37.949 -10.758   0.546  1.00  0.00     0.070 C 
HETATM   24  N   UNL     1      37.224 -12.029  -1.447  1.00  0.00    -0.282 N 
HETATM   25  H   UNL     1      36.310 -11.594  -1.555  1.00  0.00     0.189 HD
HETATM   26  N   UNL     1      37.574 -12.973  -2.319  1.00  0.00    -0.179 NA
HETATM   27  C   UNL     1      38.792 -13.359  -1.947  1.00  0.00     0.061 A 
HETATM   28  C   UNL     1      39.501 -14.406  -2.732  1.00  0.00     0.073 C 
ENDBRANCH  20  21
BRANCH  20  29
HETATM   29  N   UNL     1      41.170 -11.568   0.370  1.00  0.00    -0.062 N 
HETATM   30  H   UNL     1      40.531 -10.780   0.226  1.00  0.00     0.275 HD
HETATM   31  H   UNL     1      41.317 -11.650   1.386  1.00  0.00     0.275 HD
HETATM   32  H   UNL     1      42.066 -11.375  -0.087  1.00  0.00     0.275 HD
ENDBRANCH  20  29
ENDBRANCH   1  20
TORSDOF 7
ENDMDL
MODEL 4
REMARK VINA RESULT:      -8.2      1.626      4.143
REMARK  7 active torsions:
REMARK  status: ('A' for Active; 'I' for Inactive)
REMARK    1  A    between atoms: C_8  and  C_9 
REMARK    2  A    between atoms: C_9  and  N_10 
REMARK    3  A    between atoms: C_9  and  C_14 
REMARK       I    between atoms: C_14  and  N_15 
REMARK    4  A    between atoms: N_15  and  C_16 
REMARK    5  A    between atoms: C_16  and  C_17 
REMARK    6  A    between atoms: C_17  and  C_18 
REMARK    7  A    between atoms: C_17  and  C_24 
ROOT
HETATM    1  C   UNL     1      39.720 -13.943   1.367  1.00  0.00     0.253 C 
HETATM    2  N   UNL     1      39.602 -14.524   2.610  1.00  0.00    -0.358 N 
HETATM    3  O   UNL     1      40.419 -14.404   0.468  1.00  0.00    -0.271 OA
HETATM    4  H   UNL     1      38.837 -14.240   3.214  1.00  0.00     0.162 HD
ENDROOT
BRANCH   2   5
HETATM    5  C   UNL     1      40.227 -15.807   2.966  1.00  0.00     0.141 C 
BRANCH   5   6
HETATM    6  C   UNL     1      41.370 -15.713   4.060  1.00  0.00     0.026 C 
HETATM    7  C   UNL     1      40.651 -15.923   5.431  1.00  0.00     0.027 C 
BRANCH   6   8
HETATM    8  C   UNL     1      42.380 -16.849   3.750  1.00  0.00    -0.044 A 
HETATM    9  C   UNL     1      42.317 -17.526   2.514  1.00  0.00     0.008 A 
HETATM   10  C   UNL     1      43.195 -18.569   2.208  1.00  0.00     0.001 A 
HETATM   11  C   UNL     1      44.161 -18.961   3.128  1.00  0.00     0.000 A 
HETATM   12  C   UNL     1      44.250 -18.306   4.352  1.00  0.00     0.001 A 
HETATM   13  C   UNL     1      43.370 -17.264   4.660  1.00  0.00     0.008 A 
ENDBRANCH   6   8
BRANCH   6  14
HETATM   14  C   UNL     1      42.111 -14.347   4.104  1.00  0.00    -0.044 A 
HETATM   15  C   UNL     1      42.131 -13.580   5.288  1.00  0.00     0.008 A 
HETATM   16  C   UNL     1      42.818 -12.363   5.364  1.00  0.00     0.001 A 
HETATM   17  C   UNL     1      43.525 -11.890   4.267  1.00  0.00     0.000 A 
HETATM   18  C   UNL     1      43.558 -12.643   3.099  1.00  0.00     0.001 A 
HETATM   19  C   UNL     1      42.868 -13.859   3.025  1.00  0.00     0.008 A 
ENDBRANCH   6  14
ENDBRANCH   5   6
ENDBRANCH   2   5
BRANCH   1  20
HETATM   20  C   UNL     1      39.132 -12.523   1.196  1.00  0.00     0.311 C 
BRANCH  20  21
HETATM   21  C   UNL     1      40.094 -11.413   1.473  1.00  0.00     0.031 A 
HETATM   22  C   UNL     1      40.981 -10.737   0.640  1.00  0.00     0.035 A 
HETATM   23  C   UNL     1      41.332 -10.839  -0.797  1.00  0.00     0.070 C 
HETATM   24  N   UNL     1      41.602  -9.803   1.432  1.00  0.00    -0.282 N 
HETATM   25  H   UNL     1      42.316  -9.124   1.176  1.00  0.00     0.189 HD
HETATM   26  N   UNL     1      41.188  -9.827   2.697  1.00  0.00    -0.179 NA
HETATM   27  C   UNL     1      40.271 -10.791   2.747  1.00  0.00     0.061 A 
HETATM   28  C   UNL     1      39.577 -11.077   4.032  1.00  0.00     0.073 C 
ENDBRANCH  20  21
BRANCH  20  29
HETATM   29  N   UNL     1      38.488 -12.427  -0.149  1.00  0.00    -0.062 N 
HETATM   30  H   UNL     1      39.122 -11.990  -0.825  1.00  0.00     0.275 HD
HETATM   31  H   UNL     1      38.295 -13.378  -0.494  1.00  0.00     0.275 HD
HETATM   32  H   UNL     1      37.612 -11.898  -0.104  1.00  0.00     0.275 HD
ENDBRANCH  20  29
ENDBRANCH   1  20
TORSDOF 7
ENDMDL
MODEL 5
REMARK VINA RESULT:      -8.1      1.542      4.597
REMARK  7 active torsions:
REMARK  status: ('A' for Active; 'I' for Inactive)
REMARK    1  A    between atoms: C_8  and  C_9 
REMARK    2  A    between atoms: C_9  and  N_10 
REMARK    3  A    between atoms: C_9  and  C_14 
REMARK       I    between atoms: C_14  and  N_15 
REMARK    4  A    between atoms: N_15  and  C_16 
REMARK    5  A    between atoms: C_16  and  C_17 
REMARK    6  A    between atoms: C_17  and  C_18 
REMARK    7  A    between atoms: C_17  and  C_24 
ROOT
HETATM    1  C   UNL     1      43.048 -13.198   2.614  1.00  0.00     0.253 C 
HETATM    2  N   UNL     1      42.935 -14.408   1.966  1.00  0.00    -0.358 N 
HETATM    3  O   UNL     1      43.592 -13.064   3.708  1.00  0.00    -0.271 OA
HETATM    4  H   UNL     1      42.701 -14.416   0.978  1.00  0.00     0.162 HD
ENDROOT
BRANCH   2   5
HETATM    5  C   UNL     1      43.532 -15.654   2.469  1.00  0.00     0.141 C 
BRANCH   5   6
HETATM    6  C   UNL     1      42.558 -16.563   3.328  1.00  0.00     0.026 C 
HETATM    7  C   UNL     1      41.141 -16.361   2.702  1.00  0.00     0.027 C 
BRANCH   6   8
HETATM    8  C   UNL     1      43.060 -18.024   3.177  1.00  0.00    -0.044 A 
HETATM    9  C   UNL     1      42.754 -18.753   2.009  1.00  0.00     0.008 A 
HETATM   10  C   UNL     1      43.170 -20.078   1.847  1.00  0.00     0.001 A 
HETATM   11  C   UNL     1      43.904 -20.706   2.846  1.00  0.00     0.000 A 
HETATM   12  C   UNL     1      44.225 -20.008   4.005  1.00  0.00     0.001 A 
HETATM   13  C   UNL     1      43.808 -18.683   4.170  1.00  0.00     0.008 A 
ENDBRANCH   6   8
BRANCH   6  14
HETATM   14  C   UNL     1      42.482 -16.186   4.834  1.00  0.00    -0.044 A 
HETATM   15  C   UNL     1      43.626 -15.725   5.517  1.00  0.00     0.008 A 
HETATM   16  C   UNL     1      43.578 -15.349   6.864  1.00  0.00     0.001 A 
HETATM   17  C   UNL     1      42.378 -15.400   7.560  1.00  0.00     0.000 A 
HETATM   18  C   UNL     1      41.224 -15.812   6.904  1.00  0.00     0.001 A 
HETATM   19  C   UNL     1      41.276 -16.189   5.557  1.00  0.00     0.008 A 
ENDBRANCH   6  14
ENDBRANCH   5   6
ENDBRANCH   2   5
BRANCH   1  20
HETATM   20  C   UNL     1      42.239 -12.014   2.037  1.00  0.00     0.311 C 
BRANCH  20  21
HETATM   21  C   UNL     1      40.777 -12.280   1.871  1.00  0.00     0.031 A 
HETATM   22  C   UNL     1      39.800 -12.648   2.791  1.00  0.00     0.035 A 
HETATM   23  C   UNL     1      39.803 -12.926   4.248  1.00  0.00     0.070 C 
HETATM   24  N   UNL     1      38.629 -12.741   2.079  1.00  0.00    -0.282 N 
HETATM   25  H   UNL     1      37.700 -12.989   2.411  1.00  0.00     0.189 HD
HETATM   26  N   UNL     1      38.778 -12.465   0.785  1.00  0.00    -0.179 NA
HETATM   27  C   UNL     1      40.069 -12.179   0.634  1.00  0.00     0.061 A 
HETATM   28  C   UNL     1      40.583 -11.800  -0.710  1.00  0.00     0.073 C 
ENDBRANCH  20  21
BRANCH  20  29
HETATM   29  N   UNL     1      42.529 -10.792   2.847  1.00  0.00    -0.062 N 
HETATM   30  H   UNL     1      43.481 -10.457   2.673  1.00  0.00     0.275 HD
HETATM   31  H   UNL     1      41.891 -10.039   2.554  1.00  0.00     0.275 HD
HETATM   32  H   UNL     1      42.403 -10.972   3.848  1.00  0.00     0.275 HD
ENDBRANCH  20  29
ENDBRANCH   1  20
TORSDOF 7
ENDMDL
MODEL 6
REMARK VINA RESULT:      -8.1      2.455      3.599
REMARK  7 active torsions:
REMARK  status: ('A' for Active; 'I' for Inactive)
REMARK    1  A    between atoms: C_8  and  C_9 
REMARK    2  A    between atoms: C_9  and  N_10 
REMARK    3  A    between atoms: C_9  and  C_14 
REMARK       I    between atoms: C_14  and  N_15 
REMARK    4  A    between atoms: N_15  and  C_16 
REMARK    5  A    between atoms: C_16  and  C_17 
REMARK    6  A    between atoms: C_17  and  C_18 
REMARK    7  A    between atoms: C_17  and  C_24 
ROOT
HETATM    1  C   UNL     1      39.939 -13.906   1.303  1.00  0.00     0.253 C 
HETATM    2  N   UNL     1      40.987 -14.722   0.939  1.00  0.00    -0.358 N 
HETATM    3  O   UNL     1      39.090 -14.224   2.134  1.00  0.00    -0.271 OA
HETATM    4  H   UNL     1      41.775 -14.317   0.443  1.00  0.00     0.162 HD
ENDROOT
BRANCH   2   5
HETATM    5  C   UNL     1      41.257 -16.022   1.571  1.00  0.00     0.141 C 
BRANCH   5   6
HETATM    6  C   UNL     1      42.488 -16.037   2.570  1.00  0.00     0.026 C 
HETATM    7  C   UNL     1      43.595 -15.179   1.878  1.00  0.00     0.027 C 
BRANCH   6   8
HETATM    8  C   UNL     1      41.996 -15.397   3.895  1.00  0.00    -0.044 A 
HETATM    9  C   UNL     1      42.649 -14.257   4.407  1.00  0.00     0.008 A 
HETATM   10  C   UNL     1      42.249 -13.666   5.610  1.00  0.00     0.001 A 
HETATM   11  C   UNL     1      41.185 -14.198   6.328  1.00  0.00     0.000 A 
HETATM   12  C   UNL     1      40.519 -15.318   5.843  1.00  0.00     0.001 A 
HETATM   13  C   UNL     1      40.920 -15.912   4.641  1.00  0.00     0.008 A 
ENDBRANCH   6   8
BRANCH   6  14
HETATM   14  C   UNL     1      43.073 -17.449   2.853  1.00  0.00    -0.044 A 
HETATM   15  C   UNL     1      43.850 -17.685   4.006  1.00  0.00     0.008 A 
HETATM   16  C   UNL     1      44.363 -18.954   4.301  1.00  0.00     0.001 A 
HETATM   17  C   UNL     1      44.092 -20.028   3.464  1.00  0.00     0.000 A 
HETATM   18  C   UNL     1      43.296 -19.835   2.341  1.00  0.00     0.001 A 
HETATM   19  C   UNL     1      42.787 -18.565   2.047  1.00  0.00     0.008 A 
ENDBRANCH   6  14
ENDBRANCH   5   6
ENDBRANCH   2   5
BRANCH   1  20
HETATM   20  C   UNL     1      39.700 -12.643   0.444  1.00  0.00     0.311 C 
BRANCH  20  21
HETATM   21  C   UNL     1      40.253 -12.719  -0.943  1.00  0.00     0.031 A 
HETATM   22  C   UNL     1      41.148 -11.897  -1.621  1.00  0.00     0.035 A 
HETATM   23  C   UNL     1      41.884 -10.658  -1.271  1.00  0.00     0.070 C 
HETATM   24  N   UNL     1      41.304 -12.457  -2.866  1.00  0.00    -0.282 N 
HETATM   25  H   UNL     1      41.879 -12.136  -3.641  1.00  0.00     0.189 HD
HETATM   26  N   UNL     1      40.584 -13.564  -3.038  1.00  0.00    -0.179 NA
HETATM   27  C   UNL     1      39.941 -13.745  -1.886  1.00  0.00     0.061 A 
HETATM   28  C   UNL     1      39.047 -14.925  -1.724  1.00  0.00     0.073 C 
ENDBRANCH  20  21
BRANCH  20  29
HETATM   29  N   UNL     1      38.247 -12.301   0.483  1.00  0.00    -0.062 N 
HETATM   30  H   UNL     1      37.868 -12.213  -0.465  1.00  0.00     0.275 HD
HETATM   31  H   UNL     1      37.735 -13.071   0.937  1.00  0.00     0.275 HD
HETATM   32  H   UNL     1      38.083 -11.433   1.002  1.00  0.00     0.275 HD
ENDBRANCH  20  29
ENDBRANCH   1  20
TORSDOF 7
ENDMDL
MODEL 7
REMARK VINA RESULT:      -8.0      1.723      4.377
REMARK  7 active torsions:
REMARK  status: ('A' for Active; 'I' for Inactive)
REMARK    1  A    between atoms: C_8  and  C_9 
REMARK    2  A    between atoms: C_9  and  N_10 
REMARK    3  A    between atoms: C_9  and  C_14 
REMARK       I    between atoms: C_14  and  N_15 
REMARK    4  A    between atoms: N_15  and  C_16 
REMARK    5  A    between atoms: C_16  and  C_17 
REMARK    6  A    between atoms: C_17  and  C_18 
REMARK    7  A    between atoms: C_17  and  C_24 
ROOT
HETATM    1  C   UNL     1      39.614 -13.866   1.442  1.00  0.00     0.253 C 
HETATM    2  N   UNL     1      39.694 -14.366   2.723  1.00  0.00    -0.358 N 
HETATM    3  O   UNL     1      40.088 -14.437   0.462  1.00  0.00    -0.271 OA
HETATM    4  H   UNL     1      39.085 -13.982   3.438  1.00  0.00     0.162 HD
ENDROOT
BRANCH   2   5
HETATM    5  C   UNL     1      40.273 -15.679   3.044  1.00  0.00     0.141 C 
BRANCH   5   6
HETATM    6  C   UNL     1      41.437 -15.650   4.120  1.00  0.00     0.026 C 
HETATM    7  C   UNL     1      40.734 -15.862   5.499  1.00  0.00     0.027 C 
BRANCH   6   8
HETATM    8  C   UNL     1      42.399 -16.817   3.769  1.00  0.00    -0.044 A 
HETATM    9  C   UNL     1      43.390 -17.209   4.692  1.00  0.00     0.008 A 
HETATM   10  C   UNL     1      44.289 -18.240   4.403  1.00  0.00     0.001 A 
HETATM   11  C   UNL     1      44.217 -18.907   3.185  1.00  0.00     0.000 A 
HETATM   12  C   UNL     1      43.245 -18.544   2.259  1.00  0.00     0.001 A 
HETATM   13  C   UNL     1      42.347 -17.511   2.546  1.00  0.00     0.008 A 
ENDBRANCH   6   8
BRANCH   6  14
HETATM   14  C   UNL     1      42.230 -14.315   4.179  1.00  0.00    -0.044 A 
HETATM   15  C   UNL     1      42.924 -13.842   3.046  1.00  0.00     0.008 A 
HETATM   16  C   UNL     1      43.620 -12.627   3.063  1.00  0.00     0.001 A 
HETATM   17  C   UNL     1      43.620 -11.839   4.206  1.00  0.00     0.000 A 
HETATM   18  C   UNL     1      42.911 -12.259   5.326  1.00  0.00     0.001 A 
HETATM   19  C   UNL     1      42.219 -13.475   5.306  1.00  0.00     0.008 A 
ENDBRANCH   6  14
ENDBRANCH   5   6
ENDBRANCH   2   5
BRANCH   1  20
HETATM   20  C   UNL     1      39.117 -12.411   1.284  1.00  0.00     0.311 C 
BRANCH  20  21
HETATM   21  C   UNL     1      40.188 -11.372   1.381  1.00  0.00     0.031 A 
HETATM   22  C   UNL     1      40.586 -10.559   2.438  1.00  0.00     0.035 A 
HETATM   23  C   UNL     1      40.130 -10.386   3.838  1.00  0.00     0.070 C 
HETATM   24  N   UNL     1      41.630  -9.805   1.961  1.00  0.00    -0.282 N 
HETATM   25  H   UNL     1      42.178  -9.096   2.443  1.00  0.00     0.189 HD
HETATM   26  N   UNL     1      41.930 -10.069   0.689  1.00  0.00    -0.179 NA
HETATM   27  C   UNL     1      41.073 -11.016   0.317  1.00  0.00     0.061 A 
HETATM   28  C   UNL     1      41.143 -11.566  -1.064  1.00  0.00     0.073 C 
ENDBRANCH  20  21
BRANCH  20  29
HETATM   29  N   UNL     1      38.308 -12.310   0.032  1.00  0.00    -0.062 N 
HETATM   30  H   UNL     1      37.509 -12.951   0.063  1.00  0.00     0.275 HD
HETATM   31  H   UNL     1      37.923 -11.358  -0.040  1.00  0.00     0.275 HD
HETATM   32  H   UNL     1      38.879 -12.510  -0.795  1.00  0.00     0.275 HD
ENDBRANCH  20  29
ENDBRANCH   1  20
TORSDOF 7
ENDMDL
MODEL 8
REMARK VINA RESULT:      -8.0      2.377      5.092
REMARK  7 active torsions:
REMARK  status: ('A' for Active; 'I' for Inactive)
REMARK    1  A    between atoms: C_8  and  C_9 
REMARK    2  A    between atoms: C_9  and  N_10 
REMARK    3  A    between atoms: C_9  and  C_14 
REMARK       I    between atoms: C_14  and  N_15 
REMARK    4  A    between atoms: N_15  and  C_16 
REMARK    5  A    between atoms: C_16  and  C_17 
REMARK    6  A    between atoms: C_17  and  C_18 
REMARK    7  A    between atoms: C_17  and  C_24 
ROOT
HETATM    1  C   UNL     1      41.661 -13.085   1.418  1.00  0.00     0.253 C 
HETATM    2  N   UNL     1      41.806 -14.454   1.355  1.00  0.00    -0.358 N 
HETATM    3  O   UNL     1      42.306 -12.371   2.184  1.00  0.00    -0.271 OA
HETATM    4  H   UNL     1      41.434 -14.949   0.551  1.00  0.00     0.162 HD
ENDROOT
BRANCH   2   5
HETATM    5  C   UNL     1      42.811 -15.197   2.129  1.00  0.00     0.141 C 
BRANCH   5   6
HETATM    6  C   UNL     1      42.225 -16.085   3.304  1.00  0.00     0.026 C 
HETATM    7  C   UNL     1      40.684 -16.144   3.054  1.00  0.00     0.027 C 
BRANCH   6   8
HETATM    8  C   UNL     1      42.890 -17.482   3.183  1.00  0.00    -0.044 A 
HETATM    9  C   UNL     1      42.531 -18.339   2.123  1.00  0.00     0.008 A 
HETATM   10  C   UNL     1      43.091 -19.614   1.994  1.00  0.00     0.001 A 
HETATM   11  C   UNL     1      44.026 -20.062   2.919  1.00  0.00     0.000 A 
HETATM   12  C   UNL     1      44.403 -19.234   3.971  1.00  0.00     0.001 A 
HETATM   13  C   UNL     1      43.841 -17.960   4.104  1.00  0.00     0.008 A 
ENDBRANCH   6   8
BRANCH   6  14
HETATM   14  C   UNL     1      42.464 -15.511   4.729  1.00  0.00    -0.044 A 
HETATM   15  C   UNL     1      41.913 -16.147   5.861  1.00  0.00     0.008 A 
HETATM   16  C   UNL     1      42.139 -15.669   7.157  1.00  0.00     0.001 A 
HETATM   17  C   UNL     1      42.942 -14.555   7.360  1.00  0.00     0.000 A 
HETATM   18  C   UNL     1      43.533 -13.931   6.267  1.00  0.00     0.001 A 
HETATM   19  C   UNL     1      43.303 -14.410   4.972  1.00  0.00     0.008 A 
ENDBRANCH   6  14
ENDBRANCH   5   6
ENDBRANCH   2   5
BRANCH   1  20
HETATM   20  C   UNL     1      40.463 -12.469   0.660  1.00  0.00     0.311 C 
BRANCH  20  21
HETATM   21  C   UNL     1      40.533 -12.600  -0.827  1.00  0.00     0.031 A 
HETATM   22  C   UNL     1      40.076 -13.597  -1.684  1.00  0.00     0.035 A 
HETATM   23  C   UNL     1      39.371 -14.887  -1.488  1.00  0.00     0.070 C 
HETATM   24  N   UNL     1      40.404 -13.183  -2.952  1.00  0.00    -0.282 N 
HETATM   25  H   UNL     1      40.234 -13.651  -3.839  1.00  0.00     0.189 HD
HETATM   26  N   UNL     1      41.033 -12.008  -2.975  1.00  0.00    -0.179 NA
HETATM   27  C   UNL     1      41.120 -11.634  -1.701  1.00  0.00     0.061 A 
HETATM   28  C   UNL     1      41.760 -10.333  -1.362  1.00  0.00     0.073 C 
ENDBRANCH  20  21
BRANCH  20  29
HETATM   29  N   UNL     1      39.196 -13.007   1.242  1.00  0.00    -0.062 N 
HETATM   30  H   UNL     1      38.404 -12.825   0.619  1.00  0.00     0.275 HD
HETATM   31  H   UNL     1      39.277 -14.029   1.329  1.00  0.00     0.275 HD
HETATM   32  H   UNL     1      39.011 -12.602   2.165  1.00  0.00     0.275 HD
ENDBRANCH  20  29
ENDBRANCH   1  20
TORSDOF 7
ENDMDL
MODEL 9
REMARK VINA RESULT:      -7.9      2.543      3.671
REMARK  7 active torsions:
REMARK  status: ('A' for Active; 'I' for Inactive)
REMARK    1  A    between atoms: C_8  and  C_9 
REMARK    2  A    between atoms: C_9  and  N_10 
REMARK    3  A    between atoms: C_9  and  C_14 
REMARK       I    between atoms: C_14  and  N_15 
REMARK    4  A    between atoms: N_15  and  C_16 
REMARK    5  A    between atoms: C_16  and  C_17 
REMARK    6  A    between atoms: C_17  and  C_18 
REMARK    7  A    between atoms: C_17  and  C_24 
ROOT
HETATM    1  C   UNL     1      40.064 -14.117   0.306  1.00  0.00     0.253 C 
HETATM    2  N   UNL     1      40.416 -14.605   1.545  1.00  0.00    -0.358 N 
HETATM    3  O   UNL     1      40.279 -14.718  -0.744  1.00  0.00    -0.271 OA
HETATM    4  H   UNL     1      40.001 -14.189   2.373  1.00  0.00     0.162 HD
ENDROOT
BRANCH   2   5
HETATM    5  C   UNL     1      41.003 -15.937   1.752  1.00  0.00     0.141 C 
BRANCH   5   6
HETATM    6  C   UNL     1      42.304 -15.960   2.658  1.00  0.00     0.026 C 
HETATM    7  C   UNL     1      43.372 -15.134   1.872  1.00  0.00     0.027 C 
BRANCH   6   8
HETATM    8  C   UNL     1      41.923 -15.291   4.005  1.00  0.00    -0.044 A 
HETATM    9  C   UNL     1      42.655 -14.178   4.466  1.00  0.00     0.008 A 
HETATM   10  C   UNL     1      42.356 -13.563   5.686  1.00  0.00     0.001 A 
HETATM   11  C   UNL     1      41.316 -14.043   6.473  1.00  0.00     0.000 A 
HETATM   12  C   UNL     1      40.574 -15.136   6.039  1.00  0.00     0.001 A 
HETATM   13  C   UNL     1      40.874 -15.754   4.820  1.00  0.00     0.008 A 
ENDBRANCH   6   8
BRANCH   6  14
HETATM   14  C   UNL     1      42.884 -17.378   2.920  1.00  0.00    -0.044 A 
HETATM   15  C   UNL     1      42.689 -18.417   1.987  1.00  0.00     0.008 A 
HETATM   16  C   UNL     1      43.227 -19.694   2.183  1.00  0.00     0.001 A 
HETATM   17  C   UNL     1      43.996 -19.962   3.307  1.00  0.00     0.000 A 
HETATM   18  C   UNL     1      44.240 -18.948   4.226  1.00  0.00     0.001 A 
HETATM   19  C   UNL     1      43.699 -17.672   4.028  1.00  0.00     0.008 A 
ENDBRANCH   6  14
ENDBRANCH   5   6
ENDBRANCH   2   5
BRANCH   1  20
HETATM   20  C   UNL     1      39.599 -12.644   0.237  1.00  0.00     0.311 C 
BRANCH  20  21
HETATM   21  C   UNL     1      39.476 -12.094  -1.148  1.00  0.00     0.031 A 
HETATM   22  C   UNL     1      38.581 -12.380  -2.174  1.00  0.00     0.035 A 
HETATM   23  C   UNL     1      37.437 -13.313  -2.318  1.00  0.00     0.070 C 
HETATM   24  N   UNL     1      38.932 -11.562  -3.219  1.00  0.00    -0.282 N 
HETATM   25  H   UNL     1      38.508 -11.489  -4.141  1.00  0.00     0.189 HD
HETATM   26  N   UNL     1      39.976 -10.780  -2.946  1.00  0.00    -0.179 NA
HETATM   27  C   UNL     1      40.321 -11.081  -1.697  1.00  0.00     0.061 A 
HETATM   28  C   UNL     1      41.459 -10.364  -1.058  1.00  0.00     0.073 C 
ENDBRANCH  20  21
BRANCH  20  29
HETATM   29  N   UNL     1      38.352 -12.494   1.046  1.00  0.00    -0.062 N 
HETATM   30  H   UNL     1      37.619 -12.028   0.503  1.00  0.00     0.275 HD
HETATM   31  H   UNL     1      37.994 -13.430   1.284  1.00  0.00     0.275 HD
HETATM   32  H   UNL     1      38.530 -11.970   1.908  1.00  0.00     0.275 HD
ENDBRANCH  20  29
ENDBRANCH   1  20
TORSDOF 7
ENDMDL
MODEL 10
REMARK VINA RESULT:      -7.9      2.520      5.079
REMARK  7 active torsions:
REMARK  status: ('A' for Active; 'I' for Inactive)
REMARK    1  A    between atoms: C_8  and  C_9 
REMARK    2  A    between atoms: C_9  and  N_10 
REMARK    3  A    between atoms: C_9  and  C_14 
REMARK       I    between atoms: C_14  and  N_15 
REMARK    4  A    between atoms: N_15  and  C_16 
REMARK    5  A    between atoms: C_16  and  C_17 
REMARK    6  A    between atoms: C_17  and  C_18 
REMARK    7  A    between atoms: C_17  and  C_24 
ROOT
HETATM    1  C   UNL     1      41.559 -13.094   1.201  1.00  0.00     0.253 C 
HETATM    2  N   UNL     1      41.782 -14.452   1.146  1.00  0.00    -0.358 N 
HETATM    3  O   UNL     1      42.121 -12.348   2.000  1.00  0.00    -0.271 OA
HETATM    4  H   UNL     1      41.482 -14.966   0.324  1.00  0.00     0.162 HD
ENDROOT
BRANCH   2   5
HETATM    5  C   UNL     1      42.782 -15.142   1.975  1.00  0.00     0.141 C 
BRANCH   5   6
HETATM    6  C   UNL     1      42.185 -15.989   3.175  1.00  0.00     0.026 C 
HETATM    7  C   UNL     1      40.649 -16.073   2.903  1.00  0.00     0.027 C 
BRANCH   6   8
HETATM    8  C   UNL     1      42.865 -17.383   3.120  1.00  0.00    -0.044 A 
HETATM    9  C   UNL     1      42.512 -18.295   2.104  1.00  0.00     0.008 A 
HETATM   10  C   UNL     1      43.086 -19.568   2.035  1.00  0.00     0.001 A 
HETATM   11  C   UNL     1      44.029 -19.960   2.978  1.00  0.00     0.000 A 
HETATM   12  C   UNL     1      44.400 -19.078   3.987  1.00  0.00     0.001 A 
HETATM   13  C   UNL     1      43.825 -17.805   4.059  1.00  0.00     0.008 A 
ENDBRANCH   6   8
BRANCH   6  14
HETATM   14  C   UNL     1      42.395 -15.357   4.580  1.00  0.00    -0.044 A 
HETATM   15  C   UNL     1      41.838 -15.957   5.727  1.00  0.00     0.008 A 
HETATM   16  C   UNL     1      42.038 -15.426   7.007  1.00  0.00     0.001 A 
HETATM   17  C   UNL     1      42.822 -14.293   7.178  1.00  0.00     0.000 A 
HETATM   18  C   UNL     1      43.419 -13.702   6.070  1.00  0.00     0.001 A 
HETATM   19  C   UNL     1      43.214 -14.234   4.792  1.00  0.00     0.008 A 
ENDBRANCH   6  14
ENDBRANCH   5   6
ENDBRANCH   2   5
BRANCH   1  20
HETATM   20  C   UNL     1      40.373 -12.542   0.378  1.00  0.00     0.311 C 
BRANCH  20  21
HETATM   21  C   UNL     1      40.588 -12.541  -1.102  1.00  0.00     0.031 A 
HETATM   22  C   UNL     1      41.186 -11.608  -1.942  1.00  0.00     0.035 A 
HETATM   23  C   UNL     1      41.822 -10.285  -1.732  1.00  0.00     0.070 C 
HETATM   24  N   UNL     1      41.113 -12.139  -3.207  1.00  0.00    -0.282 N 
HETATM   25  H   UNL     1      41.444 -11.744  -4.084  1.00  0.00     0.189 HD
HETATM   26  N   UNL     1      40.518 -13.330  -3.243  1.00  0.00    -0.179 NA
HETATM   27  C   UNL     1      40.193 -13.597  -1.980  1.00  0.00     0.061 A 
HETATM   28  C   UNL     1      39.518 -14.883  -1.654  1.00  0.00     0.073 C 
ENDBRANCH  20  21
BRANCH  20  29
HETATM   29  N   UNL     1      39.126 -13.253   0.794  1.00  0.00    -0.062 N 
HETATM   30  H   UNL     1      38.376 -13.102   0.112  1.00  0.00     0.275 HD
HETATM   31  H   UNL     1      39.310 -14.266   0.813  1.00  0.00     0.275 HD
HETATM   32  H   UNL     1      38.816 -12.947   1.722  1.00  0.00     0.275 HD
ENDBRANCH  20  29
ENDBRANCH   1  20
TORSDOF 7
ENDMDL
