MODEL 1
REMARK VINA RESULT:      -8.8      0.000      0.000
REMARK  3 active torsions:
REMARK  status: ('A' for Active; 'I' for Inactive)
REMARK    1  A    between atoms: C_2  and  O_3 
REMARK    2  A    between atoms: O_3  and  C_4 
REMARK    3  A    between atoms: C_5  and  N_6 
REMARK       I    between atoms: N_6  and  C_7 
REMARK       I    between atoms: C_7  and  N_8 
ROOT
HETATM    1  N   UNL     1      42.540 -11.705   6.569  1.00  0.00    -0.306 N 
HETATM    2  C   UNL     1      42.172 -12.418   5.455  1.00  0.00     0.323 C 
HETATM    3  N   UNL     1      42.700 -13.705   5.371  1.00  0.00    -0.328 N 
HETATM    4  C   UNL     1      42.677 -14.291   4.024  1.00  0.00     0.185 C 
HETATM    5  C   UNL     1      43.017 -15.735   4.068  1.00  0.00     0.035 A 
HETATM    6  C   UNL     1      43.312 -16.490   5.181  1.00  0.00    -0.020 A 
HETATM    7  C   UNL     1      43.301 -15.876   6.530  1.00  0.00     0.061 C 
HETATM    8  C   UNL     1      43.529 -14.354   6.414  1.00  0.00     0.132 C 
HETATM    9  N   UNL     1      43.094 -16.547   2.970  1.00  0.00    -0.357 N 
HETATM   10  H   UNL     1      42.924 -16.264   2.014  1.00  0.00     0.166 HD
HETATM   11  C   UNL     1      43.434 -17.825   3.358  1.00  0.00     0.043 A 
HETATM   12  C   UNL     1      43.571 -17.818   4.749  1.00  0.00    -0.001 A 
HETATM   13  C   UNL     1      43.626 -18.977   2.586  1.00  0.00     0.030 A 
HETATM   14  C   UNL     1      43.960 -20.157   3.255  1.00  0.00     0.002 A 
HETATM   15  C   UNL     1      44.099 -20.182   4.641  1.00  0.00     0.001 A 
HETATM   16  C   UNL     1      43.907 -19.021   5.400  1.00  0.00     0.014 A 
HETATM   17  O   UNL     1      41.461 -11.964   4.559  1.00  0.00    -0.247 OA
HETATM   18  H   UNL     1      43.446 -11.918   6.963  1.00  0.00     0.171 HD
ENDROOT
BRANCH   1  19
HETATM   19  C   UNL     1      42.057 -10.426   6.941  1.00  0.00     0.072 A 
HETATM   20  C   UNL     1      42.970  -9.536   7.551  1.00  0.00     0.096 A 
HETATM   21  C   UNL     1      42.544  -8.255   7.915  1.00  0.00     0.042 A 
HETATM   22  C   UNL     1      41.218  -7.872   7.703  1.00  0.00     0.045 A 
HETATM   23  C   UNL     1      40.325  -8.766   7.129  1.00  0.00     0.118 A 
HETATM   24  C   UNL     1      40.729 -10.038   6.746  1.00  0.00     0.074 A 
HETATM   25  F   UNL     1      39.050  -8.393   6.946  1.00  0.00    -0.206 F 
BRANCH  20  26
HETATM   26  O   UNL     1      44.243 -10.029   7.713  1.00  0.00    -0.344 OA
BRANCH  26  27
HETATM   27  C   UNL     1      45.181  -9.313   8.523  1.00  0.00     0.121 C 
HETATM   28  C   UNL     1      46.563  -9.354   7.875  1.00  0.00     0.040 C 
HETATM   29  C   UNL     1      45.218 -10.017   9.877  1.00  0.00     0.040 C 
ENDBRANCH  26  27
ENDBRANCH  20  26
ENDBRANCH   1  19
TORSDOF 3
ENDMDL
MODEL 2
REMARK VINA RESULT:      -8.7      1.895      3.648
REMARK  3 active torsions:
REMARK  status: ('A' for Active; 'I' for Inactive)
REMARK    1  A    between atoms: C_2  and  O_3 
REMARK    2  A    between atoms: O_3  and  C_4 
REMARK    3  A    between atoms: C_5  and  N_6 
REMARK       I    between atoms: N_6  and  C_7 
REMARK       I    between atoms: C_7  and  N_8 
ROOT
HETATM    1  N   UNL     1      42.458 -12.277   6.206  1.00  0.00    -0.306 N 
HETATM    2  C   UNL     1      43.227 -13.353   6.577  1.00  0.00     0.323 C 
HETATM    3  N   UNL     1      43.063 -14.497   5.799  1.00  0.00    -0.328 N 
HETATM    4  C   UNL     1      43.526 -15.741   6.432  1.00  0.00     0.185 C 
HETATM    5  C   UNL     1      43.549 -16.856   5.453  1.00  0.00     0.035 A 
HETATM    6  C   UNL     1      43.210 -16.804   4.120  1.00  0.00    -0.020 A 
HETATM    7  C   UNL     1      42.772 -15.529   3.504  1.00  0.00     0.061 C 
HETATM    8  C   UNL     1      42.209 -14.589   4.592  1.00  0.00     0.132 C 
HETATM    9  N   UNL     1      43.918 -18.139   5.749  1.00  0.00    -0.357 N 
HETATM   10  H   UNL     1      44.220 -18.472   6.655  1.00  0.00     0.166 HD
HETATM   11  C   UNL     1      43.825 -18.924   4.620  1.00  0.00     0.043 A 
HETATM   12  C   UNL     1      43.387 -18.104   3.575  1.00  0.00    -0.001 A 
HETATM   13  C   UNL     1      44.097 -20.287   4.448  1.00  0.00     0.030 A 
HETATM   14  C   UNL     1      43.923 -20.826   3.171  1.00  0.00     0.002 A 
HETATM   15  C   UNL     1      43.493 -20.033   2.109  1.00  0.00     0.001 A 
HETATM   16  C   UNL     1      43.222 -18.672   2.297  1.00  0.00     0.014 A 
HETATM   17  O   UNL     1      43.984 -13.348   7.547  1.00  0.00    -0.247 OA
HETATM   18  H   UNL     1      41.569 -12.484   5.775  1.00  0.00     0.171 HD
ENDROOT
BRANCH   1  19
HETATM   19  C   UNL     1      42.519 -10.974   6.762  1.00  0.00     0.072 A 
HETATM   20  C   UNL     1      41.317 -10.232   6.814  1.00  0.00     0.096 A 
HETATM   21  C   UNL     1      41.324  -8.950   7.374  1.00  0.00     0.042 A 
HETATM   22  C   UNL     1      42.516  -8.401   7.850  1.00  0.00     0.045 A 
HETATM   23  C   UNL     1      43.694  -9.130   7.767  1.00  0.00     0.118 A 
HETATM   24  C   UNL     1      43.709 -10.411   7.229  1.00  0.00     0.074 A 
HETATM   25  F   UNL     1      44.835  -8.586   8.211  1.00  0.00    -0.206 F 
BRANCH  20  26
HETATM   26  O   UNL     1      40.213 -10.875   6.308  1.00  0.00    -0.344 OA
BRANCH  26  27
HETATM   27  C   UNL     1      39.619 -10.410   5.091  1.00  0.00     0.121 C 
HETATM   28  C   UNL     1      38.253  -9.794   5.383  1.00  0.00     0.040 C 
HETATM   29  C   UNL     1      39.459 -11.630   4.187  1.00  0.00     0.040 C 
ENDBRANCH  26  27
ENDBRANCH  20  26
ENDBRANCH   1  19
TORSDOF 3
ENDMDL
MODEL 3
REMARK VINA RESULT:      -8.7      5.230      8.929
REMARK  3 active torsions:
REMARK  status: ('A' for Active; 'I' for Inactive)
REMARK    1  A    between atoms: C_2  and  O_3 
REMARK    2  A    between atoms: O_3  and  C_4 
REMARK    3  A    between atoms: C_5  and  N_6 
REMARK       I    between atoms: N_6  and  C_7 
REMARK       I    between atoms: C_7  and  N_8 
ROOT
HETATM    1  N   UNL     1      42.391 -15.872   2.522  1.00  0.00    -0.306 N 
HETATM    2  C   UNL     1      41.087 -15.505   2.753  1.00  0.00     0.323 C 
HETATM    3  N   UNL     1      40.650 -14.388   2.046  1.00  0.00    -0.328 N 
HETATM    4  C   UNL     1      39.449 -13.743   2.597  1.00  0.00     0.185 C 
HETATM    5  C   UNL     1      38.911 -12.731   1.655  1.00  0.00     0.035 A 
HETATM    6  C   UNL     1      39.407 -12.396   0.415  1.00  0.00    -0.020 A 
HETATM    7  C   UNL     1      40.605 -13.082  -0.125  1.00  0.00     0.061 C 
HETATM    8  C   UNL     1      41.448 -13.655   1.035  1.00  0.00     0.132 C 
HETATM    9  N   UNL     1      37.811 -11.956   1.896  1.00  0.00    -0.357 N 
HETATM   10  H   UNL     1      37.240 -11.986   2.730  1.00  0.00     0.166 HD
HETATM   11  C   UNL     1      37.584 -11.120   0.824  1.00  0.00     0.043 A 
HETATM   12  C   UNL     1      38.574 -11.383  -0.128  1.00  0.00    -0.001 A 
HETATM   13  C   UNL     1      36.582 -10.162   0.628  1.00  0.00     0.030 A 
HETATM   14  C   UNL     1      36.588  -9.457  -0.578  1.00  0.00     0.002 A 
HETATM   15  C   UNL     1      37.558  -9.700  -1.548  1.00  0.00     0.001 A 
HETATM   16  C   UNL     1      38.555 -10.660  -1.336  1.00  0.00     0.014 A 
HETATM   17  O   UNL     1      40.349 -16.080   3.552  1.00  0.00    -0.247 OA
HETATM   18  H   UNL     1      43.033 -15.131   2.280  1.00  0.00     0.171 HD
ENDROOT
BRANCH   1  19
HETATM   19  C   UNL     1      43.037 -17.027   3.029  1.00  0.00     0.072 A 
HETATM   20  C   UNL     1      43.610 -16.939   4.318  1.00  0.00     0.096 A 
HETATM   21  C   UNL     1      44.239 -18.059   4.869  1.00  0.00     0.042 A 
HETATM   22  C   UNL     1      44.324 -19.246   4.137  1.00  0.00     0.045 A 
HETATM   23  C   UNL     1      43.781 -19.309   2.861  1.00  0.00     0.118 A 
HETATM   24  C   UNL     1      43.138 -18.213   2.299  1.00  0.00     0.074 A 
HETATM   25  F   UNL     1      43.883 -20.447   2.161  1.00  0.00    -0.206 F 
BRANCH  20  26
HETATM   26  O   UNL     1      43.470 -15.719   4.936  1.00  0.00    -0.344 OA
BRANCH  26  27
HETATM   27  C   UNL     1      43.302 -15.661   6.357  1.00  0.00     0.121 C 
HETATM   28  C   UNL     1      41.873 -16.050   6.726  1.00  0.00     0.040 C 
HETATM   29  C   UNL     1      43.574 -14.217   6.771  1.00  0.00     0.040 C 
ENDBRANCH  26  27
ENDBRANCH  20  26
ENDBRANCH   1  19
TORSDOF 3
ENDMDL
MODEL 4
REMARK VINA RESULT:      -8.5      5.214      7.095
REMARK  3 active torsions:
REMARK  status: ('A' for Active; 'I' for Inactive)
REMARK    1  A    between atoms: C_2  and  O_3 
REMARK    2  A    between atoms: O_3  and  C_4 
REMARK    3  A    between atoms: C_5  and  N_6 
REMARK       I    between atoms: N_6  and  C_7 
REMARK       I    between atoms: C_7  and  N_8 
ROOT
HETATM    1  N   UNL     1      38.680 -12.684   0.854  1.00  0.00    -0.306 N 
HETATM    2  C   UNL     1      39.399 -12.746   2.023  1.00  0.00     0.323 C 
HETATM    3  N   UNL     1      40.070 -13.946   2.244  1.00  0.00    -0.328 N 
HETATM    4  C   UNL     1      40.461 -14.182   3.642  1.00  0.00     0.185 C 
HETATM    5  C   UNL     1      41.380 -15.342   3.747  1.00  0.00     0.035 A 
HETATM    6  C   UNL     1      41.854 -16.128   2.721  1.00  0.00    -0.020 A 
HETATM    7  C   UNL     1      41.462 -15.850   1.318  1.00  0.00     0.061 C 
HETATM    8  C   UNL     1      40.125 -15.079   1.292  1.00  0.00     0.132 C 
HETATM    9  N   UNL     1      41.900 -15.815   4.920  1.00  0.00    -0.357 N 
HETATM   10  H   UNL     1      41.727 -15.431   5.839  1.00  0.00     0.166 HD
HETATM   11  C   UNL     1      42.711 -16.901   4.667  1.00  0.00     0.043 A 
HETATM   12  C   UNL     1      42.704 -17.116   3.286  1.00  0.00    -0.001 A 
HETATM   13  C   UNL     1      43.445 -17.700   5.553  1.00  0.00     0.030 A 
HETATM   14  C   UNL     1      44.199 -18.743   5.010  1.00  0.00     0.002 A 
HETATM   15  C   UNL     1      44.216 -18.978   3.637  1.00  0.00     0.001 A 
HETATM   16  C   UNL     1      43.475 -18.173   2.764  1.00  0.00     0.014 A 
HETATM   17  O   UNL     1      39.431 -11.838   2.852  1.00  0.00    -0.247 OA
HETATM   18  H   UNL     1      38.307 -13.556   0.506  1.00  0.00     0.171 HD
ENDROOT
BRANCH   1  19
HETATM   19  C   UNL     1      38.003 -11.546   0.348  1.00  0.00     0.072 A 
HETATM   20  C   UNL     1      38.573 -10.895  -0.770  1.00  0.00     0.096 A 
HETATM   21  C   UNL     1      37.930  -9.781  -1.318  1.00  0.00     0.042 A 
HETATM   22  C   UNL     1      36.750  -9.301  -0.745  1.00  0.00     0.045 A 
HETATM   23  C   UNL     1      36.218  -9.934   0.370  1.00  0.00     0.118 A 
HETATM   24  C   UNL     1      36.831 -11.051   0.923  1.00  0.00     0.074 A 
HETATM   25  F   UNL     1      35.095  -9.454   0.923  1.00  0.00    -0.206 F 
BRANCH  20  26
HETATM   26  O   UNL     1      39.737 -11.455  -1.240  1.00  0.00    -0.344 OA
BRANCH  26  27
HETATM   27  C   UNL     1      39.765 -12.033  -2.550  1.00  0.00     0.121 C 
HETATM   28  C   UNL     1      39.964 -13.543  -2.445  1.00  0.00     0.040 C 
HETATM   29  C   UNL     1      40.946 -11.401  -3.282  1.00  0.00     0.040 C 
ENDBRANCH  26  27
ENDBRANCH  20  26
ENDBRANCH   1  19
TORSDOF 3
ENDMDL
MODEL 5
REMARK VINA RESULT:      -8.4      5.241      8.981
REMARK  3 active torsions:
REMARK  status: ('A' for Active; 'I' for Inactive)
REMARK    1  A    between atoms: C_2  and  O_3 
REMARK    2  A    between atoms: O_3  and  C_4 
REMARK    3  A    between atoms: C_5  and  N_6 
REMARK       I    between atoms: N_6  and  C_7 
REMARK       I    between atoms: C_7  and  N_8 
ROOT
HETATM    1  N   UNL     1      41.804 -16.417   2.677  1.00  0.00    -0.306 N 
HETATM    2  C   UNL     1      42.177 -15.298   1.973  1.00  0.00     0.323 C 
HETATM    3  N   UNL     1      41.163 -14.369   1.754  1.00  0.00    -0.328 N 
HETATM    4  C   UNL     1      41.426 -13.419   0.663  1.00  0.00     0.185 C 
HETATM    5  C   UNL     1      40.427 -12.322   0.663  1.00  0.00     0.035 A 
HETATM    6  C   UNL     1      39.380 -12.146   1.539  1.00  0.00    -0.020 A 
HETATM    7  C   UNL     1      39.156 -13.106   2.646  1.00  0.00     0.061 C 
HETATM    8  C   UNL     1      39.786 -14.470   2.290  1.00  0.00     0.132 C 
HETATM    9  N   UNL     1      40.401 -11.298  -0.242  1.00  0.00    -0.357 N 
HETATM   10  H   UNL     1      41.054 -11.167  -1.003  1.00  0.00     0.166 HD
HETATM   11  C   UNL     1      39.348 -10.454   0.037  1.00  0.00     0.043 A 
HETATM   12  C   UNL     1      38.691 -10.963   1.161  1.00  0.00    -0.001 A 
HETATM   13  C   UNL     1      38.934  -9.286  -0.616  1.00  0.00     0.030 A 
HETATM   14  C   UNL     1      37.822  -8.616  -0.101  1.00  0.00     0.002 A 
HETATM   15  C   UNL     1      37.150  -9.096   1.021  1.00  0.00     0.001 A 
HETATM   16  C   UNL     1      37.573 -10.266   1.662  1.00  0.00     0.014 A 
HETATM   17  O   UNL     1      43.308 -15.123   1.521  1.00  0.00    -0.247 OA
HETATM   18  H   UNL     1      40.844 -16.715   2.578  1.00  0.00     0.171 HD
ENDROOT
BRANCH   1  19
HETATM   19  C   UNL     1      42.666 -17.451   3.122  1.00  0.00     0.072 A 
HETATM   20  C   UNL     1      43.155 -17.367   4.445  1.00  0.00     0.096 A 
HETATM   21  C   UNL     1      43.991 -18.375   4.936  1.00  0.00     0.042 A 
HETATM   22  C   UNL     1      44.360 -19.440   4.112  1.00  0.00     0.045 A 
HETATM   23  C   UNL     1      43.895 -19.495   2.805  1.00  0.00     0.118 A 
HETATM   24  C   UNL     1      43.052 -18.513   2.301  1.00  0.00     0.074 A 
HETATM   25  F   UNL     1      44.270 -20.513   2.018  1.00  0.00    -0.206 F 
BRANCH  20  26
HETATM   26  O   UNL     1      42.728 -16.270   5.155  1.00  0.00    -0.344 OA
BRANCH  26  27
HETATM   27  C   UNL     1      42.030 -16.455   6.392  1.00  0.00     0.121 C 
HETATM   28  C   UNL     1      40.622 -15.875   6.284  1.00  0.00     0.040 C 
HETATM   29  C   UNL     1      42.824 -15.704   7.459  1.00  0.00     0.040 C 
ENDBRANCH  26  27
ENDBRANCH  20  26
ENDBRANCH   1  19
TORSDOF 3
ENDMDL
MODEL 6
REMARK VINA RESULT:      -8.4      4.965      7.155
REMARK  3 active torsions:
REMARK  status: ('A' for Active; 'I' for Inactive)
REMARK    1  A    between atoms: C_2  and  O_3 
REMARK    2  A    between atoms: O_3  and  C_4 
REMARK    3  A    between atoms: C_5  and  N_6 
REMARK       I    between atoms: N_6  and  C_7 
REMARK       I    between atoms: C_7  and  N_8 
ROOT
HETATM    1  N   UNL     1      41.082 -12.451   0.367  1.00  0.00    -0.306 N 
HETATM    2  C   UNL     1      41.428 -12.610   1.687  1.00  0.00     0.323 C 
HETATM    3  N   UNL     1      41.755 -13.911   2.062  1.00  0.00    -0.328 N 
HETATM    4  C   UNL     1      41.696 -14.166   3.509  1.00  0.00     0.185 C 
HETATM    5  C   UNL     1      42.295 -15.482   3.841  1.00  0.00     0.035 A 
HETATM    6  C   UNL     1      42.859 -16.386   2.970  1.00  0.00    -0.020 A 
HETATM    7  C   UNL     1      42.928 -16.090   1.519  1.00  0.00     0.061 C 
HETATM    8  C   UNL     1      41.834 -15.068   1.141  1.00  0.00     0.132 C 
HETATM    9  N   UNL     1      42.370 -16.003   5.103  1.00  0.00    -0.357 N 
HETATM   10  H   UNL     1      42.036 -15.556   5.946  1.00  0.00     0.166 HD
HETATM   11  C   UNL     1      42.979 -17.238   5.062  1.00  0.00     0.043 A 
HETATM   12  C   UNL     1      43.304 -17.502   3.728  1.00  0.00    -0.001 A 
HETATM   13  C   UNL     1      43.267 -18.133   6.100  1.00  0.00     0.030 A 
HETATM   14  C   UNL     1      43.911 -19.327   5.767  1.00  0.00     0.002 A 
HETATM   15  C   UNL     1      44.252 -19.615   4.447  1.00  0.00     0.001 A 
HETATM   16  C   UNL     1      43.955 -18.712   3.419  1.00  0.00     0.014 A 
HETATM   17  O   UNL     1      41.420 -11.695   2.509  1.00  0.00    -0.247 OA
HETATM   18  H   UNL     1      40.648 -13.243  -0.085  1.00  0.00     0.171 HD
ENDROOT
BRANCH   1  19
HETATM   19  C   UNL     1      40.815 -11.221  -0.285  1.00  0.00     0.072 A 
HETATM   20  C   UNL     1      39.624 -11.129  -1.040  1.00  0.00     0.096 A 
HETATM   21  C   UNL     1      39.307  -9.928  -1.683  1.00  0.00     0.042 A 
HETATM   22  C   UNL     1      40.179  -8.840  -1.602  1.00  0.00     0.045 A 
HETATM   23  C   UNL     1      41.359  -8.954  -0.880  1.00  0.00     0.118 A 
HETATM   24  C   UNL     1      41.687 -10.132  -0.221  1.00  0.00     0.074 A 
HETATM   25  F   UNL     1      42.197  -7.909  -0.823  1.00  0.00    -0.206 F 
BRANCH  20  26
HETATM   26  O   UNL     1      38.853 -12.267  -1.051  1.00  0.00    -0.344 OA
BRANCH  26  27
HETATM   27  C   UNL     1      38.697 -13.004  -2.269  1.00  0.00     0.121 C 
HETATM   28  C   UNL     1      37.220 -13.075  -2.647  1.00  0.00     0.040 C 
HETATM   29  C   UNL     1      39.236 -14.407  -2.003  1.00  0.00     0.040 C 
ENDBRANCH  26  27
ENDBRANCH  20  26
ENDBRANCH   1  19
TORSDOF 3
ENDMDL
MODEL 7
REMARK VINA RESULT:      -8.2      4.102      5.470
REMARK  3 active torsions:
REMARK  status: ('A' for Active; 'I' for Inactive)
REMARK    1  A    between atoms: C_2  and  O_3 
REMARK    2  A    between atoms: O_3  and  C_4 
REMARK    3  A    between atoms: C_5  and  N_6 
REMARK       I    between atoms: N_6  and  C_7 
REMARK       I    between atoms: C_7  and  N_8 
ROOT
HETATM    1  N   UNL     1      41.246 -11.554   1.168  1.00  0.00    -0.306 N 
HETATM    2  C   UNL     1      42.173 -12.018   2.069  1.00  0.00     0.323 C 
HETATM    3  N   UNL     1      42.209 -13.402   2.225  1.00  0.00    -0.328 N 
HETATM    4  C   UNL     1      42.858 -13.864   3.461  1.00  0.00     0.185 C 
HETATM    5  C   UNL     1      43.077 -15.331   3.428  1.00  0.00     0.035 A 
HETATM    6  C   UNL     1      42.755 -16.201   2.411  1.00  0.00    -0.020 A 
HETATM    7  C   UNL     1      42.125 -15.702   1.165  1.00  0.00     0.061 C 
HETATM    8  C   UNL     1      41.401 -14.367   1.444  1.00  0.00     0.132 C 
HETATM    9  N   UNL     1      43.645 -16.052   4.441  1.00  0.00    -0.357 N 
HETATM   10  H   UNL     1      43.983 -15.675   5.316  1.00  0.00     0.166 HD
HETATM   11  C   UNL     1      43.698 -17.385   4.093  1.00  0.00     0.043 A 
HETATM   12  C   UNL     1      43.149 -17.505   2.813  1.00  0.00    -0.001 A 
HETATM   13  C   UNL     1      44.191 -18.482   4.810  1.00  0.00     0.030 A 
HETATM   14  C   UNL     1      44.127 -19.737   4.199  1.00  0.00     0.002 A 
HETATM   15  C   UNL     1      43.590 -19.887   2.922  1.00  0.00     0.001 A 
HETATM   16  C   UNL     1      43.098 -18.781   2.218  1.00  0.00     0.014 A 
HETATM   17  O   UNL     1      42.904 -11.285   2.734  1.00  0.00    -0.247 OA
HETATM   18  H   UNL     1      40.408 -12.108   1.056  1.00  0.00     0.171 HD
ENDROOT
BRANCH   1  19
HETATM   19  C   UNL     1      41.085 -10.209   0.752  1.00  0.00     0.072 A 
HETATM   20  C   UNL     1      40.055  -9.456   1.361  1.00  0.00     0.096 A 
HETATM   21  C   UNL     1      39.873  -8.119   0.997  1.00  0.00     0.042 A 
HETATM   22  C   UNL     1      40.686  -7.542   0.018  1.00  0.00     0.045 A 
HETATM   23  C   UNL     1      41.675  -8.301  -0.592  1.00  0.00     0.118 A 
HETATM   24  C   UNL     1      41.884  -9.628  -0.236  1.00  0.00     0.074 A 
HETATM   25  F   UNL     1      42.437  -7.743  -1.542  1.00  0.00    -0.206 F 
BRANCH  20  26
HETATM   26  O   UNL     1      39.318 -10.134   2.302  1.00  0.00    -0.344 OA
BRANCH  26  27
HETATM   27  C   UNL     1      39.480  -9.818   3.690  1.00  0.00     0.121 C 
HETATM   28  C   UNL     1      39.560 -11.104   4.509  1.00  0.00     0.040 C 
HETATM   29  C   UNL     1      38.251  -9.012   4.102  1.00  0.00     0.040 C 
ENDBRANCH  26  27
ENDBRANCH  20  26
ENDBRANCH   1  19
TORSDOF 3
ENDMDL
MODEL 8
REMARK VINA RESULT:      -8.1      4.932      8.574
REMARK  3 active torsions:
REMARK  status: ('A' for Active; 'I' for Inactive)
REMARK    1  A    between atoms: C_2  and  O_3 
REMARK    2  A    between atoms: O_3  and  C_4 
REMARK    3  A    between atoms: C_5  and  N_6 
REMARK       I    between atoms: N_6  and  C_7 
REMARK       I    between atoms: C_7  and  N_8 
ROOT
HETATM    1  N   UNL     1      41.639 -14.506   4.388  1.00  0.00    -0.306 N 
HETATM    2  C   UNL     1      40.479 -13.779   4.509  1.00  0.00     0.323 C 
HETATM    3  N   UNL     1      40.068 -13.122   3.352  1.00  0.00    -0.328 N 
HETATM    4  C   UNL     1      39.114 -12.025   3.576  1.00  0.00     0.185 C 
HETATM    5  C   UNL     1      38.540 -11.551   2.292  1.00  0.00     0.035 A 
HETATM    6  C   UNL     1      38.806 -12.032   1.030  1.00  0.00    -0.020 A 
HETATM    7  C   UNL     1      39.752 -13.157   0.838  1.00  0.00     0.061 C 
HETATM    8  C   UNL     1      40.730 -13.227   2.031  1.00  0.00     0.132 C 
HETATM    9  N   UNL     1      37.638 -10.530   2.177  1.00  0.00    -0.357 N 
HETATM   10  H   UNL     1      37.257  -9.990   2.943  1.00  0.00     0.166 HD
HETATM   11  C   UNL     1      37.311 -10.343   0.851  1.00  0.00     0.043 A 
HETATM   12  C   UNL     1      38.030 -11.283   0.106  1.00  0.00    -0.001 A 
HETATM   13  C   UNL     1      36.438  -9.420   0.262  1.00  0.00     0.030 A 
HETATM   14  C   UNL     1      36.290  -9.464  -1.126  1.00  0.00     0.002 A 
HETATM   15  C   UNL     1      36.989 -10.393  -1.894  1.00  0.00     0.001 A 
HETATM   16  C   UNL     1      37.861 -11.307  -1.292  1.00  0.00     0.014 A 
HETATM   17  O   UNL     1      39.852 -13.667   5.561  1.00  0.00    -0.247 OA
HETATM   18  H   UNL     1      42.315 -14.171   3.716  1.00  0.00     0.171 HD
ENDROOT
BRANCH   1  19
HETATM   19  C   UNL     1      42.205 -15.346   5.379  1.00  0.00     0.072 A 
HETATM   20  C   UNL     1      42.532 -16.669   5.001  1.00  0.00     0.096 A 
HETATM   21  C   UNL     1      43.114 -17.529   5.938  1.00  0.00     0.042 A 
HETATM   22  C   UNL     1      43.341 -17.089   7.244  1.00  0.00     0.045 A 
HETATM   23  C   UNL     1      42.990 -15.797   7.609  1.00  0.00     0.118 A 
HETATM   24  C   UNL     1      42.424 -14.921   6.691  1.00  0.00     0.074 A 
HETATM   25  F   UNL     1      43.197 -15.391   8.869  1.00  0.00    -0.206 F 
BRANCH  20  26
HETATM   26  O   UNL     1      42.254 -16.986   3.693  1.00  0.00    -0.344 OA
BRANCH  26  27
HETATM   27  C   UNL     1      43.330 -17.243   2.783  1.00  0.00     0.121 C 
HETATM   28  C   UNL     1      43.303 -16.223   1.647  1.00  0.00     0.040 C 
HETATM   29  C   UNL     1      43.109 -18.648   2.228  1.00  0.00     0.040 C 
ENDBRANCH  26  27
ENDBRANCH  20  26
ENDBRANCH   1  19
TORSDOF 3
ENDMDL
MODEL 9
REMARK VINA RESULT:      -8.0      5.614      7.319
REMARK  3 active torsions:
REMARK  status: ('A' for Active; 'I' for Inactive)
REMARK    1  A    between atoms: C_2  and  O_3 
REMARK    2  A    between atoms: O_3  and  C_4 
REMARK    3  A    between atoms: C_5  and  N_6 
REMARK       I    between atoms: N_6  and  C_7 
REMARK       I    between atoms: C_7  and  N_8 
ROOT
HETATM    1  N   UNL     1      39.384 -13.122  -0.519  1.00  0.00    -0.306 N 
HETATM    2  C   UNL     1      39.437 -13.025   0.850  1.00  0.00     0.323 C 
HETATM    3  N   UNL     1      40.180 -14.016   1.487  1.00  0.00    -0.328 N 
HETATM    4  C   UNL     1      39.887 -14.176   2.919  1.00  0.00     0.185 C 
HETATM    5  C   UNL     1      40.885 -15.063   3.568  1.00  0.00     0.035 A 
HETATM    6  C   UNL     1      41.967 -15.675   2.978  1.00  0.00    -0.020 A 
HETATM    7  C   UNL     1      42.252 -15.473   1.537  1.00  0.00     0.061 C 
HETATM    8  C   UNL     1      40.956 -15.073   0.799  1.00  0.00     0.132 C 
HETATM    9  N   UNL     1      40.866 -15.413   4.890  1.00  0.00    -0.357 N 
HETATM   10  H   UNL     1      40.184 -15.109   5.571  1.00  0.00     0.166 HD
HETATM   11  C   UNL     1      41.928 -16.247   5.167  1.00  0.00     0.043 A 
HETATM   12  C   UNL     1      42.643 -16.423   3.978  1.00  0.00    -0.001 A 
HETATM   13  C   UNL     1      42.306 -16.851   6.372  1.00  0.00     0.030 A 
HETATM   14  C   UNL     1      43.452 -17.651   6.365  1.00  0.00     0.002 A 
HETATM   15  C   UNL     1      44.187 -17.840   5.197  1.00  0.00     0.001 A 
HETATM   16  C   UNL     1      43.795 -17.233   3.998  1.00  0.00     0.014 A 
HETATM   17  O   UNL     1      38.848 -12.158   1.495  1.00  0.00    -0.247 OA
HETATM   18  H   UNL     1      39.446 -14.052  -0.909  1.00  0.00     0.171 HD
ENDROOT
BRANCH   1  19
HETATM   19  C   UNL     1      38.791 -12.185  -1.402  1.00  0.00     0.072 A 
HETATM   20  C   UNL     1      39.545 -11.037  -1.736  1.00  0.00     0.096 A 
HETATM   21  C   UNL     1      39.010 -10.096  -2.620  1.00  0.00     0.042 A 
HETATM   22  C   UNL     1      37.728 -10.277  -3.144  1.00  0.00     0.045 A 
HETATM   23  C   UNL     1      36.987 -11.394  -2.785  1.00  0.00     0.118 A 
HETATM   24  C   UNL     1      37.504 -12.350  -1.920  1.00  0.00     0.074 A 
HETATM   25  F   UNL     1      35.751 -11.549  -3.280  1.00  0.00    -0.206 F 
BRANCH  20  26
HETATM   26  O   UNL     1      40.788 -10.967  -1.153  1.00  0.00    -0.344 OA
BRANCH  26  27
HETATM   27  C   UNL     1      41.189  -9.766  -0.484  1.00  0.00     0.121 C 
HETATM   28  C   UNL     1      42.325  -9.099  -1.254  1.00  0.00     0.040 C 
HETATM   29  C   UNL     1      41.670 -10.178   0.905  1.00  0.00     0.040 C 
ENDBRANCH  26  27
ENDBRANCH  20  26
ENDBRANCH   1  19
TORSDOF 3
ENDMDL
MODEL 10
REMARK VINA RESULT:      -8.0      2.117      3.128
REMARK  3 active torsions:
REMARK  status: ('A' for Active; 'I' for Inactive)
REMARK    1  A    between atoms: C_2  and  O_3 
REMARK    2  A    between atoms: O_3  and  C_4 
REMARK    3  A    between atoms: C_5  and  N_6 
REMARK       I    between atoms: N_6  and  C_7 
REMARK       I    between atoms: C_7  and  N_8 
ROOT
HETATM    1  N   UNL     1      42.694  -9.259   7.487  1.00  0.00    -0.306 N 
HETATM    2  C   UNL     1      41.716  -9.996   6.865  1.00  0.00     0.323 C 
HETATM    3  N   UNL     1      42.158 -11.157   6.234  1.00  0.00    -0.328 N 
HETATM    4  C   UNL     1      41.234 -11.697   5.226  1.00  0.00     0.185 C 
HETATM    5  C   UNL     1      41.656 -13.052   4.791  1.00  0.00     0.035 A 
HETATM    6  C   UNL     1      42.743 -13.771   5.236  1.00  0.00    -0.020 A 
HETATM    7  C   UNL     1      43.642 -13.210   6.272  1.00  0.00     0.061 C 
HETATM    8  C   UNL     1      43.547 -11.669   6.269  1.00  0.00     0.132 C 
HETATM    9  N   UNL     1      41.006 -13.802   3.851  1.00  0.00    -0.357 N 
HETATM   10  H   UNL     1      40.169 -13.528   3.354  1.00  0.00     0.166 HD
HETATM   11  C   UNL     1      41.658 -15.004   3.680  1.00  0.00     0.043 A 
HETATM   12  C   UNL     1      42.754 -15.013   4.547  1.00  0.00    -0.001 A 
HETATM   13  C   UNL     1      41.358 -16.076   2.831  1.00  0.00     0.030 A 
HETATM   14  C   UNL     1      42.198 -17.191   2.874  1.00  0.00     0.002 A 
HETATM   15  C   UNL     1      43.295 -17.231   3.731  1.00  0.00     0.001 A 
HETATM   16  C   UNL     1      43.585 -16.150   4.573  1.00  0.00     0.014 A 
HETATM   17  O   UNL     1      40.534  -9.658   6.817  1.00  0.00    -0.247 OA
HETATM   18  H   UNL     1      43.621  -9.310   7.088  1.00  0.00     0.171 HD
ENDROOT
BRANCH   1  19
HETATM   19  C   UNL     1      42.492  -8.106   8.285  1.00  0.00     0.072 A 
HETATM   20  C   UNL     1      42.616  -8.252   9.685  1.00  0.00     0.096 A 
HETATM   21  C   UNL     1      42.447  -7.137  10.512  1.00  0.00     0.042 A 
HETATM   22  C   UNL     1      42.128  -5.896   9.956  1.00  0.00     0.045 A 
HETATM   23  C   UNL     1      41.981  -5.773   8.581  1.00  0.00     0.118 A 
HETATM   24  C   UNL     1      42.159  -6.864   7.740  1.00  0.00     0.074 A 
HETATM   25  F   UNL     1      41.658  -4.581   8.061  1.00  0.00    -0.206 F 
BRANCH  20  26
HETATM   26  O   UNL     1      42.925  -9.522  10.112  1.00  0.00    -0.344 OA
BRANCH  26  27
HETATM   27  C   UNL     1      44.001  -9.716  11.037  1.00  0.00     0.121 C 
HETATM   28  C   UNL     1      45.321  -9.833  10.278  1.00  0.00     0.040 C 
HETATM   29  C   UNL     1      43.710 -11.016  11.782  1.00  0.00     0.040 C 
ENDBRANCH  26  27
ENDBRANCH  20  26
ENDBRANCH   1  19
TORSDOF 3
ENDMDL
