MODEL 1
REMARK VINA RESULT:      -8.8      0.000      0.000
REMARK  9 active torsions:
REMARK  status: ('A' for Active; 'I' for Inactive)
REMARK    1  A    between atoms: C_2  and  N_3 
REMARK       I    between atoms: N_3  and  C_4 
REMARK    2  A    between atoms: C_4  and  C_5 
REMARK    3  A    between atoms: N_6  and  C_8 
REMARK    4  A    between atoms: C_8  and  C_9 
REMARK    5  A    between atoms: C_12  and  O_13 
REMARK    6  A    between atoms: O_13  and  C_14 
REMARK    7  A    between atoms: C_14  and  C_15 
REMARK    8  A    between atoms: C_24  and  S_25 
REMARK    9  A    between atoms: S_25  and  C_26 
ROOT
HETATM    1  C   UNL     1      40.739  -9.550   6.424  1.00  0.00     0.280 C 
HETATM    2  N   UNL     1      41.382 -10.875   5.984  1.00  0.00    -0.053 N 
HETATM    3  H   UNL     1      42.141 -11.097   6.642  1.00  0.00     0.281 HD
HETATM    4  C   UNL     1      41.943 -10.533   4.620  1.00  0.00     0.252 C 
HETATM    5  C   UNL     1      40.935  -9.546   4.006  1.00  0.00     0.083 C 
HETATM    6  C   UNL     1      40.027  -9.096   5.159  1.00  0.00     0.060 C 
ENDROOT
BRANCH   2   7
HETATM    7  C   UNL     1      40.467 -12.086   5.997  1.00  0.00     0.274 C 
BRANCH   7   8
HETATM    8  C   UNL     1      41.215 -13.393   6.034  1.00  0.00    -0.032 A 
HETATM    9  C   UNL     1      42.618 -13.419   5.966  1.00  0.00     0.011 A 
HETATM   10  C   UNL     1      43.310 -14.636   5.993  1.00  0.00     0.037 A 
HETATM   11  C   UNL     1      42.607 -15.834   6.085  1.00  0.00     0.069 A 
HETATM   12  C   UNL     1      41.214 -15.817   6.124  1.00  0.00     0.037 A 
HETATM   13  C   UNL     1      40.520 -14.608   6.116  1.00  0.00     0.011 A 
BRANCH  11  14
HETATM   14  O   UNL     1      43.167 -17.078   6.102  1.00  0.00    -0.347 OA
BRANCH  14  15
HETATM   15  C   UNL     1      44.279 -17.278   5.227  1.00  0.00     0.214 C 
BRANCH  15  16
HETATM   16  C   UNL     1      44.094 -18.620   4.566  1.00  0.00    -0.034 A 
HETATM   17  C   UNL     1      44.037 -19.789   5.337  1.00  0.00     0.009 A 
HETATM   18  C   UNL     1      43.905 -21.037   4.725  1.00  0.00     0.001 A 
HETATM   19  C   UNL     1      43.832 -21.127   3.336  1.00  0.00     0.000 A 
HETATM   20  C   UNL     1      43.895 -19.973   2.558  1.00  0.00     0.001 A 
HETATM   21  C   UNL     1      44.029 -18.725   3.169  1.00  0.00     0.009 A 
ENDBRANCH  15  16
ENDBRANCH  14  15
ENDBRANCH  11  14
ENDBRANCH   7   8
ENDBRANCH   2   7
BRANCH   1  22
HETATM   22  C   UNL     1      39.900  -9.651   7.708  1.00  0.00     0.249 C 
HETATM   23  N   UNL     1      40.548  -9.386   8.892  1.00  0.00    -0.355 N 
HETATM   24  H   UNL     1      41.560  -9.356   8.928  1.00  0.00     0.162 HD
HETATM   25  O   UNL     1      38.714  -9.971   7.641  1.00  0.00    -0.271 OA
BRANCH  23  26
HETATM   26  C   UNL     1      39.870  -9.506  10.183  1.00  0.00     0.076 C 
HETATM   27  C   UNL     1      39.077  -8.236  10.471  1.00  0.00     0.032 C 
HETATM   28  C   UNL     1      40.881  -9.781  11.294  1.00  0.00     0.032 C 
ENDBRANCH  23  26
ENDBRANCH   1  22
BRANCH   5  29
HETATM   29  S   UNL     1      39.917 -10.267   2.669  1.00  0.00    -0.085 SA
BRANCH  29  30
HETATM   30  C   UNL     1      40.683 -11.802   2.512  1.00  0.00     0.168 A 
HETATM   31  N   UNL     1      41.962 -12.005   2.315  1.00  0.00    -0.223 NA
HETATM   32  C   UNL     1      42.087 -13.377   2.283  1.00  0.00     0.086 A 
HETATM   33  C   UNL     1      40.853 -13.997   2.471  1.00  0.00     0.063 A 
HETATM   34  C   UNL     1      43.228 -14.171   2.099  1.00  0.00     0.034 A 
HETATM   35  N   UNL     1      39.970 -12.958   2.615  1.00  0.00    -0.333 N 
HETATM   36  C   UNL     1      40.683 -15.383   2.487  1.00  0.00     0.032 A 
HETATM   37  H   UNL     1      38.975 -13.032   2.767  1.00  0.00     0.168 HD
HETATM   38  C   UNL     1      41.835 -16.157   2.301  1.00  0.00     0.002 A 
HETATM   39  C   UNL     1      43.086 -15.564   2.110  1.00  0.00     0.002 A 
ENDBRANCH  29  30
ENDBRANCH   5  29
TORSDOF 9
ENDMDL
MODEL 2
REMARK VINA RESULT:      -8.8      3.435      7.837
REMARK  9 active torsions:
REMARK  status: ('A' for Active; 'I' for Inactive)
REMARK    1  A    between atoms: C_2  and  N_3 
REMARK       I    between atoms: N_3  and  C_4 
REMARK    2  A    between atoms: C_4  and  C_5 
REMARK    3  A    between atoms: N_6  and  C_8 
REMARK    4  A    between atoms: C_8  and  C_9 
REMARK    5  A    between atoms: C_12  and  O_13 
REMARK    6  A    between atoms: O_13  and  C_14 
REMARK    7  A    between atoms: C_14  and  C_15 
REMARK    8  A    between atoms: C_24  and  S_25 
REMARK    9  A    between atoms: S_25  and  C_26 
ROOT
HETATM    1  C   UNL     1      40.757 -14.806   5.142  1.00  0.00     0.280 C 
HETATM    2  N   UNL     1      41.261 -13.361   5.288  1.00  0.00    -0.053 N 
HETATM    3  H   UNL     1      40.965 -13.010   6.208  1.00  0.00     0.281 HD
HETATM    4  C   UNL     1      40.520 -12.641   4.180  1.00  0.00     0.252 C 
HETATM    5  C   UNL     1      40.424 -13.659   3.031  1.00  0.00     0.083 C 
HETATM    6  C   UNL     1      40.800 -15.018   3.637  1.00  0.00     0.060 C 
ENDROOT
BRANCH   2   7
HETATM    7  C   UNL     1      42.767 -13.183   5.249  1.00  0.00     0.274 C 
BRANCH   7   8
HETATM    8  C   UNL     1      43.259 -12.097   6.169  1.00  0.00    -0.032 A 
HETATM    9  C   UNL     1      42.422 -11.029   6.530  1.00  0.00     0.011 A 
HETATM   10  C   UNL     1      42.884 -10.015   7.379  1.00  0.00     0.037 A 
HETATM   11  C   UNL     1      44.186 -10.062   7.872  1.00  0.00     0.069 A 
HETATM   12  C   UNL     1      45.031 -11.104   7.496  1.00  0.00     0.037 A 
HETATM   13  C   UNL     1      44.571 -12.124   6.664  1.00  0.00     0.011 A 
BRANCH  11  14
HETATM   14  O   UNL     1      44.753  -9.128   8.689  1.00  0.00    -0.347 OA
BRANCH  14  15
HETATM   15  C   UNL     1      45.360  -9.624   9.883  1.00  0.00     0.214 C 
BRANCH  15  16
HETATM   16  C   UNL     1      44.307  -9.608  10.961  1.00  0.00    -0.034 A 
HETATM   17  C   UNL     1      43.814  -8.392  11.454  1.00  0.00     0.009 A 
HETATM   18  C   UNL     1      42.866  -8.374  12.479  1.00  0.00     0.001 A 
HETATM   19  C   UNL     1      42.407  -9.571  13.025  1.00  0.00     0.000 A 
HETATM   20  C   UNL     1      42.895 -10.787  12.549  1.00  0.00     0.001 A 
HETATM   21  C   UNL     1      43.843 -10.806  11.525  1.00  0.00     0.009 A 
ENDBRANCH  15  16
ENDBRANCH  14  15
ENDBRANCH  11  14
ENDBRANCH   7   8
ENDBRANCH   2   7
BRANCH   1  22
HETATM   22  C   UNL     1      41.500 -15.825   6.020  1.00  0.00     0.249 C 
HETATM   23  N   UNL     1      42.547 -16.498   5.434  1.00  0.00    -0.355 N 
HETATM   24  H   UNL     1      42.666 -16.488   4.428  1.00  0.00     0.162 HD
HETATM   25  O   UNL     1      41.137 -16.015   7.180  1.00  0.00    -0.271 OA
BRANCH  23  26
HETATM   26  C   UNL     1      43.293 -17.533   6.150  1.00  0.00     0.076 C 
HETATM   27  C   UNL     1      44.354 -16.888   7.036  1.00  0.00     0.032 C 
HETATM   28  C   UNL     1      43.928 -18.512   5.166  1.00  0.00     0.032 C 
ENDBRANCH  23  26
ENDBRANCH   1  22
BRANCH   5  29
HETATM   29  S   UNL     1      41.532 -13.288   1.623  1.00  0.00    -0.085 SA
BRANCH  29  30
HETATM   30  C   UNL     1      40.407 -13.413   0.324  1.00  0.00     0.168 A 
HETATM   31  N   UNL     1      39.409 -12.597   0.092  1.00  0.00    -0.223 NA
HETATM   32  C   UNL     1      38.824 -13.093  -1.054  1.00  0.00     0.086 A 
HETATM   33  C   UNL     1      39.498 -14.225  -1.509  1.00  0.00     0.063 A 
HETATM   34  C   UNL     1      37.711 -12.627  -1.768  1.00  0.00     0.034 A 
HETATM   35  N   UNL     1      40.510 -14.406  -0.603  1.00  0.00    -0.333 N 
HETATM   36  C   UNL     1      39.123 -14.933  -2.653  1.00  0.00     0.032 A 
HETATM   37  H   UNL     1      41.203 -15.139  -0.615  1.00  0.00     0.168 HD
HETATM   38  C   UNL     1      38.010 -14.452  -3.351  1.00  0.00     0.002 A 
HETATM   39  C   UNL     1      37.314 -13.320  -2.918  1.00  0.00     0.002 A 
ENDBRANCH  29  30
ENDBRANCH   5  29
TORSDOF 9
ENDMDL
MODEL 3
REMARK VINA RESULT:      -8.7      1.296      1.574
REMARK  9 active torsions:
REMARK  status: ('A' for Active; 'I' for Inactive)
REMARK    1  A    between atoms: C_2  and  N_3 
REMARK       I    between atoms: N_3  and  C_4 
REMARK    2  A    between atoms: C_4  and  C_5 
REMARK    3  A    between atoms: N_6  and  C_8 
REMARK    4  A    between atoms: C_8  and  C_9 
REMARK    5  A    between atoms: C_12  and  O_13 
REMARK    6  A    between atoms: O_13  and  C_14 
REMARK    7  A    between atoms: C_14  and  C_15 
REMARK    8  A    between atoms: C_24  and  S_25 
REMARK    9  A    between atoms: S_25  and  C_26 
ROOT
HETATM    1  C   UNL     1      42.330  -9.620   6.418  1.00  0.00     0.280 C 
HETATM    2  N   UNL     1      42.473 -11.053   5.882  1.00  0.00    -0.053 N 
HETATM    3  H   UNL     1      43.331 -11.460   6.279  1.00  0.00     0.281 HD
HETATM    4  C   UNL     1      42.628 -10.834   4.391  1.00  0.00     0.252 C 
HETATM    5  C   UNL     1      41.733  -9.626   4.066  1.00  0.00     0.083 C 
HETATM    6  C   UNL     1      41.374  -8.990   5.417  1.00  0.00     0.060 C 
ENDROOT
BRANCH   2   7
HETATM    7  C   UNL     1      41.358 -12.012   6.258  1.00  0.00     0.274 C 
BRANCH   7   8
HETATM    8  C   UNL     1      41.787 -13.455   6.247  1.00  0.00    -0.032 A 
HETATM    9  C   UNL     1      40.860 -14.477   5.987  1.00  0.00     0.011 A 
HETATM   10  C   UNL     1      41.259 -15.819   5.985  1.00  0.00     0.037 A 
HETATM   11  C   UNL     1      42.587 -16.149   6.245  1.00  0.00     0.069 A 
HETATM   12  C   UNL     1      43.507 -15.142   6.532  1.00  0.00     0.037 A 
HETATM   13  C   UNL     1      43.118 -13.803   6.518  1.00  0.00     0.011 A 
BRANCH  11  14
HETATM   14  O   UNL     1      43.091 -17.417   6.288  1.00  0.00    -0.347 OA
BRANCH  14  15
HETATM   15  C   UNL     1      44.300 -17.637   5.560  1.00  0.00     0.214 C 
BRANCH  15  16
HETATM   16  C   UNL     1      43.996 -18.643   4.480  1.00  0.00    -0.034 A 
HETATM   17  C   UNL     1      44.131 -20.016   4.731  1.00  0.00     0.009 A 
HETATM   18  C   UNL     1      43.887 -20.949   3.720  1.00  0.00     0.001 A 
HETATM   19  C   UNL     1      43.511 -20.518   2.450  1.00  0.00     0.000 A 
HETATM   20  C   UNL     1      43.382 -19.156   2.186  1.00  0.00     0.001 A 
HETATM   21  C   UNL     1      43.626 -18.222   3.195  1.00  0.00     0.009 A 
ENDBRANCH  15  16
ENDBRANCH  14  15
ENDBRANCH  11  14
ENDBRANCH   7   8
ENDBRANCH   2   7
BRANCH   1  22
HETATM   22  C   UNL     1      41.949  -9.537   7.905  1.00  0.00     0.249 C 
HETATM   23  N   UNL     1      42.962  -9.733   8.814  1.00  0.00    -0.355 N 
HETATM   24  H   UNL     1      43.846 -10.133   8.521  1.00  0.00     0.162 HD
HETATM   25  O   UNL     1      40.782  -9.321   8.227  1.00  0.00    -0.271 OA
BRANCH  23  26
HETATM   26  C   UNL     1      42.712  -9.735  10.255  1.00  0.00     0.076 C 
HETATM   27  C   UNL     1      42.906  -8.331  10.817  1.00  0.00     0.032 C 
HETATM   28  C   UNL     1      43.631 -10.734  10.956  1.00  0.00     0.032 C 
ENDBRANCH  23  26
ENDBRANCH   1  22
BRANCH   5  29
HETATM   29  S   UNL     1      40.201 -10.063   3.167  1.00  0.00    -0.085 SA
BRANCH  29  30
HETATM   30  C   UNL     1      40.581 -11.681   2.711  1.00  0.00     0.168 A 
HETATM   31  N   UNL     1      41.692 -12.077   2.143  1.00  0.00    -0.223 NA
HETATM   32  C   UNL     1      41.533 -13.439   1.999  1.00  0.00     0.086 A 
HETATM   33  C   UNL     1      40.300 -13.854   2.501  1.00  0.00     0.063 A 
HETATM   34  C   UNL     1      42.403 -14.392   1.450  1.00  0.00     0.034 A 
HETATM   35  N   UNL     1      39.711 -12.701   2.951  1.00  0.00    -0.333 N 
HETATM   36  C   UNL     1      39.874 -15.184   2.488  1.00  0.00     0.032 A 
HETATM   37  H   UNL     1      38.801 -12.619   3.379  1.00  0.00     0.168 HD
HETATM   38  C   UNL     1      40.757 -16.119   1.935  1.00  0.00     0.002 A 
HETATM   39  C   UNL     1      41.999 -15.732   1.424  1.00  0.00     0.002 A 
ENDBRANCH  29  30
ENDBRANCH   5  29
TORSDOF 9
ENDMDL
MODEL 4
REMARK VINA RESULT:      -8.7      2.362      2.626
REMARK  9 active torsions:
REMARK  status: ('A' for Active; 'I' for Inactive)
REMARK    1  A    between atoms: C_2  and  N_3 
REMARK       I    between atoms: N_3  and  C_4 
REMARK    2  A    between atoms: C_4  and  C_5 
REMARK    3  A    between atoms: N_6  and  C_8 
REMARK    4  A    between atoms: C_8  and  C_9 
REMARK    5  A    between atoms: C_12  and  O_13 
REMARK    6  A    between atoms: O_13  and  C_14 
REMARK    7  A    between atoms: C_14  and  C_15 
REMARK    8  A    between atoms: C_24  and  S_25 
REMARK    9  A    between atoms: S_25  and  C_26 
ROOT
HETATM    1  C   UNL     1      42.063  -9.880   5.249  1.00  0.00     0.280 C 
HETATM    2  N   UNL     1      42.172 -11.396   5.016  1.00  0.00    -0.053 N 
HETATM    3  H   UNL     1      43.123 -11.692   5.275  1.00  0.00     0.281 HD
HETATM    4  C   UNL     1      41.965 -11.516   3.520  1.00  0.00     0.252 C 
HETATM    5  C   UNL     1      40.943 -10.422   3.166  1.00  0.00     0.083 C 
HETATM    6  C   UNL     1      40.864  -9.503   4.393  1.00  0.00     0.060 C 
ENDROOT
BRANCH   2   7
HETATM    7  C   UNL     1      41.238 -12.258   5.846  1.00  0.00     0.274 C 
BRANCH   7   8
HETATM    8  C   UNL     1      41.711 -13.680   5.985  1.00  0.00    -0.032 A 
HETATM    9  C   UNL     1      43.065 -13.966   6.231  1.00  0.00     0.011 A 
HETATM   10  C   UNL     1      43.504 -15.290   6.351  1.00  0.00     0.037 A 
HETATM   11  C   UNL     1      42.596 -16.338   6.226  1.00  0.00     0.069 A 
HETATM   12  C   UNL     1      41.256 -16.063   5.955  1.00  0.00     0.037 A 
HETATM   13  C   UNL     1      40.810 -14.746   5.851  1.00  0.00     0.011 A 
BRANCH  11  14
HETATM   14  O   UNL     1      42.906 -17.664   6.306  1.00  0.00    -0.347 OA
BRANCH  14  15
HETATM   15  C   UNL     1      44.165 -18.049   5.751  1.00  0.00     0.214 C 
BRANCH  15  16
HETATM   16  C   UNL     1      43.880 -18.829   4.493  1.00  0.00    -0.034 A 
HETATM   17  C   UNL     1      44.072 -20.217   4.460  1.00  0.00     0.009 A 
HETATM   18  C   UNL     1      43.846 -20.936   3.284  1.00  0.00     0.001 A 
HETATM   19  C   UNL     1      43.430 -20.274   2.131  1.00  0.00     0.000 A 
HETATM   20  C   UNL     1      43.243 -18.893   2.149  1.00  0.00     0.001 A 
HETATM   21  C   UNL     1      43.470 -18.172   3.323  1.00  0.00     0.009 A 
ENDBRANCH  15  16
ENDBRANCH  14  15
ENDBRANCH  11  14
ENDBRANCH   7   8
ENDBRANCH   2   7
BRANCH   1  22
HETATM   22  C   UNL     1      42.031  -9.469   6.729  1.00  0.00     0.249 C 
HETATM   23  N   UNL     1      43.195  -9.635   7.443  1.00  0.00    -0.355 N 
HETATM   24  H   UNL     1      43.947 -10.206   7.073  1.00  0.00     0.162 HD
HETATM   25  O   UNL     1      40.991  -9.032   7.221  1.00  0.00    -0.271 OA
BRANCH  23  26
HETATM   26  C   UNL     1      43.270  -9.335   8.872  1.00  0.00     0.076 C 
HETATM   27  C   UNL     1      43.821  -7.927   9.077  1.00  0.00     0.032 C 
HETATM   28  C   UNL     1      44.135 -10.367   9.591  1.00  0.00     0.032 C 
ENDBRANCH  23  26
ENDBRANCH   1  22
BRANCH   5  29
HETATM   29  S   UNL     1      39.277 -11.069   2.776  1.00  0.00    -0.085 SA
BRANCH  29  30
HETATM   30  C   UNL     1      39.578 -11.731   1.214  1.00  0.00     0.168 A 
HETATM   31  N   UNL     1      40.204 -11.130   0.233  1.00  0.00    -0.223 NA
HETATM   32  C   UNL     1      40.213 -12.060  -0.784  1.00  0.00     0.086 A 
HETATM   33  C   UNL     1      39.581 -13.238  -0.391  1.00  0.00     0.063 A 
HETATM   34  C   UNL     1      40.747 -11.970  -2.078  1.00  0.00     0.034 A 
HETATM   35  N   UNL     1      39.183 -12.996   0.898  1.00  0.00    -0.333 N 
HETATM   36  C   UNL     1      39.446 -14.352  -1.222  1.00  0.00     0.032 A 
HETATM   37  H   UNL     1      38.687 -13.633   1.504  1.00  0.00     0.168 HD
HETATM   38  C   UNL     1      39.985 -14.242  -2.509  1.00  0.00     0.002 A 
HETATM   39  C   UNL     1      40.624 -13.073  -2.932  1.00  0.00     0.002 A 
ENDBRANCH  29  30
ENDBRANCH   5  29
TORSDOF 9
ENDMDL
MODEL 5
REMARK VINA RESULT:      -8.6      1.875      6.195
REMARK  9 active torsions:
REMARK  status: ('A' for Active; 'I' for Inactive)
REMARK    1  A    between atoms: C_2  and  N_3 
REMARK       I    between atoms: N_3  and  C_4 
REMARK    2  A    between atoms: C_4  and  C_5 
REMARK    3  A    between atoms: N_6  and  C_8 
REMARK    4  A    between atoms: C_8  and  C_9 
REMARK    5  A    between atoms: C_12  and  O_13 
REMARK    6  A    between atoms: O_13  and  C_14 
REMARK    7  A    between atoms: C_14  and  C_15 
REMARK    8  A    between atoms: C_24  and  S_25 
REMARK    9  A    between atoms: S_25  and  C_26 
ROOT
HETATM    1  C   UNL     1      38.969 -12.168   3.700  1.00  0.00     0.280 C 
HETATM    2  N   UNL     1      39.415 -12.246   5.169  1.00  0.00    -0.053 N 
HETATM    3  H   UNL     1      39.040 -13.115   5.572  1.00  0.00     0.281 HD
HETATM    4  C   UNL     1      38.739 -11.038   5.784  1.00  0.00     0.252 C 
HETATM    5  C   UNL     1      38.763  -9.961   4.686  1.00  0.00     0.083 C 
HETATM    6  C   UNL     1      39.133 -10.689   3.386  1.00  0.00     0.060 C 
ENDROOT
BRANCH   2   7
HETATM    7  C   UNL     1      40.914 -12.306   5.399  1.00  0.00     0.274 C 
BRANCH   7   8
HETATM    8  C   UNL     1      41.421 -13.703   5.643  1.00  0.00    -0.032 A 
HETATM    9  C   UNL     1      40.590 -14.677   6.220  1.00  0.00     0.011 A 
HETATM   10  C   UNL     1      41.066 -15.973   6.454  1.00  0.00     0.037 A 
HETATM   11  C   UNL     1      42.375 -16.304   6.113  1.00  0.00     0.069 A 
HETATM   12  C   UNL     1      43.214 -15.335   5.565  1.00  0.00     0.037 A 
HETATM   13  C   UNL     1      42.740 -14.048   5.315  1.00  0.00     0.011 A 
BRANCH  11  14
HETATM   14  O   UNL     1      42.955 -17.524   6.307  1.00  0.00    -0.347 OA
BRANCH  14  15
HETATM   15  C   UNL     1      44.226 -17.720   5.685  1.00  0.00     0.214 C 
BRANCH  15  16
HETATM   16  C   UNL     1      44.029 -18.710   4.566  1.00  0.00    -0.034 A 
HETATM   17  C   UNL     1      43.711 -18.267   3.274  1.00  0.00     0.009 A 
HETATM   18  C   UNL     1      43.490 -19.184   2.244  1.00  0.00     0.001 A 
HETATM   19  C   UNL     1      43.581 -20.551   2.497  1.00  0.00     0.000 A 
HETATM   20  C   UNL     1      43.888 -21.004   3.778  1.00  0.00     0.001 A 
HETATM   21  C   UNL     1      44.108 -20.089   4.809  1.00  0.00     0.009 A 
ENDBRANCH  15  16
ENDBRANCH  14  15
ENDBRANCH  11  14
ENDBRANCH   7   8
ENDBRANCH   2   7
BRANCH   1  22
HETATM   22  C   UNL     1      39.675 -13.168   2.772  1.00  0.00     0.249 C 
HETATM   23  N   UNL     1      39.134 -14.431   2.698  1.00  0.00    -0.355 N 
HETATM   24  H   UNL     1      38.458 -14.741   3.386  1.00  0.00     0.162 HD
HETATM   25  O   UNL     1      40.681 -12.826   2.154  1.00  0.00    -0.271 OA
BRANCH  23  26
HETATM   26  C   UNL     1      39.751 -15.486   1.894  1.00  0.00     0.076 C 
HETATM   27  C   UNL     1      40.997 -16.012   2.599  1.00  0.00     0.032 C 
HETATM   28  C   UNL     1      40.093 -14.965   0.500  1.00  0.00     0.032 C 
ENDBRANCH  23  26
ENDBRANCH   1  22
BRANCH   5  29
HETATM   29  S   UNL     1      39.962  -8.615   4.999  1.00  0.00    -0.085 SA
BRANCH  29  30
HETATM   30  C   UNL     1      39.908  -8.568   6.720  1.00  0.00     0.168 A 
HETATM   31  N   UNL     1      38.907  -8.136   7.445  1.00  0.00    -0.223 NA
HETATM   32  C   UNL     1      39.325  -8.320   8.746  1.00  0.00     0.086 A 
HETATM   33  C   UNL     1      40.601  -8.879   8.787  1.00  0.00     0.063 A 
HETATM   34  C   UNL     1      38.666  -8.034   9.950  1.00  0.00     0.034 A 
HETATM   35  N   UNL     1      40.950  -9.027   7.469  1.00  0.00    -0.333 N 
HETATM   36  C   UNL     1      41.272  -9.176   9.975  1.00  0.00     0.032 A 
HETATM   37  H   UNL     1      41.817  -9.402   7.116  1.00  0.00     0.168 HD
HETATM   38  C   UNL     1      40.597  -8.882  11.165  1.00  0.00     0.002 A 
HETATM   39  C   UNL     1      39.317  -8.321  11.156  1.00  0.00     0.002 A 
ENDBRANCH  29  30
ENDBRANCH   5  29
TORSDOF 9
ENDMDL
MODEL 6
REMARK VINA RESULT:      -8.6      2.333      6.432
REMARK  9 active torsions:
REMARK  status: ('A' for Active; 'I' for Inactive)
REMARK    1  A    between atoms: C_2  and  N_3 
REMARK       I    between atoms: N_3  and  C_4 
REMARK    2  A    between atoms: C_4  and  C_5 
REMARK    3  A    between atoms: N_6  and  C_8 
REMARK    4  A    between atoms: C_8  and  C_9 
REMARK    5  A    between atoms: C_12  and  O_13 
REMARK    6  A    between atoms: O_13  and  C_14 
REMARK    7  A    between atoms: C_14  and  C_15 
REMARK    8  A    between atoms: C_24  and  S_25 
REMARK    9  A    between atoms: S_25  and  C_26 
ROOT
HETATM    1  C   UNL     1      41.040 -10.262   5.977  1.00  0.00     0.280 C 
HETATM    2  N   UNL     1      39.848 -11.220   5.822  1.00  0.00    -0.053 N 
HETATM    3  H   UNL     1      39.693 -11.379   4.817  1.00  0.00     0.281 HD
HETATM    4  C   UNL     1      38.704 -10.424   6.418  1.00  0.00     0.252 C 
HETATM    5  C   UNL     1      39.329  -9.629   7.577  1.00  0.00     0.083 C 
HETATM    6  C   UNL     1      40.849  -9.729   7.389  1.00  0.00     0.060 C 
ENDROOT
BRANCH   2   7
HETATM    7  C   UNL     1      40.029 -12.600   6.428  1.00  0.00     0.274 C 
BRANCH   7   8
HETATM    8  C   UNL     1      40.384 -13.652   5.411  1.00  0.00    -0.032 A 
HETATM    9  C   UNL     1      40.773 -14.939   5.816  1.00  0.00     0.011 A 
HETATM   10  C   UNL     1      41.110 -15.913   4.868  1.00  0.00     0.037 A 
HETATM   11  C   UNL     1      41.063 -15.608   3.510  1.00  0.00     0.069 A 
HETATM   12  C   UNL     1      40.705 -14.325   3.102  1.00  0.00     0.037 A 
HETATM   13  C   UNL     1      40.351 -13.356   4.040  1.00  0.00     0.011 A 
BRANCH  11  14
HETATM   14  O   UNL     1      41.384 -16.465   2.498  1.00  0.00    -0.347 OA
BRANCH  14  15
HETATM   15  C   UNL     1      42.778 -16.618   2.224  1.00  0.00     0.214 C 
BRANCH  15  16
HETATM   16  C   UNL     1      43.195 -17.962   2.765  1.00  0.00    -0.034 A 
HETATM   17  C   UNL     1      43.859 -18.058   3.996  1.00  0.00     0.009 A 
HETATM   18  C   UNL     1      44.281 -19.297   4.480  1.00  0.00     0.001 A 
HETATM   19  C   UNL     1      44.046 -20.453   3.737  1.00  0.00     0.000 A 
HETATM   20  C   UNL     1      43.394 -20.370   2.508  1.00  0.00     0.001 A 
HETATM   21  C   UNL     1      42.973 -19.131   2.022  1.00  0.00     0.009 A 
ENDBRANCH  15  16
ENDBRANCH  14  15
ENDBRANCH  11  14
ENDBRANCH   7   8
ENDBRANCH   2   7
BRANCH   1  22
HETATM   22  C   UNL     1      42.401 -10.887   5.637  1.00  0.00     0.249 C 
HETATM   23  N   UNL     1      43.118 -11.416   6.686  1.00  0.00    -0.355 N 
HETATM   24  H   UNL     1      42.866 -11.196   7.642  1.00  0.00     0.162 HD
HETATM   25  O   UNL     1      42.804 -10.883   4.475  1.00  0.00    -0.271 OA
BRANCH  23  26
HETATM   26  C   UNL     1      44.452 -11.985   6.495  1.00  0.00     0.076 C 
HETATM   27  C   UNL     1      44.405 -13.495   6.709  1.00  0.00     0.032 C 
HETATM   28  C   UNL     1      45.453 -11.332   7.445  1.00  0.00     0.032 C 
ENDBRANCH  23  26
ENDBRANCH   1  22
BRANCH   5  29
HETATM   29  S   UNL     1      38.873 -10.258   9.233  1.00  0.00    -0.085 SA
BRANCH  29  30
HETATM   30  C   UNL     1      39.993  -9.377  10.201  1.00  0.00     0.168 A 
HETATM   31  N   UNL     1      39.991  -8.081  10.389  1.00  0.00    -0.223 NA
HETATM   32  C   UNL     1      41.049  -7.860  11.243  1.00  0.00     0.086 A 
HETATM   33  C   UNL     1      41.686  -9.055  11.571  1.00  0.00     0.063 A 
HETATM   34  C   UNL     1      41.528  -6.660  11.788  1.00  0.00     0.034 A 
HETATM   35  N   UNL     1      40.984 -10.013  10.885  1.00  0.00    -0.333 N 
HETATM   36  C   UNL     1      42.790  -9.130  12.422  1.00  0.00     0.032 A 
HETATM   37  H   UNL     1      41.167 -11.005  10.882  1.00  0.00     0.168 HD
HETATM   38  C   UNL     1      43.253  -7.921  12.955  1.00  0.00     0.002 A 
HETATM   39  C   UNL     1      42.635  -6.706  12.645  1.00  0.00     0.002 A 
ENDBRANCH  29  30
ENDBRANCH   5  29
TORSDOF 9
ENDMDL
MODEL 7
REMARK VINA RESULT:      -8.6      3.576      6.555
REMARK  9 active torsions:
REMARK  status: ('A' for Active; 'I' for Inactive)
REMARK    1  A    between atoms: C_2  and  N_3 
REMARK       I    between atoms: N_3  and  C_4 
REMARK    2  A    between atoms: C_4  and  C_5 
REMARK    3  A    between atoms: N_6  and  C_8 
REMARK    4  A    between atoms: C_8  and  C_9 
REMARK    5  A    between atoms: C_12  and  O_13 
REMARK    6  A    between atoms: O_13  and  C_14 
REMARK    7  A    between atoms: C_14  and  C_15 
REMARK    8  A    between atoms: C_24  and  S_25 
REMARK    9  A    between atoms: S_25  and  C_26 
ROOT
HETATM    1  C   UNL     1      43.378 -12.795   7.172  1.00  0.00     0.280 C 
HETATM    2  N   UNL     1      42.123 -12.364   6.396  1.00  0.00    -0.053 N 
HETATM    3  H   UNL     1      41.473 -11.921   7.058  1.00  0.00     0.281 HD
HETATM    4  C   UNL     1      41.566 -13.686   5.908  1.00  0.00     0.252 C 
HETATM    5  C   UNL     1      42.799 -14.555   5.605  1.00  0.00     0.083 C 
HETATM    6  C   UNL     1      43.993 -13.835   6.248  1.00  0.00     0.060 C 
ENDROOT
BRANCH   2   7
HETATM    7  C   UNL     1      42.347 -11.339   5.299  1.00  0.00     0.274 C 
BRANCH   7   8
HETATM    8  C   UNL     1      41.411 -11.506   4.131  1.00  0.00    -0.032 A 
HETATM    9  C   UNL     1      41.911 -11.671   2.829  1.00  0.00     0.011 A 
HETATM   10  C   UNL     1      41.039 -11.818   1.744  1.00  0.00     0.037 A 
HETATM   11  C   UNL     1      39.662 -11.798   1.951  1.00  0.00     0.069 A 
HETATM   12  C   UNL     1      39.159 -11.606   3.236  1.00  0.00     0.037 A 
HETATM   13  C   UNL     1      40.023 -11.477   4.323  1.00  0.00     0.011 A 
BRANCH  11  14
HETATM   14  O   UNL     1      38.716 -11.913   0.974  1.00  0.00    -0.347 OA
BRANCH  14  15
HETATM   15  C   UNL     1      39.072 -11.395  -0.308  1.00  0.00     0.214 C 
BRANCH  15  16
HETATM   16  C   UNL     1      38.858 -12.499  -1.313  1.00  0.00    -0.034 A 
HETATM   17  C   UNL     1      37.644 -12.602  -2.006  1.00  0.00     0.009 A 
HETATM   18  C   UNL     1      37.429 -13.646  -2.908  1.00  0.00     0.001 A 
HETATM   19  C   UNL     1      38.424 -14.598  -3.122  1.00  0.00     0.000 A 
HETATM   20  C   UNL     1      39.632 -14.510  -2.433  1.00  0.00     0.001 A 
HETATM   21  C   UNL     1      39.848 -13.468  -1.530  1.00  0.00     0.009 A 
ENDBRANCH  15  16
ENDBRANCH  14  15
ENDBRANCH  11  14
ENDBRANCH   7   8
ENDBRANCH   2   7
BRANCH   1  22
HETATM   22  C   UNL     1      44.274 -11.631   7.620  1.00  0.00     0.249 C 
HETATM   23  N   UNL     1      43.766 -10.795   8.587  1.00  0.00    -0.355 N 
HETATM   24  H   UNL     1      42.779 -10.814   8.815  1.00  0.00     0.162 HD
HETATM   25  O   UNL     1      45.380 -11.475   7.104  1.00  0.00    -0.271 OA
BRANCH  23  26
HETATM   26  C   UNL     1      44.502  -9.619   9.051  1.00  0.00     0.076 C 
HETATM   27  C   UNL     1      45.266  -9.957  10.328  1.00  0.00     0.032 C 
HETATM   28  C   UNL     1      43.549  -8.449   9.281  1.00  0.00     0.032 C 
ENDBRANCH  23  26
ENDBRANCH   1  22
BRANCH   5  29
HETATM   29  S   UNL     1      43.115 -14.789   3.818  1.00  0.00    -0.085 SA
BRANCH  29  30
HETATM   30  C   UNL     1      43.327 -16.499   3.780  1.00  0.00     0.168 A 
HETATM   31  N   UNL     1      43.266 -17.256   2.714  1.00  0.00    -0.223 NA
HETATM   32  C   UNL     1      43.522 -18.526   3.184  1.00  0.00     0.086 A 
HETATM   33  C   UNL     1      43.744 -18.515   4.560  1.00  0.00     0.063 A 
HETATM   34  C   UNL     1      43.583 -19.744   2.492  1.00  0.00     0.034 A 
HETATM   35  N   UNL     1      43.612 -17.197   4.914  1.00  0.00    -0.333 N 
HETATM   36  C   UNL     1      44.030 -19.663   5.301  1.00  0.00     0.032 A 
HETATM   37  H   UNL     1      43.705 -16.812   5.842  1.00  0.00     0.168 HD
HETATM   38  C   UNL     1      44.086 -20.868   4.592  1.00  0.00     0.002 A 
HETATM   39  C   UNL     1      43.867 -20.911   3.213  1.00  0.00     0.002 A 
ENDBRANCH  29  30
ENDBRANCH   5  29
TORSDOF 9
ENDMDL
MODEL 8
REMARK VINA RESULT:      -8.2      3.564      6.667
REMARK  9 active torsions:
REMARK  status: ('A' for Active; 'I' for Inactive)
REMARK    1  A    between atoms: C_2  and  N_3 
REMARK       I    between atoms: N_3  and  C_4 
REMARK    2  A    between atoms: C_4  and  C_5 
REMARK    3  A    between atoms: N_6  and  C_8 
REMARK    4  A    between atoms: C_8  and  C_9 
REMARK    5  A    between atoms: C_12  and  O_13 
REMARK    6  A    between atoms: O_13  and  C_14 
REMARK    7  A    between atoms: C_14  and  C_15 
REMARK    8  A    between atoms: C_24  and  S_25 
REMARK    9  A    between atoms: S_25  and  C_26 
ROOT
HETATM    1  C   UNL     1      39.402 -12.397   5.633  1.00  0.00     0.280 C 
HETATM    2  N   UNL     1      39.576 -12.195   4.119  1.00  0.00    -0.053 N 
HETATM    3  H   UNL     1      38.652 -11.994   3.714  1.00  0.00     0.281 HD
HETATM    4  C   UNL     1      40.076 -13.549   3.660  1.00  0.00     0.252 C 
HETATM    5  C   UNL     1      40.963 -14.061   4.808  1.00  0.00     0.083 C 
HETATM    6  C   UNL     1      40.667 -13.152   6.010  1.00  0.00     0.060 C 
ENDROOT
BRANCH   2   7
HETATM    7  C   UNL     1      40.461 -11.032   3.708  1.00  0.00     0.274 C 
BRANCH   7   8
HETATM    8  C   UNL     1      40.345 -10.687   2.247  1.00  0.00    -0.032 A 
HETATM    9  C   UNL     1      41.487 -10.630   1.431  1.00  0.00     0.011 A 
HETATM   10  C   UNL     1      41.378 -10.301   0.074  1.00  0.00     0.037 A 
HETATM   11  C   UNL     1      40.129 -10.024  -0.476  1.00  0.00     0.069 A 
HETATM   12  C   UNL     1      38.996 -10.050   0.334  1.00  0.00     0.037 A 
HETATM   13  C   UNL     1      39.096 -10.394   1.682  1.00  0.00     0.011 A 
BRANCH  11  14
HETATM   14  O   UNL     1      39.900  -9.676  -1.775  1.00  0.00    -0.347 OA
BRANCH  14  15
HETATM   15  C   UNL     1      40.531 -10.490  -2.764  1.00  0.00     0.214 C 
BRANCH  15  16
HETATM   16  C   UNL     1      39.825 -11.822  -2.766  1.00  0.00    -0.034 A 
HETATM   17  C   UNL     1      38.425 -11.883  -2.802  1.00  0.00     0.009 A 
HETATM   18  C   UNL     1      37.768 -13.114  -2.765  1.00  0.00     0.001 A 
HETATM   19  C   UNL     1      38.504 -14.295  -2.687  1.00  0.00     0.000 A 
HETATM   20  C   UNL     1      39.896 -14.247  -2.643  1.00  0.00     0.001 A 
HETATM   21  C   UNL     1      40.554 -13.016  -2.678  1.00  0.00     0.009 A 
ENDBRANCH  15  16
ENDBRANCH  14  15
ENDBRANCH  11  14
ENDBRANCH   7   8
ENDBRANCH   2   7
BRANCH   1  22
HETATM   22  C   UNL     1      39.092 -11.108   6.411  1.00  0.00     0.249 C 
HETATM   23  N   UNL     1      39.985 -10.748   7.393  1.00  0.00    -0.355 N 
HETATM   24  H   UNL     1      40.671 -11.413   7.731  1.00  0.00     0.162 HD
HETATM   25  O   UNL     1      38.076 -10.465   6.151  1.00  0.00    -0.271 OA
BRANCH  23  26
HETATM   26  C   UNL     1      39.767  -9.575   8.238  1.00  0.00     0.076 C 
HETATM   27  C   UNL     1      41.103  -8.915   8.563  1.00  0.00     0.032 C 
HETATM   28  C   UNL     1      39.029  -9.967   9.517  1.00  0.00     0.032 C 
ENDBRANCH  23  26
ENDBRANCH   1  22
BRANCH   5  29
HETATM   29  S   UNL     1      42.753 -14.016   4.433  1.00  0.00    -0.085 SA
BRANCH  29  30
HETATM   30  C   UNL     1      43.017 -15.679   4.065  1.00  0.00     0.168 A 
HETATM   31  N   UNL     1      42.793 -16.254   2.910  1.00  0.00    -0.223 NA
HETATM   32  C   UNL     1      43.175 -17.565   3.104  1.00  0.00     0.086 A 
HETATM   33  C   UNL     1      43.639 -17.763   4.403  1.00  0.00     0.063 A 
HETATM   34  C   UNL     1      43.155 -18.647   2.213  1.00  0.00     0.034 A 
HETATM   35  N   UNL     1      43.525 -16.533   4.997  1.00  0.00    -0.333 N 
HETATM   36  C   UNL     1      44.094 -18.996   4.876  1.00  0.00     0.032 A 
HETATM   37  H   UNL     1      43.769 -16.299   5.948  1.00  0.00     0.168 HD
HETATM   38  C   UNL     1      44.066 -20.063   3.971  1.00  0.00     0.002 A 
HETATM   39  C   UNL     1      43.605 -19.894   2.662  1.00  0.00     0.002 A 
ENDBRANCH  29  30
ENDBRANCH   5  29
TORSDOF 9
ENDMDL
MODEL 9
REMARK VINA RESULT:      -8.1      2.239      2.769
REMARK  9 active torsions:
REMARK  status: ('A' for Active; 'I' for Inactive)
REMARK    1  A    between atoms: C_2  and  N_3 
REMARK       I    between atoms: N_3  and  C_4 
REMARK    2  A    between atoms: C_4  and  C_5 
REMARK    3  A    between atoms: N_6  and  C_8 
REMARK    4  A    between atoms: C_8  and  C_9 
REMARK    5  A    between atoms: C_12  and  O_13 
REMARK    6  A    between atoms: O_13  and  C_14 
REMARK    7  A    between atoms: C_14  and  C_15 
REMARK    8  A    between atoms: C_24  and  S_25 
REMARK    9  A    between atoms: S_25  and  C_26 
ROOT
HETATM    1  C   UNL     1      41.541  -9.061   5.106  1.00  0.00     0.280 C 
HETATM    2  N   UNL     1      41.975 -10.536   5.085  1.00  0.00    -0.053 N 
HETATM    3  H   UNL     1      42.955 -10.586   5.393  1.00  0.00     0.281 HD
HETATM    4  C   UNL     1      41.860 -10.892   3.617  1.00  0.00     0.252 C 
HETATM    5  C   UNL     1      40.647 -10.098   3.103  1.00  0.00     0.083 C 
HETATM    6  C   UNL     1      40.326  -9.064   4.192  1.00  0.00     0.060 C 
ENDROOT
BRANCH   2   7
HETATM    7  C   UNL     1      41.209 -11.461   6.013  1.00  0.00     0.274 C 
BRANCH   7   8
HETATM    8  C   UNL     1      41.695 -12.885   5.964  1.00  0.00    -0.032 A 
HETATM    9  C   UNL     1      40.847 -13.919   5.533  1.00  0.00     0.011 A 
HETATM   10  C   UNL     1      41.298 -15.244   5.497  1.00  0.00     0.037 A 
HETATM   11  C   UNL     1      42.599 -15.546   5.891  1.00  0.00     0.069 A 
HETATM   12  C   UNL     1      43.438 -14.529   6.346  1.00  0.00     0.037 A 
HETATM   13  C   UNL     1      42.999 -13.206   6.368  1.00  0.00     0.011 A 
BRANCH  11  14
HETATM   14  O   UNL     1      43.145 -16.796   5.916  1.00  0.00    -0.347 OA
BRANCH  14  15
HETATM   15  C   UNL     1      44.294 -16.995   5.091  1.00  0.00     0.214 C 
BRANCH  15  16
HETATM   16  C   UNL     1      44.071 -18.266   4.311  1.00  0.00    -0.034 A 
HETATM   17  C   UNL     1      43.690 -18.213   2.963  1.00  0.00     0.009 A 
HETATM   18  C   UNL     1      43.445 -19.388   2.249  1.00  0.00     0.001 A 
HETATM   19  C   UNL     1      43.575 -20.625   2.877  1.00  0.00     0.000 A 
HETATM   20  C   UNL     1      43.947 -20.690   4.219  1.00  0.00     0.001 A 
HETATM   21  C   UNL     1      44.190 -19.516   4.934  1.00  0.00     0.009 A 
ENDBRANCH  15  16
ENDBRANCH  14  15
ENDBRANCH  11  14
ENDBRANCH   7   8
ENDBRANCH   2   7
BRANCH   1  22
HETATM   22  C   UNL     1      41.362  -8.477   6.516  1.00  0.00     0.249 C 
HETATM   23  N   UNL     1      40.071  -8.243   6.929  1.00  0.00    -0.355 N 
HETATM   24  H   UNL     1      39.310  -8.240   6.259  1.00  0.00     0.162 HD
HETATM   25  O   UNL     1      42.349  -8.227   7.206  1.00  0.00    -0.271 OA
BRANCH  23  26
HETATM   26  C   UNL     1      39.777  -7.635   8.226  1.00  0.00     0.076 C 
HETATM   27  C   UNL     1      39.433  -8.720   9.241  1.00  0.00     0.032 C 
HETATM   28  C   UNL     1      38.636  -6.628   8.098  1.00  0.00     0.032 C 
ENDBRANCH  23  26
ENDBRANCH   1  22
BRANCH   5  29
HETATM   29  S   UNL     1      39.171 -11.131   2.784  1.00  0.00    -0.085 SA
BRANCH  29  30
HETATM   30  C   UNL     1      39.553 -11.708   1.206  1.00  0.00     0.168 A 
HETATM   31  N   UNL     1      40.149 -11.023   0.262  1.00  0.00    -0.223 NA
HETATM   32  C   UNL     1      40.250 -11.910  -0.789  1.00  0.00     0.086 A 
HETATM   33  C   UNL     1      39.706 -13.148  -0.452  1.00  0.00     0.063 A 
HETATM   34  C   UNL     1      40.799 -11.730  -2.066  1.00  0.00     0.034 A 
HETATM   35  N   UNL     1      39.265 -12.987   0.836  1.00  0.00    -0.333 N 
HETATM   36  C   UNL     1      39.675 -14.237  -1.326  1.00  0.00     0.032 A 
HETATM   37  H   UNL     1      38.810 -13.683   1.407  1.00  0.00     0.168 HD
HETATM   38  C   UNL     1      40.228 -14.037  -2.596  1.00  0.00     0.002 A 
HETATM   39  C   UNL     1      40.780 -12.806  -2.962  1.00  0.00     0.002 A 
ENDBRANCH  29  30
ENDBRANCH   5  29
TORSDOF 9
ENDMDL
MODEL 10
REMARK VINA RESULT:      -8.0      2.173      5.634
REMARK  9 active torsions:
REMARK  status: ('A' for Active; 'I' for Inactive)
REMARK    1  A    between atoms: C_2  and  N_3 
REMARK       I    between atoms: N_3  and  C_4 
REMARK    2  A    between atoms: C_4  and  C_5 
REMARK    3  A    between atoms: N_6  and  C_8 
REMARK    4  A    between atoms: C_8  and  C_9 
REMARK    5  A    between atoms: C_12  and  O_13 
REMARK    6  A    between atoms: O_13  and  C_14 
REMARK    7  A    between atoms: C_14  and  C_15 
REMARK    8  A    between atoms: C_24  and  S_25 
REMARK    9  A    between atoms: S_25  and  C_26 
ROOT
HETATM    1  C   UNL     1      42.933  -9.500   6.830  1.00  0.00     0.280 C 
HETATM    2  N   UNL     1      42.204 -10.376   5.798  1.00  0.00    -0.053 N 
HETATM    3  H   UNL     1      42.913 -10.860   5.231  1.00  0.00     0.281 HD
HETATM    4  C   UNL     1      41.461  -9.353   4.963  1.00  0.00     0.252 C 
HETATM    5  C   UNL     1      41.049  -8.249   5.952  1.00  0.00     0.083 C 
HETATM    6  C   UNL     1      41.857  -8.504   7.232  1.00  0.00     0.060 C 
ENDROOT
BRANCH   2   7
HETATM    7  C   UNL     1      41.323 -11.472   6.370  1.00  0.00     0.274 C 
BRANCH   7   8
HETATM    8  C   UNL     1      41.451 -12.779   5.635  1.00  0.00    -0.032 A 
HETATM    9  C   UNL     1      40.312 -13.452   5.164  1.00  0.00     0.011 A 
HETATM   10  C   UNL     1      40.432 -14.672   4.487  1.00  0.00     0.037 A 
HETATM   11  C   UNL     1      41.691 -15.229   4.278  1.00  0.00     0.069 A 
HETATM   12  C   UNL     1      42.824 -14.581   4.767  1.00  0.00     0.037 A 
HETATM   13  C   UNL     1      42.711 -13.358   5.426  1.00  0.00     0.011 A 
BRANCH  11  14
HETATM   14  O   UNL     1      41.934 -16.416   3.650  1.00  0.00    -0.347 OA
BRANCH  14  15
HETATM   15  C   UNL     1      43.297 -16.683   3.316  1.00  0.00     0.214 C 
BRANCH  15  16
HETATM   16  C   UNL     1      43.497 -18.174   3.406  1.00  0.00    -0.034 A 
HETATM   17  C   UNL     1      43.969 -18.757   4.590  1.00  0.00     0.009 A 
HETATM   18  C   UNL     1      44.191 -20.134   4.663  1.00  0.00     0.001 A 
HETATM   19  C   UNL     1      43.948 -20.939   3.552  1.00  0.00     0.000 A 
HETATM   20  C   UNL     1      43.486 -20.371   2.367  1.00  0.00     0.001 A 
HETATM   21  C   UNL     1      43.264 -18.994   2.292  1.00  0.00     0.009 A 
ENDBRANCH  15  16
ENDBRANCH  14  15
ENDBRANCH  11  14
ENDBRANCH   7   8
ENDBRANCH   2   7
BRANCH   1  22
HETATM   22  C   UNL     1      43.619 -10.289   7.956  1.00  0.00     0.249 C 
HETATM   23  N   UNL     1      43.273  -9.957   9.245  1.00  0.00    -0.355 N 
HETATM   24  H   UNL     1      42.776  -9.095   9.437  1.00  0.00     0.162 HD
HETATM   25  O   UNL     1      44.446 -11.158   7.679  1.00  0.00    -0.271 OA
BRANCH  23  26
HETATM   26  C   UNL     1      43.901 -10.598  10.400  1.00  0.00     0.076 C 
HETATM   27  C   UNL     1      43.077 -10.327  11.654  1.00  0.00     0.032 C 
HETATM   28  C   UNL     1      45.335 -10.100  10.572  1.00  0.00     0.032 C 
ENDBRANCH  23  26
ENDBRANCH   1  22
BRANCH   5  29
HETATM   29  S   UNL     1      39.262  -8.241   6.345  1.00  0.00    -0.085 SA
BRANCH  29  30
HETATM   30  C   UNL     1      39.340  -8.321   8.065  1.00  0.00     0.168 A 
HETATM   31  N   UNL     1      39.298  -7.300   8.883  1.00  0.00    -0.223 NA
HETATM   32  C   UNL     1      39.370  -7.867  10.138  1.00  0.00     0.086 A 
HETATM   33  C   UNL     1      39.450  -9.256  10.055  1.00  0.00     0.063 A 
HETATM   34  C   UNL     1      39.369  -7.257  11.400  1.00  0.00     0.034 A 
HETATM   35  N   UNL     1      39.429  -9.518   8.709  1.00  0.00    -0.333 N 
HETATM   36  C   UNL     1      39.530 -10.088  11.172  1.00  0.00     0.032 A 
HETATM   37  H   UNL     1      39.474 -10.427   8.273  1.00  0.00     0.168 HD
HETATM   38  C   UNL     1      39.528  -9.460  12.423  1.00  0.00     0.002 A 
HETATM   39  C   UNL     1      39.449  -8.070  12.538  1.00  0.00     0.002 A 
ENDBRANCH  29  30
ENDBRANCH   5  29
TORSDOF 9
ENDMDL
