MODEL 1
REMARK VINA RESULT:      -7.3      0.000      0.000
REMARK  11 active torsions:
REMARK  status: ('A' for Active; 'I' for Inactive)
REMARK    1  A    between atoms: C_1  and  C_17 
REMARK    2  A    between atoms: C_1  and  S_18 
REMARK    3  A    between atoms: C_2  and  N_23 
REMARK    4  A    between atoms: C_3  and  C_13 
REMARK    5  A    between atoms: C_6  and  S_18 
REMARK    6  A    between atoms: C_6  and  S_19 
REMARK    7  A    between atoms: C_7  and  C_20 
REMARK    8  A    between atoms: C_7  and  C_21 
REMARK    9  A    between atoms: C_9  and  C_24 
REMARK   10  A    between atoms: C_16  and  C_17 
REMARK   11  A    between atoms: S_19  and  C_20 
ROOT
HETATM    1  C           1      40.270 -13.212   4.920  0.00  0.00     0.092 C 
HETATM    2  C           1      41.917 -13.321   3.173  0.00  0.00     0.156 C 
HETATM    3  C           1      41.441 -12.414   5.424  0.00  0.00     0.127 C 
HETATM    4  C           1      42.285 -12.148   4.149  0.00  0.00     0.136 C 
HETATM    5  C           1      41.855 -10.845   3.549  0.00  0.00     0.079 C 
HETATM    6  N           1      41.514  -9.792   3.201  0.00  0.00    -0.196 NA
HETATM    7  C           1      42.296 -12.968   6.650  0.00  0.00     0.248 C 
HETATM    8  C           1      44.218 -11.750   5.799  0.00  0.00     0.105 C 
HETATM    9  N           1      40.536 -13.689   3.734  0.00  0.00    -0.350 N 
HETATM   10  N           1      43.457 -11.996   7.012  0.00  0.00    -0.040 N 
HETATM   11  C           1      45.664 -11.369   6.020  0.00  0.00     0.075 C 
HETATM   12  C           1      43.728 -11.889   4.547  0.00  0.00     0.036 C 
HETATM   13  H           1      39.862 -14.265   3.212  0.00  0.00     0.163 HD
HETATM   14  H           1      44.077 -12.488   7.696  0.00  0.00     0.284 HD
HETATM   15  H           1      43.148 -11.108   7.456  0.00  0.00     0.284 HD
ENDROOT
BRANCH   2  16
HETATM   16  S           1      41.654 -12.804   1.442  0.00  0.00    -0.125 SA
BRANCH  16  17
HETATM   17  C           1      40.027 -13.508   1.043  0.00  0.00     0.077 C 
BRANCH  17  18
HETATM   18  C           1      40.210 -14.623   0.001  0.00  0.00     0.010 C 
BRANCH  18  19
HETATM   19  C           1      39.356 -14.370  -1.253  0.00  0.00    -0.004 C 
HETATM   20  C           1      40.212 -13.930  -2.449  0.00  0.00     0.005 C 
ENDBRANCH  18  19
ENDBRANCH  17  18
ENDBRANCH  16  17
ENDBRANCH   2  16
BRANCH   2  21
HETATM   21  S           1      43.089 -14.701   3.374  0.00  0.00    -0.125 SA
BRANCH  21  22
HETATM   22  C           1      42.054 -16.113   2.884  0.00  0.00     0.077 C 
BRANCH  22  23
HETATM   23  C           1      42.901 -17.067   2.024  0.00  0.00     0.010 C 
BRANCH  23  24
HETATM   24  C           1      43.502 -18.203   2.865  0.00  0.00    -0.004 C 
HETATM   25  C           1      43.282 -19.574   2.212  0.00  0.00     0.005 C 
ENDBRANCH  23  24
ENDBRANCH  22  23
ENDBRANCH  21  22
ENDBRANCH   2  21
BRANCH   3  26
HETATM   26  C           1      41.128 -11.114   6.075  0.00  0.00     0.105 C 
HETATM   27  N           1      40.277 -10.687   6.736  0.00  0.00    -0.151 N 
ENDBRANCH   3  26
BRANCH   1  28
HETATM   28  N           1      39.187 -13.405   5.549  0.00  0.00    -0.388 N 
HETATM   29  H           1      38.601 -12.599   5.878  0.00  0.00     0.157 HD
HETATM   30  H           1      38.860 -14.380   5.762  0.00  0.00     0.157 HD
ENDBRANCH   1  28
BRANCH   7  31
HETATM   31  C           1      42.748 -14.422   6.571  0.00  0.00    -0.026 A 
HETATM   32  C           1      44.040 -14.801   6.519  0.00  0.00     0.009 A 
HETATM   33  C           1      44.396 -16.093   6.464  0.00  0.00     0.001 A 
HETATM   34  C           1      43.460 -17.054   6.473  0.00  0.00     0.000 A 
HETATM   35  C           1      42.168 -16.704   6.546  0.00  0.00     0.001 A 
HETATM   36  C           1      41.829 -15.407   6.602  0.00  0.00     0.009 A 
ENDBRANCH   7  31
TORSDOF 11
ENDMDL
MODEL 2
REMARK VINA RESULT:      -6.7      1.941      6.536
REMARK  11 active torsions:
REMARK  status: ('A' for Active; 'I' for Inactive)
REMARK    1  A    between atoms: C_1  and  C_17 
REMARK    2  A    between atoms: C_1  and  S_18 
REMARK    3  A    between atoms: C_2  and  N_23 
REMARK    4  A    between atoms: C_3  and  C_13 
REMARK    5  A    between atoms: C_6  and  S_18 
REMARK    6  A    between atoms: C_6  and  S_19 
REMARK    7  A    between atoms: C_7  and  C_20 
REMARK    8  A    between atoms: C_7  and  C_21 
REMARK    9  A    between atoms: C_9  and  C_24 
REMARK   10  A    between atoms: C_16  and  C_17 
REMARK   11  A    between atoms: S_19  and  C_20 
ROOT
HETATM    1  C           1      40.498 -13.215   5.300  0.00  0.00     0.092 C 
HETATM    2  C           1      42.628 -12.658   4.335  0.00  0.00     0.156 C 
HETATM    3  C           1      41.069 -14.518   4.810  0.00  0.00     0.127 C 
HETATM    4  C           1      42.573 -14.206   4.593  0.00  0.00     0.136 C 
HETATM    5  C           1      43.319 -14.530   5.850  0.00  0.00     0.079 C 
HETATM    6  N           1      43.825 -14.882   6.833  0.00  0.00    -0.196 NA
HETATM    7  C           1      40.385 -15.257   3.574  0.00  0.00     0.248 C 
HETATM    8  C           1      42.534 -16.264   3.049  0.00  0.00     0.105 C 
HETATM    9  N           1      41.327 -12.242   5.038  0.00  0.00    -0.350 N 
HETATM   10  N           1      41.128 -16.582   3.229  0.00  0.00    -0.040 N 
HETATM   11  C           1      43.292 -17.212   2.149  0.00  0.00     0.075 C 
HETATM   12  C           1      43.148 -15.185   3.584  0.00  0.00     0.036 C 
HETATM   13  H           1      41.124 -11.266   5.294  0.00  0.00     0.163 HD
HETATM   14  H           1      40.748 -16.925   2.317  0.00  0.00     0.284 HD
HETATM   15  H           1      40.994 -17.340   3.928  0.00  0.00     0.284 HD
ENDROOT
BRANCH   2  16
HETATM   16  S           1      43.985 -11.800   5.202  0.00  0.00    -0.125 SA
BRANCH  16  17
HETATM   17  C           1      43.150 -11.033   6.622  0.00  0.00     0.077 C 
BRANCH  17  18
HETATM   18  C           1      44.105 -11.049   7.827  0.00  0.00     0.010 C 
BRANCH  18  19
HETATM   19  C           1      45.572 -10.911   7.386  0.00  0.00    -0.004 C 
HETATM   20  C           1      46.219  -9.636   7.945  0.00  0.00     0.005 C 
ENDBRANCH  18  19
ENDBRANCH  17  18
ENDBRANCH  16  17
ENDBRANCH   2  16
BRANCH   2  21
HETATM   21  S           1      42.541 -12.312   2.549  0.00  0.00    -0.125 SA
BRANCH  21  22
HETATM   22  C           1      41.864 -10.624   2.552  0.00  0.00     0.077 C 
BRANCH  22  23
HETATM   23  C           1      41.678 -10.168   1.096  0.00  0.00     0.010 C 
BRANCH  23  24
HETATM   24  C           1      40.612  -9.068   0.979  0.00  0.00    -0.004 C 
HETATM   25  C           1      39.724  -9.000   2.229  0.00  0.00     0.005 C 
ENDBRANCH  23  24
ENDBRANCH  22  23
ENDBRANCH  21  22
ENDBRANCH   2  21
BRANCH   3  26
HETATM   26  C           1      40.946 -15.683   5.727  0.00  0.00     0.105 C 
HETATM   27  N           1      40.159 -16.083   6.479  0.00  0.00    -0.151 N 
ENDBRANCH   3  26
BRANCH   1  28
HETATM   28  N           1      39.376 -13.073   5.872  0.00  0.00    -0.388 N 
HETATM   29  H           1      38.697 -13.871   5.937  0.00  0.00     0.157 HD
HETATM   30  H           1      39.102 -12.148   6.285  0.00  0.00     0.157 HD
ENDBRANCH   1  28
BRANCH   7  31
HETATM   31  C           1      40.094 -14.407   2.342  0.00  0.00    -0.026 A 
HETATM   32  C           1      40.576 -14.682   1.114  0.00  0.00     0.009 A 
HETATM   33  C           1      40.284 -13.915   0.052  0.00  0.00     0.001 A 
HETATM   34  C           1      39.483 -12.849   0.188  0.00  0.00     0.000 A 
HETATM   35  C           1      38.974 -12.566   1.395  0.00  0.00     0.001 A 
HETATM   36  C           1      39.274 -13.343   2.446  0.00  0.00     0.009 A 
ENDBRANCH   7  31
TORSDOF 11
ENDMDL
MODEL 3
REMARK VINA RESULT:      -6.6      1.821      5.513
REMARK  11 active torsions:
REMARK  status: ('A' for Active; 'I' for Inactive)
REMARK    1  A    between atoms: C_1  and  C_17 
REMARK    2  A    between atoms: C_1  and  S_18 
REMARK    3  A    between atoms: C_2  and  N_23 
REMARK    4  A    between atoms: C_3  and  C_13 
REMARK    5  A    between atoms: C_6  and  S_18 
REMARK    6  A    between atoms: C_6  and  S_19 
REMARK    7  A    between atoms: C_7  and  C_20 
REMARK    8  A    between atoms: C_7  and  C_21 
REMARK    9  A    between atoms: C_9  and  C_24 
REMARK   10  A    between atoms: C_16  and  C_17 
REMARK   11  A    between atoms: S_19  and  C_20 
ROOT
HETATM    1  C           1      43.151 -12.852   3.480  0.00  0.00     0.092 C 
HETATM    2  C           1      41.322 -14.384   3.772  0.00  0.00     0.156 C 
HETATM    3  C           1      42.274 -12.234   4.536  0.00  0.00     0.127 C 
HETATM    4  C           1      41.368 -13.404   4.999  0.00  0.00     0.136 C 
HETATM    5  C           1      42.019 -14.088   6.160  0.00  0.00     0.079 C 
HETATM    6  N           1      42.555 -14.505   7.101  0.00  0.00    -0.196 NA
HETATM    7  C           1      41.471 -10.898   4.202  0.00  0.00     0.248 C 
HETATM    8  C           1      39.805 -11.545   5.847  0.00  0.00     0.105 C 
HETATM    9  N           1      42.634 -13.983   3.082  0.00  0.00    -0.350 N 
HETATM   10  N           1      40.629 -10.427   5.424  0.00  0.00    -0.040 N 
HETATM   11  C           1      38.530 -11.164   6.563  0.00  0.00     0.075 C 
HETATM   12  C           1      40.089 -12.843   5.596  0.00  0.00     0.036 C 
HETATM   13  H           1      43.081 -14.566   2.362  0.00  0.00     0.163 HD
HETATM   14  H           1      39.999  -9.659   5.093  0.00  0.00     0.284 HD
HETATM   15  H           1      41.193 -10.049   6.211  0.00  0.00     0.284 HD
ENDROOT
BRANCH   2  16
HETATM   16  S           1      41.484 -16.148   4.213  0.00  0.00    -0.125 SA
BRANCH  16  17
HETATM   17  C           1      43.117 -16.591   3.551  0.00  0.00     0.077 C 
BRANCH  17  18
HETATM   18  C           1      42.937 -17.656   2.457  0.00  0.00     0.010 C 
BRANCH  18  19
HETATM   19  C           1      43.761 -18.919   2.758  0.00  0.00    -0.004 C 
HETATM   20  C           1      43.218 -20.148   2.016  0.00  0.00     0.005 C 
ENDBRANCH  18  19
ENDBRANCH  17  18
ENDBRANCH  16  17
ENDBRANCH   2  16
BRANCH   2  21
HETATM   21  S           1      39.888 -14.004   2.714  0.00  0.00    -0.125 SA
BRANCH  21  22
HETATM   22  C           1      40.057 -15.276   1.426  0.00  0.00     0.077 C 
BRANCH  22  23
HETATM   23  C           1      40.625 -14.617   0.158  0.00  0.00     0.010 C 
BRANCH  23  24
HETATM   24  C           1      39.541 -14.431  -0.916  0.00  0.00    -0.004 C 
HETATM   25  C           1      40.124 -13.878  -2.224  0.00  0.00     0.005 C 
ENDBRANCH  23  24
ENDBRANCH  22  23
ENDBRANCH  21  22
ENDBRANCH   2  21
BRANCH   3  26
HETATM   26  C           1      42.967 -11.662   5.722  0.00  0.00     0.105 C 
HETATM   27  N           1      43.977 -11.135   5.933  0.00  0.00    -0.151 N 
ENDBRANCH   3  26
BRANCH   1  28
HETATM   28  N           1      44.225 -12.352   3.032  0.00  0.00    -0.388 N 
HETATM   29  H           1      44.234 -11.803   2.137  0.00  0.00     0.157 HD
HETATM   30  H           1      45.131 -12.487   3.545  0.00  0.00     0.157 HD
ENDBRANCH   1  28
BRANCH   7  31
HETATM   31  C           1      40.679 -10.880   2.898  0.00  0.00    -0.026 A 
HETATM   32  C           1      39.339 -10.747   2.840  0.00  0.00     0.009 A 
HETATM   33  C           1      38.681 -10.723   1.672  0.00  0.00     0.001 A 
HETATM   34  C           1      39.353 -10.820   0.515  0.00  0.00     0.000 A 
HETATM   35  C           1      40.688 -10.932   0.545  0.00  0.00     0.001 A 
HETATM   36  C           1      41.332 -10.952   1.722  0.00  0.00     0.009 A 
ENDBRANCH   7  31
TORSDOF 11
ENDMDL
MODEL 4
REMARK VINA RESULT:      -6.4     16.349     18.853
REMARK  11 active torsions:
REMARK  status: ('A' for Active; 'I' for Inactive)
REMARK    1  A    between atoms: C_1  and  C_17 
REMARK    2  A    between atoms: C_1  and  S_18 
REMARK    3  A    between atoms: C_2  and  N_23 
REMARK    4  A    between atoms: C_3  and  C_13 
REMARK    5  A    between atoms: C_6  and  S_18 
REMARK    6  A    between atoms: C_6  and  S_19 
REMARK    7  A    between atoms: C_7  and  C_20 
REMARK    8  A    between atoms: C_7  and  C_21 
REMARK    9  A    between atoms: C_9  and  C_24 
REMARK   10  A    between atoms: C_16  and  C_17 
REMARK   11  A    between atoms: S_19  and  C_20 
ROOT
HETATM    1  C           1      47.517 -28.902   0.122  0.00  0.00     0.092 C 
HETATM    2  C           1      47.802 -31.053  -0.911  0.00  0.00     0.156 C 
HETATM    3  C           1      46.305 -29.700   0.517  0.00  0.00     0.127 C 
HETATM    4  C           1      46.708 -31.165   0.210  0.00  0.00     0.136 C 
HETATM    5  C           1      47.313 -31.767   1.439  0.00  0.00     0.079 C 
HETATM    6  N           1      47.694 -32.175   2.457  0.00  0.00    -0.196 NA
HETATM    7  C           1      44.877 -29.295  -0.065  0.00  0.00     0.248 C 
HETATM    8  C           1      44.174 -31.607   0.181  0.00  0.00     0.105 C 
HETATM    9  N           1      48.296 -29.625  -0.636  0.00  0.00    -0.350 N 
HETATM   10  N           1      43.762 -30.243   0.465  0.00  0.00    -0.040 N 
HETATM   11  C           1      43.042 -32.599   0.042  0.00  0.00     0.075 C 
HETATM   12  C           1      45.455 -31.997  -0.005  0.00  0.00     0.036 C 
HETATM   13  H           1      49.182 -29.264  -1.014  0.00  0.00     0.163 HD
HETATM   14  H           1      42.893 -30.041  -0.080  0.00  0.00     0.284 HD
HETATM   15  H           1      43.536 -30.115   1.472  0.00  0.00     0.284 HD
ENDROOT
BRANCH   2  16
HETATM   16  S           1      49.237 -32.155  -0.674  0.00  0.00    -0.125 SA
BRANCH  16  17
HETATM   17  C           1      50.576 -31.003  -0.244  0.00  0.00     0.077 C 
BRANCH  17  18
HETATM   18  C           1      51.026 -31.281   1.199  0.00  0.00     0.010 C 
BRANCH  18  19
HETATM   19  C           1      50.692 -30.104   2.131  0.00  0.00    -0.004 C 
HETATM   20  C           1      50.786 -30.501   3.611  0.00  0.00     0.005 C 
ENDBRANCH  18  19
ENDBRANCH  17  18
ENDBRANCH  16  17
ENDBRANCH   2  16
BRANCH   2  21
HETATM   21  S           1      47.032 -31.168  -2.558  0.00  0.00    -0.125 SA
BRANCH  21  22
HETATM   22  C           1      47.574 -32.823  -3.083  0.00  0.00     0.077 C 
BRANCH  22  23
HETATM   23  C           1      46.332 -33.708  -3.274  0.00  0.00     0.010 C 
BRANCH  23  24
HETATM   24  C           1      45.192 -32.942  -3.964  0.00  0.00    -0.004 C 
HETATM   25  C           1      43.815 -33.391  -3.457  0.00  0.00     0.005 C 
ENDBRANCH  23  24
ENDBRANCH  22  23
ENDBRANCH  21  22
ENDBRANCH   2  21
BRANCH   3  26
HETATM   26  C           1      45.882 -29.604   1.941  0.00  0.00     0.105 C 
HETATM   27  N           1      45.786 -28.766   2.736  0.00  0.00    -0.151 N 
ENDBRANCH   3  26
BRANCH   1  28
HETATM   28  N           1      47.751 -27.703   0.461  0.00  0.00    -0.388 N 
HETATM   29  H           1      48.404 -27.482   1.252  0.00  0.00     0.157 HD
HETATM   30  H           1      47.285 -26.907  -0.041  0.00  0.00     0.157 HD
ENDBRANCH   1  28
BRANCH   7  31
HETATM   31  C           1      44.790 -29.067  -1.571  0.00  0.00    -0.026 A 
HETATM   32  C           1      43.982 -29.772  -2.387  0.00  0.00     0.009 A 
HETATM   33  C           1      43.924 -29.531  -3.706  0.00  0.00     0.001 A 
HETATM   34  C           1      44.672 -28.559  -4.249  0.00  0.00     0.000 A 
HETATM   35  C           1      45.468 -27.830  -3.455  0.00  0.00     0.001 A 
HETATM   36  C           1      45.513 -28.082  -2.138  0.00  0.00     0.009 A 
ENDBRANCH   7  31
TORSDOF 11
ENDMDL
MODEL 5
REMARK VINA RESULT:      -6.1      4.819      7.216
REMARK  11 active torsions:
REMARK  status: ('A' for Active; 'I' for Inactive)
REMARK    1  A    between atoms: C_1  and  C_17 
REMARK    2  A    between atoms: C_1  and  S_18 
REMARK    3  A    between atoms: C_2  and  N_23 
REMARK    4  A    between atoms: C_3  and  C_13 
REMARK    5  A    between atoms: C_6  and  S_18 
REMARK    6  A    between atoms: C_6  and  S_19 
REMARK    7  A    between atoms: C_7  and  C_20 
REMARK    8  A    between atoms: C_7  and  C_21 
REMARK    9  A    between atoms: C_9  and  C_24 
REMARK   10  A    between atoms: C_16  and  C_17 
REMARK   11  A    between atoms: S_19  and  C_20 
ROOT
HETATM    1  C           1      39.581  -9.713   9.742  0.00  0.00     0.092 C 
HETATM    2  C           1      40.704  -8.888   7.784  0.00  0.00     0.156 C 
HETATM    3  C           1      39.932  -8.284  10.054  0.00  0.00     0.127 C 
HETATM    4  C           1      40.254  -7.669   8.667  0.00  0.00     0.136 C 
HETATM    5  C           1      39.003  -7.076   8.099  0.00  0.00     0.079 C 
HETATM    6  N           1      38.008  -6.574   7.774  0.00  0.00    -0.196 NA
HETATM    7  C           1      41.034  -7.973  11.163  0.00  0.00     0.248 C 
HETATM    8  C           1      41.529  -5.888  10.017  0.00  0.00     0.105 C 
HETATM    9  N           1      39.999 -10.020   8.544  0.00  0.00    -0.350 N 
HETATM   10  N           1      41.247  -6.439  11.331  0.00  0.00    -0.040 N 
HETATM   11  C           1      42.339  -4.613  10.021  0.00  0.00     0.075 C 
HETATM   12  C           1      41.161  -6.464   8.850  0.00  0.00     0.036 C 
HETATM   13  H           1      39.857 -10.955   8.138  0.00  0.00     0.163 HD
HETATM   14  H           1      42.091  -6.304  11.934  0.00  0.00     0.284 HD
HETATM   15  H           1      40.455  -5.947  11.789  0.00  0.00     0.284 HD
ENDROOT
BRANCH   2  16
HETATM   16  S           1      40.013  -8.886   6.095  0.00  0.00    -0.125 SA
BRANCH  16  17
HETATM   17  C           1      39.173 -10.495   5.990  0.00  0.00     0.077 C 
BRANCH  17  18
HETATM   18  C           1      39.594 -11.190   4.685  0.00  0.00     0.010 C 
BRANCH  18  19
HETATM   19  C           1      39.527 -12.721   4.814  0.00  0.00    -0.004 C 
HETATM   20  C           1      40.216 -13.217   6.093  0.00  0.00     0.005 C 
ENDBRANCH  18  19
ENDBRANCH  17  18
ENDBRANCH  16  17
ENDBRANCH   2  16
BRANCH   2  21
HETATM   21  S           1      42.513  -9.085   7.855  0.00  0.00    -0.125 SA
BRANCH  21  22
HETATM   22  C           1      42.740 -10.589   6.858  0.00  0.00     0.077 C 
BRANCH  22  23
HETATM   23  C           1      43.765 -11.494   7.562  0.00  0.00     0.010 C 
BRANCH  23  24
HETATM   24  C           1      45.122 -11.480   6.840  0.00  0.00    -0.004 C 
HETATM   25  C           1      46.142 -10.587   7.561  0.00  0.00     0.005 C 
ENDBRANCH  23  24
ENDBRANCH  22  23
ENDBRANCH  21  22
ENDBRANCH   2  21
BRANCH   3  26
HETATM   26  C           1      38.873  -7.468  10.708  0.00  0.00     0.105 C 
HETATM   27  N           1      38.316  -7.471  11.725  0.00  0.00    -0.151 N 
ENDBRANCH   3  26
BRANCH   1  28
HETATM   28  N           1      38.979 -10.510  10.523  0.00  0.00    -0.388 N 
HETATM   29  H           1      39.192 -11.537  10.517  0.00  0.00     0.157 HD
HETATM   30  H           1      38.247 -10.155  11.186  0.00  0.00     0.157 HD
ENDBRANCH   1  28
BRANCH   7  31
HETATM   31  C           1      42.348  -8.742  11.059  0.00  0.00    -0.026 A 
HETATM   32  C           1      43.526  -8.169  10.745  0.00  0.00     0.009 A 
HETATM   33  C           1      44.662  -8.879  10.678  0.00  0.00     0.001 A 
HETATM   34  C           1      44.653 -10.194  10.939  0.00  0.00     0.000 A 
HETATM   35  C           1      43.498 -10.784  11.275  0.00  0.00     0.001 A 
HETATM   36  C           1      42.371 -10.059  11.340  0.00  0.00     0.009 A 
ENDBRANCH   7  31
TORSDOF 11
ENDMDL
MODEL 6
REMARK VINA RESULT:      -6.0      8.631     12.198
REMARK  11 active torsions:
REMARK  status: ('A' for Active; 'I' for Inactive)
REMARK    1  A    between atoms: C_1  and  C_17 
REMARK    2  A    between atoms: C_1  and  S_18 
REMARK    3  A    between atoms: C_2  and  N_23 
REMARK    4  A    between atoms: C_3  and  C_13 
REMARK    5  A    between atoms: C_6  and  S_18 
REMARK    6  A    between atoms: C_6  and  S_19 
REMARK    7  A    between atoms: C_7  and  C_20 
REMARK    8  A    between atoms: C_7  and  C_21 
REMARK    9  A    between atoms: C_9  and  C_24 
REMARK   10  A    between atoms: C_16  and  C_17 
REMARK   11  A    between atoms: S_19  and  C_20 
ROOT
HETATM    1  C           1      41.889  -6.621  10.453  0.00  0.00     0.092 C 
HETATM    2  C           1      39.691  -6.284  11.366  0.00  0.00     0.156 C 
HETATM    3  C           1      41.326  -8.001  10.662  0.00  0.00     0.127 C 
HETATM    4  C           1      39.804  -7.758  10.836  0.00  0.00     0.136 C 
HETATM    5  C           1      39.142  -7.860   9.497  0.00  0.00     0.079 C 
HETATM    6  N           1      38.705  -8.035   8.436  0.00  0.00    -0.196 NA
HETATM    7  C           1      41.955  -8.941  11.784  0.00  0.00     0.248 C 
HETATM    8  C           1      39.809 -10.062  11.981  0.00  0.00     0.105 C 
HETATM    9  N           1      41.019  -5.726  10.833  0.00  0.00    -0.350 N 
HETATM   10  N           1      41.231 -10.319  11.836  0.00  0.00    -0.040 N 
HETATM   11  C           1      39.025 -11.171  12.646  0.00  0.00     0.075 C 
HETATM   12  C           1      39.197  -8.914  11.613  0.00  0.00     0.036 C 
HETATM   13  H           1      41.209  -4.717  10.772  0.00  0.00     0.163 HD
HETATM   14  H           1      41.566 -10.817  12.693  0.00  0.00     0.284 HD
HETATM   15  H           1      41.427 -10.935  11.022  0.00  0.00     0.284 HD
ENDROOT
BRANCH   2  16
HETATM   16  S           1      38.364  -5.305  10.585  0.00  0.00    -0.125 SA
BRANCH  16  17
HETATM   17  C           1      37.194  -5.032  11.949  0.00  0.00     0.077 C 
BRANCH  17  18
HETATM   18  C           1      36.269  -3.860  11.582  0.00  0.00     0.010 C 
BRANCH  18  19
HETATM   19  C           1      36.136  -2.860  12.743  0.00  0.00    -0.004 C 
HETATM   20  C           1      37.505  -2.418  13.276  0.00  0.00     0.005 C 
ENDBRANCH  18  19
ENDBRANCH  17  18
ENDBRANCH  16  17
ENDBRANCH   2  16
BRANCH   2  21
HETATM   21  S           1      39.663  -6.269  13.187  0.00  0.00    -0.125 SA
BRANCH  21  22
HETATM   22  C           1      40.493  -4.689  13.536  0.00  0.00     0.077 C 
BRANCH  22  23
HETATM   23  C           1      40.269  -4.334  15.015  0.00  0.00     0.010 C 
BRANCH  23  24
HETATM   24  C           1      39.246  -5.272  15.674  0.00  0.00    -0.004 C 
HETATM   25  C           1      39.584  -5.540  17.147  0.00  0.00     0.005 C 
ENDBRANCH  23  24
ENDBRANCH  22  23
ENDBRANCH  21  22
ENDBRANCH   2  21
BRANCH   3  26
HETATM   26  C           1      41.535  -8.977   9.559  0.00  0.00     0.105 C 
HETATM   27  N           1      42.422  -9.319   8.895  0.00  0.00    -0.151 N 
ENDBRANCH   3  26
BRANCH   1  28
HETATM   28  N           1      43.038  -6.359   9.988  0.00  0.00    -0.388 N 
HETATM   29  H           1      43.725  -7.124   9.780  0.00  0.00     0.157 HD
HETATM   30  H           1      43.327  -5.365   9.810  0.00  0.00     0.157 HD
ENDBRANCH   1  28
BRANCH   7  31
HETATM   31  C           1      42.150  -8.325  13.166  0.00  0.00    -0.026 A 
HETATM   32  C           1      41.471  -8.720  14.262  0.00  0.00     0.009 A 
HETATM   33  C           1      41.682  -8.161  15.463  0.00  0.00     0.001 A 
HETATM   34  C           1      42.597  -7.190  15.606  0.00  0.00     0.000 A 
HETATM   35  C           1      43.300  -6.794  14.536  0.00  0.00     0.001 A 
HETATM   36  C           1      43.078  -7.365  13.342  0.00  0.00     0.009 A 
ENDBRANCH   7  31
TORSDOF 11
ENDMDL
MODEL 7
REMARK VINA RESULT:      -5.8      6.737      9.354
REMARK  11 active torsions:
REMARK  status: ('A' for Active; 'I' for Inactive)
REMARK    1  A    between atoms: C_1  and  C_17 
REMARK    2  A    between atoms: C_1  and  S_18 
REMARK    3  A    between atoms: C_2  and  N_23 
REMARK    4  A    between atoms: C_3  and  C_13 
REMARK    5  A    between atoms: C_6  and  S_18 
REMARK    6  A    between atoms: C_6  and  S_19 
REMARK    7  A    between atoms: C_7  and  C_20 
REMARK    8  A    between atoms: C_7  and  C_21 
REMARK    9  A    between atoms: C_9  and  C_24 
REMARK   10  A    between atoms: C_16  and  C_17 
REMARK   11  A    between atoms: S_19  and  C_20 
ROOT
HETATM    1  C           1      39.644  -7.719  10.137  0.00  0.00     0.092 C 
HETATM    2  C           1      41.963  -7.658   9.506  0.00  0.00     0.156 C 
HETATM    3  C           1      40.114  -6.329  10.472  0.00  0.00     0.127 C 
HETATM    4  C           1      41.443  -6.187   9.685  0.00  0.00     0.136 C 
HETATM    5  C           1      41.147  -5.595   8.342  0.00  0.00     0.079 C 
HETATM    6  N           1      40.836  -5.062   7.359  0.00  0.00    -0.196 NA
HETATM    7  C           1      40.227  -5.888  12.000  0.00  0.00     0.248 C 
HETATM    8  C           1      41.962  -4.310  11.367  0.00  0.00     0.105 C 
HETATM    9  N           1      40.630  -8.410   9.634  0.00  0.00    -0.350 N 
HETATM   10  N           1      40.729  -4.420  12.127  0.00  0.00    -0.040 N 
HETATM   11  C           1      42.903  -3.223  11.831  0.00  0.00     0.075 C 
HETATM   12  C           1      42.309  -5.129  10.348  0.00  0.00     0.036 C 
HETATM   13  H           1      40.517  -9.389   9.337  0.00  0.00     0.163 HD
HETATM   14  H           1      40.947  -4.249  13.136  0.00  0.00     0.284 HD
HETATM   15  H           1      40.035  -3.705  11.833  0.00  0.00     0.284 HD
ENDROOT
BRANCH   2  16
HETATM   16  S           1      42.612  -8.028   7.842  0.00  0.00    -0.125 SA
BRANCH  16  17
HETATM   17  C           1      41.995  -9.707   7.521  0.00  0.00     0.077 C 
BRANCH  17  18
HETATM   18  C           1      42.911 -10.384   6.489  0.00  0.00     0.010 C 
BRANCH  18  19
HETATM   19  C           1      42.676 -11.903   6.435  0.00  0.00    -0.004 C 
HETATM   20  C           1      43.937 -12.691   6.813  0.00  0.00     0.005 C 
ENDBRANCH  18  19
ENDBRANCH  17  18
ENDBRANCH  16  17
ENDBRANCH   2  16
BRANCH   2  21
HETATM   21  S           1      43.091  -8.097  10.867  0.00  0.00    -0.125 SA
BRANCH  21  22
HETATM   22  C           1      42.772  -9.881  11.023  0.00  0.00     0.077 C 
BRANCH  22  23
HETATM   23  C           1      44.105 -10.633  10.867  0.00  0.00     0.010 C 
BRANCH  23  24
HETATM   24  C           1      45.204  -9.723  10.298  0.00  0.00    -0.004 C 
HETATM   25  C           1      45.652 -10.175   8.901  0.00  0.00     0.005 C 
ENDBRANCH  23  24
ENDBRANCH  22  23
ENDBRANCH  21  22
ENDBRANCH   2  21
BRANCH   3  26
HETATM   26  C           1      39.207  -5.213  10.094  0.00  0.00     0.105 C 
HETATM   27  N           1      38.114  -4.901  10.324  0.00  0.00    -0.151 N 
ENDBRANCH   3  26
BRANCH   1  28
HETATM   28  N           1      38.472  -8.163  10.322  0.00  0.00    -0.388 N 
HETATM   29  H           1      37.776  -8.198   9.537  0.00  0.00     0.157 HD
HETATM   30  H           1      38.172  -8.497  11.271  0.00  0.00     0.157 HD
ENDBRANCH   1  28
BRANCH   7  31
HETATM   31  C           1      40.957  -6.844  12.938  0.00  0.00    -0.026 A 
HETATM   32  C           1      42.127  -6.552  13.540  0.00  0.00     0.009 A 
HETATM   33  C           1      42.730  -7.416  14.370  0.00  0.00     0.001 A 
HETATM   34  C           1      42.167  -8.604  14.635  0.00  0.00     0.000 A 
HETATM   35  C           1      40.993  -8.910  14.066  0.00  0.00     0.001 A 
HETATM   36  C           1      40.402  -8.034  13.239  0.00  0.00     0.009 A 
ENDBRANCH   7  31
TORSDOF 11
ENDMDL
MODEL 8
REMARK VINA RESULT:      -5.7      2.044      5.640
REMARK  11 active torsions:
REMARK  status: ('A' for Active; 'I' for Inactive)
REMARK    1  A    between atoms: C_1  and  C_17 
REMARK    2  A    between atoms: C_1  and  S_18 
REMARK    3  A    between atoms: C_2  and  N_23 
REMARK    4  A    between atoms: C_3  and  C_13 
REMARK    5  A    between atoms: C_6  and  S_18 
REMARK    6  A    between atoms: C_6  and  S_19 
REMARK    7  A    between atoms: C_7  and  C_20 
REMARK    8  A    between atoms: C_7  and  C_21 
REMARK    9  A    between atoms: C_9  and  C_24 
REMARK   10  A    between atoms: C_16  and  C_17 
REMARK   11  A    between atoms: S_19  and  C_20 
ROOT
HETATM    1  C           1      43.616 -12.870   3.569  0.00  0.00     0.092 C 
HETATM    2  C           1      42.523 -14.848   2.751  0.00  0.00     0.156 C 
HETATM    3  C           1      42.877 -13.436   4.751  0.00  0.00     0.127 C 
HETATM    4  C           1      42.549 -14.890   4.321  0.00  0.00     0.136 C 
HETATM    5  C           1      43.654 -15.790   4.778  0.00  0.00     0.079 C 
HETATM    6  N           1      44.513 -16.420   5.239  0.00  0.00    -0.196 NA
HETATM    7  C           1      41.624 -12.647   5.342  0.00  0.00     0.248 C 
HETATM    8  C           1      40.725 -14.761   6.132  0.00  0.00     0.105 C 
HETATM    9  N           1      43.417 -13.621   2.520  0.00  0.00    -0.350 N 
HETATM   10  N           1      41.005 -13.400   6.556  0.00  0.00    -0.040 N 
HETATM   11  C           1      39.616 -15.450   6.891  0.00  0.00     0.075 C 
HETATM   12  C           1      41.347 -15.387   5.107  0.00  0.00     0.036 C 
HETATM   13  H           1      43.837 -13.407   1.606  0.00  0.00     0.163 HD
HETATM   14  H           1      40.098 -12.933   6.785  0.00  0.00     0.284 HD
HETATM   15  H           1      41.591 -13.381   7.414  0.00  0.00     0.284 HD
ENDROOT
BRANCH   2  16
HETATM   16  S           1      43.358 -16.258   1.948  0.00  0.00    -0.125 SA
BRANCH  16  17
HETATM   17  C           1      42.294 -17.668   2.378  0.00  0.00     0.077 C 
BRANCH  17  18
HETATM   18  C           1      43.065 -18.971   2.111  0.00  0.00     0.010 C 
BRANCH  18  19
HETATM   19  C           1      43.923 -19.376   3.320  0.00  0.00    -0.004 C 
HETATM   20  C           1      43.845 -20.883   3.599  0.00  0.00     0.005 C 
ENDBRANCH  18  19
ENDBRANCH  17  18
ENDBRANCH  16  17
ENDBRANCH   2  16
BRANCH   2  21
HETATM   21  S           1      40.829 -14.540   2.156  0.00  0.00    -0.125 SA
BRANCH  21  22
HETATM   22  C           1      41.111 -14.384   0.366  0.00  0.00     0.077 C 
BRANCH  22  23
HETATM   23  C           1      40.786 -12.942  -0.058  0.00  0.00     0.010 C 
BRANCH  23  24
HETATM   24  C           1      39.758 -12.906  -1.200  0.00  0.00    -0.004 C 
HETATM   25  C           1      38.950 -11.601  -1.198  0.00  0.00     0.005 C 
ENDBRANCH  23  24
ENDBRANCH  22  23
ENDBRANCH  21  22
ENDBRANCH   2  21
BRANCH   3  26
HETATM   26  C           1      43.615 -13.470   6.042  0.00  0.00     0.105 C 
HETATM   27  N           1      44.310 -12.755   6.632  0.00  0.00    -0.151 N 
ENDBRANCH   3  26
BRANCH   1  28
HETATM   28  N           1      44.321 -11.817   3.579  0.00  0.00    -0.388 N 
HETATM   29  H           1      44.991 -11.621   4.363  0.00  0.00     0.157 HD
HETATM   30  H           1      44.239 -11.113   2.804  0.00  0.00     0.157 HD
ENDBRANCH   1  28
BRANCH   7  31
HETATM   31  C           1      40.573 -12.179   4.340  0.00  0.00    -0.026 A 
HETATM   32  C           1      39.330 -12.693   4.267  0.00  0.00     0.009 A 
HETATM   33  C           1      38.429 -12.243   3.380  0.00  0.00     0.001 A 
HETATM   34  C           1      38.747 -11.247   2.541  0.00  0.00     0.000 A 
HETATM   35  C           1      39.970 -10.703   2.608  0.00  0.00     0.001 A 
HETATM   36  C           1      40.858 -11.163   3.502  0.00  0.00     0.009 A 
ENDBRANCH   7  31
TORSDOF 11
ENDMDL
MODEL 9
REMARK VINA RESULT:      -5.6      3.251      7.378
REMARK  11 active torsions:
REMARK  status: ('A' for Active; 'I' for Inactive)
REMARK    1  A    between atoms: C_1  and  C_17 
REMARK    2  A    between atoms: C_1  and  S_18 
REMARK    3  A    between atoms: C_2  and  N_23 
REMARK    4  A    between atoms: C_3  and  C_13 
REMARK    5  A    between atoms: C_6  and  S_18 
REMARK    6  A    between atoms: C_6  and  S_19 
REMARK    7  A    between atoms: C_7  and  C_20 
REMARK    8  A    between atoms: C_7  and  C_21 
REMARK    9  A    between atoms: C_9  and  C_24 
REMARK   10  A    between atoms: C_16  and  C_17 
REMARK   11  A    between atoms: S_19  and  C_20 
ROOT
HETATM    1  C           1      41.290 -10.071  -0.318  0.00  0.00     0.092 C 
HETATM    2  C           1      40.283 -11.317   1.474  0.00  0.00     0.156 C 
HETATM    3  C           1      39.870  -9.581  -0.238  0.00  0.00     0.127 C 
HETATM    4  C           1      39.387 -10.068   1.153  0.00  0.00     0.136 C 
HETATM    5  C           1      39.652  -8.993   2.160  0.00  0.00     0.079 C 
HETATM    6  N           1      39.820  -8.077   2.854  0.00  0.00    -0.196 NA
HETATM    7  C           1      38.857  -9.920  -1.421  0.00  0.00     0.248 C 
HETATM    8  C           1      37.027  -9.779   0.171  0.00  0.00     0.105 C 
HETATM    9  N           1      41.493 -10.991   0.586  0.00  0.00    -0.350 N 
HETATM   10  N           1      37.446  -9.322  -1.143  0.00  0.00    -0.040 N 
HETATM   11  C           1      35.531  -9.843   0.376  0.00  0.00     0.075 C 
HETATM   12  C           1      37.872 -10.176   1.149  0.00  0.00     0.036 C 
HETATM   13  H           1      42.404 -11.457   0.699  0.00  0.00     0.163 HD
HETATM   14  H           1      36.792  -9.720  -1.855  0.00  0.00     0.284 HD
HETATM   15  H           1      37.399  -8.287  -1.220  0.00  0.00     0.284 HD
ENDROOT
BRANCH   2  16
HETATM   16  S           1      40.899 -11.380   3.190  0.00  0.00    -0.125 SA
BRANCH  16  17
HETATM   17  C           1      42.704 -11.329   2.984  0.00  0.00     0.077 C 
BRANCH  17  18
HETATM   18  C           1      43.296 -12.666   3.459  0.00  0.00     0.010 C 
BRANCH  18  19
HETATM   19  C           1      42.359 -13.378   4.449  0.00  0.00    -0.004 C 
HETATM   20  C           1      43.013 -14.625   5.060  0.00  0.00     0.005 C 
ENDBRANCH  18  19
ENDBRANCH  17  18
ENDBRANCH  16  17
ENDBRANCH   2  16
BRANCH   2  21
HETATM   21  S           1      39.460 -12.844   0.915  0.00  0.00    -0.125 SA
BRANCH  21  22
HETATM   22  C           1      40.856 -14.010   0.905  0.00  0.00     0.077 C 
BRANCH  22  23
HETATM   23  C           1      40.355 -15.378   1.398  0.00  0.00     0.010 C 
BRANCH  23  24
HETATM   24  C           1      41.482 -16.189   2.057  0.00  0.00    -0.004 C 
HETATM   25  C           1      42.859 -15.811   1.496  0.00  0.00     0.005 C 
ENDBRANCH  23  24
ENDBRANCH  22  23
ENDBRANCH  21  22
ENDBRANCH   2  21
BRANCH   3  26
HETATM   26  C           1      39.671  -8.109  -0.330  0.00  0.00     0.105 C 
HETATM   27  N           1      40.092  -7.241  -0.972  0.00  0.00    -0.151 N 
ENDBRANCH   3  26
BRANCH   1  28
HETATM   28  N           1      42.163  -9.666  -1.143  0.00  0.00    -0.388 N 
HETATM   29  H           1      43.123 -10.089  -1.166  0.00  0.00     0.157 HD
HETATM   30  H           1      41.941  -8.890  -1.815  0.00  0.00     0.157 HD
ENDBRANCH   1  28
BRANCH   7  31
HETATM   31  C           1      38.801 -11.373  -1.881  0.00  0.00    -0.026 A 
HETATM   32  C           1      37.681 -12.121  -1.859  0.00  0.00     0.009 A 
HETATM   33  C           1      37.671 -13.393  -2.286  0.00  0.00     0.001 A 
HETATM   34  C           1      38.791 -13.954  -2.765  0.00  0.00     0.000 A 
HETATM   35  C           1      39.914 -13.224  -2.818  0.00  0.00     0.001 A 
HETATM   36  C           1      39.906 -11.953  -2.389  0.00  0.00     0.009 A 
ENDBRANCH   7  31
TORSDOF 11
ENDMDL
MODEL 10
REMARK VINA RESULT:      -5.6      2.862      6.874
REMARK  11 active torsions:
REMARK  status: ('A' for Active; 'I' for Inactive)
REMARK    1  A    between atoms: C_1  and  C_17 
REMARK    2  A    between atoms: C_1  and  S_18 
REMARK    3  A    between atoms: C_2  and  N_23 
REMARK    4  A    between atoms: C_3  and  C_13 
REMARK    5  A    between atoms: C_6  and  S_18 
REMARK    6  A    between atoms: C_6  and  S_19 
REMARK    7  A    between atoms: C_7  and  C_20 
REMARK    8  A    between atoms: C_7  and  C_21 
REMARK    9  A    between atoms: C_9  and  C_24 
REMARK   10  A    between atoms: C_16  and  C_17 
REMARK   11  A    between atoms: S_19  and  C_20 
ROOT
HETATM    1  C           1      41.939 -11.064   2.528  0.00  0.00     0.092 C 
HETATM    2  C           1      40.878 -12.924   1.436  0.00  0.00     0.156 C 
HETATM    3  C           1      40.469 -10.744   2.530  0.00  0.00     0.127 C 
HETATM    4  C           1      39.793 -12.106   2.222  0.00  0.00     0.136 C 
HETATM    5  C           1      39.486 -12.796   3.514  0.00  0.00     0.079 C 
HETATM    6  N           1      39.215 -13.220   4.560  0.00  0.00    -0.196 NA
HETATM    7  C           1      39.928  -9.544   1.631  0.00  0.00     0.248 C 
HETATM    8  C           1      37.780 -10.674   1.501  0.00  0.00     0.105 C 
HETATM    9  N           1      42.142 -12.213   1.943  0.00  0.00    -0.350 N 
HETATM   10  N           1      38.386  -9.382   1.777  0.00  0.00    -0.040 N 
HETATM   11  C           1      36.358 -10.616   0.995  0.00  0.00     0.075 C 
HETATM   12  C           1      38.418 -11.860   1.624  0.00  0.00     0.036 C 
HETATM   13  H           1      43.083 -12.616   1.838  0.00  0.00     0.163 HD
HETATM   14  H           1      38.071  -8.707   1.043  0.00  0.00     0.284 HD
HETATM   15  H           1      38.082  -9.007   2.697  0.00  0.00     0.284 HD
ENDROOT
BRANCH   2  16
HETATM   16  S           1      41.022 -14.669   1.949  0.00  0.00    -0.125 SA
BRANCH  16  17
HETATM   17  C           1      42.797 -14.855   2.293  0.00  0.00     0.077 C 
BRANCH  17  18
HETATM   18  C           1      43.297 -16.150   1.634  0.00  0.00     0.010 C 
BRANCH  18  19
HETATM   19  C           1      42.689 -17.395   2.301  0.00  0.00    -0.004 C 
HETATM   20  C           1      43.769 -18.326   2.868  0.00  0.00     0.005 C 
ENDBRANCH  18  19
ENDBRANCH  17  18
ENDBRANCH  16  17
ENDBRANCH   2  16
BRANCH   2  21
HETATM   21  S           1      40.673 -12.684  -0.358  0.00  0.00    -0.125 SA
BRANCH  21  22
HETATM   22  C           1      39.950 -14.280  -0.845  0.00  0.00     0.077 C 
BRANCH  22  23
HETATM   23  C           1      39.671 -14.251  -2.356  0.00  0.00     0.010 C 
BRANCH  23  24
HETATM   24  C           1      38.894 -12.990  -2.765  0.00  0.00    -0.004 C 
HETATM   25  C           1      37.389 -13.138  -2.503  0.00  0.00     0.005 C 
ENDBRANCH  23  24
ENDBRANCH  22  23
ENDBRANCH  21  22
ENDBRANCH   2  21
BRANCH   3  26
HETATM   26  C           1      39.909 -10.204   3.798  0.00  0.00     0.105 C 
HETATM   27  N           1      40.246  -9.452   4.614  0.00  0.00    -0.151 N 
ENDBRANCH   3  26
BRANCH   1  28
HETATM   28  N           1      42.852 -10.329   3.010  0.00  0.00    -0.388 N 
HETATM   29  H           1      43.674 -10.746   3.512  0.00  0.00     0.157 HD
HETATM   30  H           1      42.797  -9.284   2.924  0.00  0.00     0.157 HD
ENDBRANCH   1  28
BRANCH   7  31
HETATM   31  C           1      40.388  -9.514   0.177  0.00  0.00    -0.026 A 
HETATM   32  C           1      39.549  -9.590  -0.874  0.00  0.00     0.009 A 
HETATM   33  C           1      39.994  -9.545  -2.139  0.00  0.00     0.001 A 
HETATM   34  C           1      41.304  -9.409  -2.390  0.00  0.00     0.000 A 
HETATM   35  C           1      42.158  -9.310  -1.362  0.00  0.00     0.001 A 
HETATM   36  C           1      41.696  -9.354  -0.103  0.00  0.00     0.009 A 
ENDBRANCH   7  31
TORSDOF 11
ENDMDL
