MODEL 1
REMARK VINA RESULT:      -9.1      0.000      0.000
REMARK  7 active torsions:
REMARK  status: ('A' for Active; 'I' for Inactive)
REMARK    1  A    between atoms: C_2  and  C_3 
REMARK    2  A    between atoms: C_3  and  N_4 
REMARK    3  A    between atoms: N_4  and  C_7 
REMARK    4  A    between atoms: C_12  and  N_13 
REMARK       I    between atoms: N_13  and  C_14 
REMARK    5  A    between atoms: C_14  and  C_16 
REMARK    6  A    between atoms: C_20  and  C_22 
REMARK       I    between atoms: N_26  and  C_27 
REMARK       I    between atoms: C_27  and  N_29 
REMARK    7  A    between atoms: N_29  and  C_30 
ROOT
HETATM    1  C   UNL     1      40.391  -9.210   7.435  1.00  0.00     0.037 A 
HETATM    2  C   UNL     1      39.746  -8.148   6.803  1.00  0.00     0.029 A 
HETATM    3  C   UNL     1      39.119  -8.340   5.567  1.00  0.00     0.004 A 
HETATM    4  C   UNL     1      39.126  -9.597   4.961  1.00  0.00     0.023 A 
HETATM    5  C   UNL     1      39.760 -10.667   5.594  1.00  0.00     0.046 A 
HETATM    6  C   UNL     1      40.393 -10.470   6.826  1.00  0.00     0.052 A 
HETATM    7  C   UNL     1      39.738 -11.978   5.015  1.00  0.00     0.099 C 
HETATM    8  N   UNL     1      39.699 -13.060   4.598  1.00  0.00    -0.191 NA
ENDROOT
BRANCH   1   9
HETATM    9  N   UNL     1      41.012  -9.113   8.690  1.00  0.00    -0.309 N 
HETATM   10  C   UNL     1      40.431  -9.031   9.931  1.00  0.00     0.323 C 
HETATM   11  N   UNL     1      41.352  -9.127  10.976  1.00  0.00    -0.325 N 
HETATM   12  O   UNL     1      39.237  -8.827  10.126  1.00  0.00    -0.247 OA
HETATM   13  C   UNL     1      42.476 -10.078  11.021  1.00  0.00     0.122 C 
HETATM   14  C   UNL     1      40.894  -8.840  12.332  1.00  0.00     0.128 C 
HETATM   15  C   UNL     1      43.006  -9.946  12.453  1.00  0.00     0.032 C 
HETATM   16  C   UNL     1      41.729  -9.726  13.249  1.00  0.00     0.022 C 
HETATM   17  H   UNL     1      41.975  -8.822   8.683  1.00  0.00     0.170 HD
BRANCH  13  18
HETATM   18  C   UNL     1      43.554  -9.903   9.976  1.00  0.00    -0.034 A 
HETATM   19  C   UNL     1      44.454  -8.827   9.984  1.00  0.00     0.009 A 
HETATM   20  C   UNL     1      45.376  -8.662   8.944  1.00  0.00     0.002 A 
HETATM   21  C   UNL     1      45.413  -9.565   7.878  1.00  0.00     0.017 A 
HETATM   22  C   UNL     1      44.530 -10.645   7.861  1.00  0.00     0.033 A 
HETATM   23  C   UNL     1      43.619 -10.817   8.911  1.00  0.00     0.026 A 
BRANCH  22  24
HETATM   24  C   UNL     1      44.510 -11.648   6.766  1.00  0.00     0.257 C 
HETATM   25  N   UNL     1      43.290 -12.247   6.540  1.00  0.00    -0.301 N 
HETATM   26  H   UNL     1      42.483 -12.036   7.108  1.00  0.00     0.171 HD
HETATM   27  O   UNL     1      45.573 -11.900   6.212  1.00  0.00    -0.267 OA
BRANCH  25  28
HETATM   28  C   UNL     1      43.169 -13.275   5.646  1.00  0.00     0.174 A 
HETATM   29  N   UNL     1      43.206 -13.237   4.337  1.00  0.00    -0.228 NA
HETATM   30  C   UNL     1      43.089 -14.502   3.832  1.00  0.00     0.050 A 
HETATM   31  C   UNL     1      43.139 -14.743   2.366  1.00  0.00     0.062 C 
HETATM   32  C   UNL     1      42.977 -15.503   4.773  1.00  0.00     0.013 A 
HETATM   33  C   UNL     1      42.672 -16.169   2.025  1.00  0.00     0.039 C 
HETATM   34  C   UNL     1      43.282 -17.207   2.990  1.00  0.00     0.191 C 
HETATM   35  C   UNL     1      42.849 -16.952   4.464  1.00  0.00     0.081 C 
HETATM   36  S   UNL     1      42.976 -14.831   6.342  1.00  0.00    -0.055 SA
BRANCH  34  37
HETATM   37  N   UNL     1      42.848 -18.601   2.584  1.00  0.00    -0.071 N 
HETATM   38  H   UNL     1      42.318 -18.554   1.702  1.00  0.00     0.277 HD
HETATM   39  H   UNL     1      42.186 -18.960   3.287  1.00  0.00     0.277 HD
BRANCH  37  40
HETATM   40  C   UNL     1      43.953 -19.607   2.446  1.00  0.00     0.232 C 
BRANCH  40  41
HETATM   41  C   UNL     1      43.701 -20.756   3.413  1.00  0.00     0.023 C 
HETATM   42  C   UNL     1      44.292 -20.458   4.782  1.00  0.00     0.007 C 
ENDBRANCH  40  41
ENDBRANCH  37  40
ENDBRANCH  34  37
ENDBRANCH  25  28
ENDBRANCH  22  24
ENDBRANCH  13  18
ENDBRANCH   1   9
TORSDOF 7
ENDMDL
MODEL 2
REMARK VINA RESULT:      -8.9      1.602      2.367
REMARK  7 active torsions:
REMARK  status: ('A' for Active; 'I' for Inactive)
REMARK    1  A    between atoms: C_2  and  C_3 
REMARK    2  A    between atoms: C_3  and  N_4 
REMARK    3  A    between atoms: N_4  and  C_7 
REMARK    4  A    between atoms: C_12  and  N_13 
REMARK       I    between atoms: N_13  and  C_14 
REMARK    5  A    between atoms: C_14  and  C_16 
REMARK    6  A    between atoms: C_20  and  C_22 
REMARK       I    between atoms: N_26  and  C_27 
REMARK       I    between atoms: C_27  and  N_29 
REMARK    7  A    between atoms: N_29  and  C_30 
ROOT
HETATM    1  C   UNL     1      41.151  -7.836   7.625  1.00  0.00     0.037 A 
HETATM    2  C   UNL     1      40.297  -8.637   6.867  1.00  0.00     0.029 A 
HETATM    3  C   UNL     1      40.012  -8.302   5.539  1.00  0.00     0.004 A 
HETATM    4  C   UNL     1      40.586  -7.169   4.960  1.00  0.00     0.023 A 
HETATM    5  C   UNL     1      41.450  -6.370   5.708  1.00  0.00     0.046 A 
HETATM    6  C   UNL     1      41.727  -6.704   7.039  1.00  0.00     0.052 A 
HETATM    7  C   UNL     1      42.090  -5.231   5.120  1.00  0.00     0.099 C 
HETATM    8  N   UNL     1      42.660  -4.330   4.661  1.00  0.00    -0.191 NA
ENDROOT
BRANCH   1   9
HETATM    9  N   UNL     1      41.518  -8.119   8.949  1.00  0.00    -0.309 N 
HETATM   10  C   UNL     1      40.764  -8.012  10.092  1.00  0.00     0.323 C 
HETATM   11  N   UNL     1      41.394  -8.547  11.217  1.00  0.00    -0.325 N 
HETATM   12  O   UNL     1      39.677  -7.449  10.155  1.00  0.00    -0.247 OA
HETATM   13  C   UNL     1      42.141  -9.816  11.239  1.00  0.00     0.122 C 
HETATM   14  C   UNL     1      40.795  -8.306  12.526  1.00  0.00     0.128 C 
HETATM   15  C   UNL     1      42.403 -10.059  12.730  1.00  0.00     0.032 C 
HETATM   16  C   UNL     1      41.126  -9.532  13.368  1.00  0.00     0.022 C 
HETATM   17  H   UNL     1      42.507  -8.168   9.131  1.00  0.00     0.170 HD
BRANCH  13  18
HETATM   18  C   UNL     1      43.401  -9.875  10.404  1.00  0.00    -0.034 A 
HETATM   19  C   UNL     1      44.513  -9.057  10.647  1.00  0.00     0.009 A 
HETATM   20  C   UNL     1      45.621  -9.087   9.791  1.00  0.00     0.002 A 
HETATM   21  C   UNL     1      45.633  -9.930   8.677  1.00  0.00     0.017 A 
HETATM   22  C   UNL     1      44.537 -10.756   8.427  1.00  0.00     0.033 A 
HETATM   23  C   UNL     1      43.437 -10.736   9.295  1.00  0.00     0.026 A 
BRANCH  22  24
HETATM   24  C   UNL     1      44.477 -11.681   7.267  1.00  0.00     0.257 C 
HETATM   25  N   UNL     1      43.293 -12.372   7.127  1.00  0.00    -0.301 N 
HETATM   26  H   UNL     1      42.541 -12.274   7.792  1.00  0.00     0.171 HD
HETATM   27  O   UNL     1      45.488 -11.798   6.585  1.00  0.00    -0.267 OA
BRANCH  25  28
HETATM   28  C   UNL     1      43.158 -13.345   6.174  1.00  0.00     0.174 A 
HETATM   29  N   UNL     1      42.776 -13.229   4.927  1.00  0.00    -0.228 NA
HETATM   30  C   UNL     1      42.825 -14.448   4.311  1.00  0.00     0.050 A 
HETATM   31  C   UNL     1      42.474 -14.589   2.873  1.00  0.00     0.062 C 
HETATM   32  C   UNL     1      43.261 -15.490   5.102  1.00  0.00     0.013 A 
HETATM   33  C   UNL     1      42.292 -16.067   2.492  1.00  0.00     0.039 C 
HETATM   34  C   UNL     1      43.408 -16.947   3.094  1.00  0.00     0.191 C 
HETATM   35  C   UNL     1      43.406 -16.899   4.650  1.00  0.00     0.081 C 
HETATM   36  S   UNL     1      43.581 -14.928   6.681  1.00  0.00    -0.055 SA
BRANCH  34  37
HETATM   37  N   UNL     1      43.228 -18.382   2.646  1.00  0.00    -0.071 N 
HETATM   38  H   UNL     1      43.674 -18.516   1.727  1.00  0.00     0.277 HD
HETATM   39  H   UNL     1      42.225 -18.559   2.495  1.00  0.00     0.277 HD
BRANCH  37  40
HETATM   40  C   UNL     1      43.735 -19.426   3.599  1.00  0.00     0.232 C 
BRANCH  40  41
HETATM   41  C   UNL     1      43.919 -20.736   2.847  1.00  0.00     0.023 C 
HETATM   42  C   UNL     1      43.455 -20.607   1.403  1.00  0.00     0.007 C 
ENDBRANCH  40  41
ENDBRANCH  37  40
ENDBRANCH  34  37
ENDBRANCH  25  28
ENDBRANCH  22  24
ENDBRANCH  13  18
ENDBRANCH   1   9
TORSDOF 7
ENDMDL
MODEL 3
REMARK VINA RESULT:      -8.7      3.049     10.258
REMARK  7 active torsions:
REMARK  status: ('A' for Active; 'I' for Inactive)
REMARK    1  A    between atoms: C_2  and  C_3 
REMARK    2  A    between atoms: C_3  and  N_4 
REMARK    3  A    between atoms: N_4  and  C_7 
REMARK    4  A    between atoms: C_12  and  N_13 
REMARK       I    between atoms: N_13  and  C_14 
REMARK    5  A    between atoms: C_14  and  C_16 
REMARK    6  A    between atoms: C_20  and  C_22 
REMARK       I    between atoms: N_26  and  C_27 
REMARK       I    between atoms: C_27  and  N_29 
REMARK    7  A    between atoms: N_29  and  C_30 
ROOT
HETATM    1  C   UNL     1      43.021 -15.356   5.240  1.00  0.00     0.037 A 
HETATM    2  C   UNL     1      43.007 -15.638   6.605  1.00  0.00     0.029 A 
HETATM    3  C   UNL     1      43.276 -16.933   7.059  1.00  0.00     0.004 A 
HETATM    4  C   UNL     1      43.570 -17.951   6.151  1.00  0.00     0.023 A 
HETATM    5  C   UNL     1      43.598 -17.673   4.784  1.00  0.00     0.046 A 
HETATM    6  C   UNL     1      43.320 -16.378   4.333  1.00  0.00     0.052 A 
HETATM    7  C   UNL     1      43.947 -18.690   3.836  1.00  0.00     0.099 C 
HETATM    8  N   UNL     1      44.269 -19.477   3.047  1.00  0.00    -0.191 NA
ENDROOT
BRANCH   1   9
HETATM    9  N   UNL     1      42.799 -14.079   4.703  1.00  0.00    -0.309 N 
HETATM   10  C   UNL     1      41.885 -13.694   3.752  1.00  0.00     0.323 C 
HETATM   11  N   UNL     1      41.820 -12.310   3.583  1.00  0.00    -0.325 N 
HETATM   12  O   UNL     1      41.232 -14.470   3.064  1.00  0.00    -0.247 OA
HETATM   13  C   UNL     1      41.831 -11.327   4.680  1.00  0.00     0.122 C 
HETATM   14  C   UNL     1      41.049 -11.785   2.460  1.00  0.00     0.128 C 
HETATM   15  C   UNL     1      41.490 -10.003   3.987  1.00  0.00     0.032 C 
HETATM   16  C   UNL     1      40.492 -10.446   2.927  1.00  0.00     0.022 C 
HETATM   17  H   UNL     1      43.541 -13.412   4.831  1.00  0.00     0.170 HD
BRANCH  13  18
HETATM   18  C   UNL     1      43.094 -11.249   5.508  1.00  0.00    -0.034 A 
HETATM   19  C   UNL     1      44.359 -11.573   4.996  1.00  0.00     0.009 A 
HETATM   20  C   UNL     1      45.486 -11.571   5.827  1.00  0.00     0.002 A 
HETATM   21  C   UNL     1      45.368 -11.249   7.181  1.00  0.00     0.017 A 
HETATM   22  C   UNL     1      44.116 -10.916   7.702  1.00  0.00     0.033 A 
HETATM   23  C   UNL     1      42.993 -10.903   6.865  1.00  0.00     0.026 A 
BRANCH  22  24
HETATM   24  C   UNL     1      43.911 -10.560   9.129  1.00  0.00     0.257 C 
HETATM   25  N   UNL     1      42.758  -9.856   9.398  1.00  0.00    -0.301 N 
HETATM   26  H   UNL     1      42.123  -9.578   8.666  1.00  0.00     0.171 HD
HETATM   27  O   UNL     1      44.798 -10.858   9.919  1.00  0.00    -0.267 OA
BRANCH  25  28
HETATM   28  C   UNL     1      42.516  -9.361  10.651  1.00  0.00     0.174 A 
HETATM   29  N   UNL     1      41.734  -9.837  11.588  1.00  0.00    -0.228 NA
HETATM   30  C   UNL     1      41.820  -9.054  12.706  1.00  0.00     0.050 A 
HETATM   31  C   UNL     1      41.056  -9.398  13.935  1.00  0.00     0.062 C 
HETATM   32  C   UNL     1      42.686  -7.986  12.611  1.00  0.00     0.013 A 
HETATM   33  C   UNL     1      41.056  -8.224  14.929  1.00  0.00     0.039 C 
HETATM   34  C   UNL     1      42.457  -7.591  15.054  1.00  0.00     0.191 C 
HETATM   35  C   UNL     1      42.951  -7.006  13.698  1.00  0.00     0.081 C 
HETATM   36  S   UNL     1      43.384  -7.938  11.055  1.00  0.00    -0.055 SA
BRANCH  34  37
HETATM   37  N   UNL     1      42.429  -6.482  16.086  1.00  0.00    -0.071 N 
HETATM   38  H   UNL     1      42.865  -5.635  15.695  1.00  0.00     0.277 HD
HETATM   39  H   UNL     1      43.019  -6.756  16.884  1.00  0.00     0.277 HD
BRANCH  37  40
HETATM   40  C   UNL     1      41.070  -6.136  16.625  1.00  0.00     0.232 C 
BRANCH  40  41
HETATM   41  C   UNL     1      41.110  -6.196  18.145  1.00  0.00     0.023 C 
HETATM   42  C   UNL     1      41.860  -7.431  18.624  1.00  0.00     0.007 C 
ENDBRANCH  40  41
ENDBRANCH  37  40
ENDBRANCH  34  37
ENDBRANCH  25  28
ENDBRANCH  22  24
ENDBRANCH  13  18
ENDBRANCH   1   9
TORSDOF 7
ENDMDL
MODEL 4
REMARK VINA RESULT:      -8.4      2.352      3.586
REMARK  7 active torsions:
REMARK  status: ('A' for Active; 'I' for Inactive)
REMARK    1  A    between atoms: C_2  and  C_3 
REMARK    2  A    between atoms: C_3  and  N_4 
REMARK    3  A    between atoms: N_4  and  C_7 
REMARK    4  A    between atoms: C_12  and  N_13 
REMARK       I    between atoms: N_13  and  C_14 
REMARK    5  A    between atoms: C_14  and  C_16 
REMARK    6  A    between atoms: C_20  and  C_22 
REMARK       I    between atoms: N_26  and  C_27 
REMARK       I    between atoms: C_27  and  N_29 
REMARK    7  A    between atoms: N_29  and  C_30 
ROOT
HETATM    1  C   UNL     1      40.891  -8.236   7.747  1.00  0.00     0.037 A 
HETATM    2  C   UNL     1      39.904  -9.073   7.229  1.00  0.00     0.029 A 
HETATM    3  C   UNL     1      39.474  -8.920   5.907  1.00  0.00     0.004 A 
HETATM    4  C   UNL     1      40.035  -7.935   5.093  1.00  0.00     0.023 A 
HETATM    5  C   UNL     1      41.032  -7.101   5.601  1.00  0.00     0.046 A 
HETATM    6  C   UNL     1      41.454  -7.252   6.927  1.00  0.00     0.052 A 
HETATM    7  C   UNL     1      41.658  -6.117   4.770  1.00  0.00     0.099 C 
HETATM    8  N   UNL     1      42.217  -5.341   4.112  1.00  0.00    -0.191 NA
ENDROOT
BRANCH   1   9
HETATM    9  N   UNL     1      41.405  -8.344   9.048  1.00  0.00    -0.309 N 
HETATM   10  C   UNL     1      40.791  -8.056  10.242  1.00  0.00     0.323 C 
HETATM   11  N   UNL     1      41.538  -8.450  11.353  1.00  0.00    -0.325 N 
HETATM   12  O   UNL     1      39.727  -7.455  10.346  1.00  0.00    -0.247 OA
HETATM   13  C   UNL     1      42.263  -9.727  11.470  1.00  0.00     0.122 C 
HETATM   14  C   UNL     1      41.098  -8.011  12.674  1.00  0.00     0.128 C 
HETATM   15  C   UNL     1      42.691  -9.769  12.941  1.00  0.00     0.032 C 
HETATM   16  C   UNL     1      41.506  -9.119  13.638  1.00  0.00     0.022 C 
HETATM   17  H   UNL     1      42.407  -8.399   9.122  1.00  0.00     0.170 HD
BRANCH  13  18
HETATM   18  C   UNL     1      43.415  -9.941  10.515  1.00  0.00    -0.034 A 
HETATM   19  C   UNL     1      44.662  -9.318  10.676  1.00  0.00     0.009 A 
HETATM   20  C   UNL     1      45.668  -9.479   9.716  1.00  0.00     0.002 A 
HETATM   21  C   UNL     1      45.445 -10.260   8.578  1.00  0.00     0.017 A 
HETATM   22  C   UNL     1      44.213 -10.893   8.410  1.00  0.00     0.033 A 
HETATM   23  C   UNL     1      43.214 -10.743   9.380  1.00  0.00     0.026 A 
BRANCH  22  24
HETATM   24  C   UNL     1      43.902 -11.740   7.230  1.00  0.00     0.257 C 
HETATM   25  N   UNL     1      42.563 -11.843   6.918  1.00  0.00    -0.301 N 
HETATM   26  H   UNL     1      41.853 -11.398   7.478  1.00  0.00     0.171 HD
HETATM   27  O   UNL     1      44.836 -12.317   6.687  1.00  0.00    -0.267 OA
BRANCH  25  28
HETATM   28  C   UNL     1      42.138 -12.693   5.934  1.00  0.00     0.174 A 
HETATM   29  N   UNL     1      42.135 -14.002   5.920  1.00  0.00    -0.228 NA
HETATM   30  C   UNL     1      41.579 -14.453   4.755  1.00  0.00     0.050 A 
HETATM   31  C   UNL     1      41.422 -15.910   4.502  1.00  0.00     0.062 C 
HETATM   32  C   UNL     1      41.148 -13.471   3.890  1.00  0.00     0.013 A 
HETATM   33  C   UNL     1      41.081 -16.179   3.026  1.00  0.00     0.039 C 
HETATM   34  C   UNL     1      40.013 -15.194   2.505  1.00  0.00     0.191 C 
HETATM   35  C   UNL     1      40.505 -13.719   2.572  1.00  0.00     0.081 C 
HETATM   36  S   UNL     1      41.488 -11.930   4.541  1.00  0.00    -0.055 SA
BRANCH  34  37
HETATM   37  N   UNL     1      39.662 -15.531   1.071  1.00  0.00    -0.071 N 
HETATM   38  H   UNL     1      38.645 -15.437   0.933  1.00  0.00     0.277 HD
HETATM   39  H   UNL     1      39.873 -16.525   0.902  1.00  0.00     0.277 HD
BRANCH  37  40
HETATM   40  C   UNL     1      40.380 -14.730   0.024  1.00  0.00     0.232 C 
BRANCH  40  41
HETATM   41  C   UNL     1      39.466 -14.556  -1.181  1.00  0.00     0.023 C 
HETATM   42  C   UNL     1      38.841 -13.168  -1.196  1.00  0.00     0.007 C 
ENDBRANCH  40  41
ENDBRANCH  37  40
ENDBRANCH  34  37
ENDBRANCH  25  28
ENDBRANCH  22  24
ENDBRANCH  13  18
ENDBRANCH   1   9
TORSDOF 7
ENDMDL
MODEL 5
REMARK VINA RESULT:      -8.2      3.063     10.385
REMARK  7 active torsions:
REMARK  status: ('A' for Active; 'I' for Inactive)
REMARK    1  A    between atoms: C_2  and  C_3 
REMARK    2  A    between atoms: C_3  and  N_4 
REMARK    3  A    between atoms: N_4  and  C_7 
REMARK    4  A    between atoms: C_12  and  N_13 
REMARK       I    between atoms: N_13  and  C_14 
REMARK    5  A    between atoms: C_14  and  C_16 
REMARK    6  A    between atoms: C_20  and  C_22 
REMARK       I    between atoms: N_26  and  C_27 
REMARK       I    between atoms: C_27  and  N_29 
REMARK    7  A    between atoms: N_29  and  C_30 
ROOT
HETATM    1  C   UNL     1      42.947 -16.047   3.433  1.00  0.00     0.037 A 
HETATM    2  C   UNL     1      43.533 -16.006   4.697  1.00  0.00     0.029 A 
HETATM    3  C   UNL     1      44.129 -17.152   5.235  1.00  0.00     0.004 A 
HETATM    4  C   UNL     1      44.149 -18.343   4.507  1.00  0.00     0.023 A 
HETATM    5  C   UNL     1      43.575 -18.388   3.236  1.00  0.00     0.046 A 
HETATM    6  C   UNL     1      42.973 -17.242   2.705  1.00  0.00     0.052 A 
HETATM    7  C   UNL     1      43.627 -19.585   2.450  1.00  0.00     0.099 C 
HETATM    8  N   UNL     1      43.693 -20.523   1.770  1.00  0.00    -0.191 NA
ENDROOT
BRANCH   1   9
HETATM    9  N   UNL     1      42.362 -14.937   2.805  1.00  0.00    -0.309 N 
HETATM   10  C   UNL     1      41.380 -14.911   1.845  1.00  0.00     0.323 C 
HETATM   11  N   UNL     1      40.912 -13.625   1.574  1.00  0.00    -0.325 N 
HETATM   12  O   UNL     1      40.988 -15.896   1.229  1.00  0.00    -0.247 OA
HETATM   13  C   UNL     1      40.628 -12.600   2.594  1.00  0.00     0.122 C 
HETATM   14  C   UNL     1      40.026 -13.437   0.428  1.00  0.00     0.128 C 
HETATM   15  C   UNL     1      39.917 -11.493   1.809  1.00  0.00     0.032 C 
HETATM   16  C   UNL     1      39.098 -12.288   0.803  1.00  0.00     0.022 C 
HETATM   17  H   UNL     1      42.875 -14.074   2.870  1.00  0.00     0.170 HD
BRANCH  13  18
HETATM   18  C   UNL     1      41.809 -12.092   3.390  1.00  0.00    -0.034 A 
HETATM   19  C   UNL     1      43.137 -12.258   2.970  1.00  0.00     0.009 A 
HETATM   20  C   UNL     1      44.199 -11.849   3.786  1.00  0.00     0.002 A 
HETATM   21  C   UNL     1      43.952 -11.270   5.034  1.00  0.00     0.017 A 
HETATM   22  C   UNL     1      42.636 -11.091   5.460  1.00  0.00     0.033 A 
HETATM   23  C   UNL     1      41.575 -11.487   4.635  1.00  0.00     0.026 A 
BRANCH  22  24
HETATM   24  C   UNL     1      42.294 -10.482   6.771  1.00  0.00     0.257 C 
HETATM   25  N   UNL     1      43.373 -10.139   7.558  1.00  0.00    -0.301 N 
HETATM   26  H   UNL     1      44.320 -10.325   7.268  1.00  0.00     0.171 HD
HETATM   27  O   UNL     1      41.108 -10.399   7.063  1.00  0.00    -0.267 OA
BRANCH  25  28
HETATM   28  C   UNL     1      43.191  -9.687   8.836  1.00  0.00     0.174 A 
HETATM   29  N   UNL     1      43.155 -10.368   9.954  1.00  0.00    -0.228 NA
HETATM   30  C   UNL     1      42.996  -9.517  11.012  1.00  0.00     0.050 A 
HETATM   31  C   UNL     1      42.960 -10.035  12.405  1.00  0.00     0.062 C 
HETATM   32  C   UNL     1      42.925  -8.180  10.686  1.00  0.00     0.013 A 
HETATM   33  C   UNL     1      42.459  -8.957  13.381  1.00  0.00     0.039 C 
HETATM   34  C   UNL     1      43.111  -7.588  13.092  1.00  0.00     0.191 C 
HETATM   35  C   UNL     1      42.764  -7.072  11.665  1.00  0.00     0.081 C 
HETATM   36  S   UNL     1      43.020  -7.987   8.993  1.00  0.00    -0.055 SA
BRANCH  34  37
HETATM   37  N   UNL     1      42.639  -6.570  14.110  1.00  0.00    -0.071 N 
HETATM   38  H   UNL     1      41.718  -6.203  13.831  1.00  0.00     0.277 HD
HETATM   39  H   UNL     1      43.277  -5.763  14.092  1.00  0.00     0.277 HD
BRANCH  37  40
HETATM   40  C   UNL     1      42.568  -7.060  15.528  1.00  0.00     0.232 C 
BRANCH  40  41
HETATM   41  C   UNL     1      41.419  -6.357  16.238  1.00  0.00     0.023 C 
HETATM   42  C   UNL     1      40.633  -7.332  17.103  1.00  0.00     0.007 C 
ENDBRANCH  40  41
ENDBRANCH  37  40
ENDBRANCH  34  37
ENDBRANCH  25  28
ENDBRANCH  22  24
ENDBRANCH  13  18
ENDBRANCH   1   9
TORSDOF 7
ENDMDL
MODEL 6
REMARK VINA RESULT:      -8.1      5.055      8.820
REMARK  7 active torsions:
REMARK  status: ('A' for Active; 'I' for Inactive)
REMARK    1  A    between atoms: C_2  and  C_3 
REMARK    2  A    between atoms: C_3  and  N_4 
REMARK    3  A    between atoms: N_4  and  C_7 
REMARK    4  A    between atoms: C_12  and  N_13 
REMARK       I    between atoms: N_13  and  C_14 
REMARK    5  A    between atoms: C_14  and  C_16 
REMARK    6  A    between atoms: C_20  and  C_22 
REMARK       I    between atoms: N_26  and  C_27 
REMARK       I    between atoms: C_27  and  N_29 
REMARK    7  A    between atoms: N_29  and  C_30 
ROOT
HETATM    1  C   UNL     1      42.438 -12.947   4.927  1.00  0.00     0.037 A 
HETATM    2  C   UNL     1      43.119 -12.034   4.123  1.00  0.00     0.029 A 
HETATM    3  C   UNL     1      42.577 -10.768   3.880  1.00  0.00     0.004 A 
HETATM    4  C   UNL     1      41.354 -10.404   4.447  1.00  0.00     0.023 A 
HETATM    5  C   UNL     1      40.673 -11.308   5.262  1.00  0.00     0.046 A 
HETATM    6  C   UNL     1      41.214 -12.577   5.497  1.00  0.00     0.052 A 
HETATM    7  C   UNL     1      39.441 -10.940   5.895  1.00  0.00     0.099 C 
HETATM    8  N   UNL     1      38.467 -10.658   6.459  1.00  0.00    -0.191 NA
ENDROOT
BRANCH   1   9
HETATM    9  N   UNL     1      42.926 -14.222   5.251  1.00  0.00    -0.309 N 
HETATM   10  C   UNL     1      43.278 -14.719   6.482  1.00  0.00     0.323 C 
HETATM   11  N   UNL     1      43.557 -16.087   6.462  1.00  0.00    -0.325 N 
HETATM   12  O   UNL     1      43.407 -14.039   7.494  1.00  0.00    -0.247 OA
HETATM   13  C   UNL     1      42.769 -17.095   5.732  1.00  0.00     0.122 C 
HETATM   14  C   UNL     1      44.146 -16.691   7.653  1.00  0.00     0.128 C 
HETATM   15  C   UNL     1      43.330 -18.429   6.234  1.00  0.00     0.032 C 
HETATM   16  C   UNL     1      43.625 -18.123   7.695  1.00  0.00     0.022 C 
HETATM   17  H   UNL     1      43.300 -14.758   4.487  1.00  0.00     0.170 HD
BRANCH  13  18
HETATM   18  C   UNL     1      42.765 -16.989   4.223  1.00  0.00    -0.034 A 
HETATM   19  C   UNL     1      43.797 -17.502   3.423  1.00  0.00     0.009 A 
HETATM   20  C   UNL     1      43.790 -17.300   2.037  1.00  0.00     0.002 A 
HETATM   21  C   UNL     1      42.758 -16.581   1.429  1.00  0.00     0.017 A 
HETATM   22  C   UNL     1      41.720 -16.073   2.213  1.00  0.00     0.033 A 
HETATM   23  C   UNL     1      41.721 -16.290   3.597  1.00  0.00     0.026 A 
BRANCH  22  24
HETATM   24  C   UNL     1      40.587 -15.301   1.640  1.00  0.00     0.257 C 
HETATM   25  N   UNL     1      40.852 -14.672   0.443  1.00  0.00    -0.301 N 
HETATM   26  H   UNL     1      41.763 -14.711   0.014  1.00  0.00     0.171 HD
HETATM   27  O   UNL     1      39.557 -15.238   2.299  1.00  0.00    -0.267 OA
BRANCH  25  28
HETATM   28  C   UNL     1      39.934 -13.830  -0.122  1.00  0.00     0.174 A 
HETATM   29  N   UNL     1      39.568 -12.632   0.262  1.00  0.00    -0.228 NA
HETATM   30  C   UNL     1      38.652 -12.123  -0.617  1.00  0.00     0.050 A 
HETATM   31  C   UNL     1      38.099 -10.755  -0.431  1.00  0.00     0.062 C 
HETATM   32  C   UNL     1      38.337 -12.942  -1.679  1.00  0.00     0.013 A 
HETATM   33  C   UNL     1      36.875 -10.527  -1.333  1.00  0.00     0.039 C 
HETATM   34  C   UNL     1      37.118 -11.065  -2.759  1.00  0.00     0.191 C 
HETATM   35  C   UNL     1      37.377 -12.600  -2.763  1.00  0.00     0.081 C 
HETATM   36  S   UNL     1      39.186 -14.417  -1.550  1.00  0.00    -0.055 SA
BRANCH  34  37
HETATM   37  N   UNL     1      35.916 -10.767  -3.631  1.00  0.00    -0.071 N 
HETATM   38  H   UNL     1      35.377 -11.632  -3.784  1.00  0.00     0.277 HD
HETATM   39  H   UNL     1      36.245 -10.478  -4.563  1.00  0.00     0.277 HD
BRANCH  37  40
HETATM   40  C   UNL     1      34.997  -9.694  -3.121  1.00  0.00     0.232 C 
BRANCH  40  41
HETATM   41  C   UNL     1      33.673  -9.781  -3.866  1.00  0.00     0.023 C 
HETATM   42  C   UNL     1      32.840 -10.952  -3.366  1.00  0.00     0.007 C 
ENDBRANCH  40  41
ENDBRANCH  37  40
ENDBRANCH  34  37
ENDBRANCH  25  28
ENDBRANCH  22  24
ENDBRANCH  13  18
ENDBRANCH   1   9
TORSDOF 7
ENDMDL
MODEL 7
REMARK VINA RESULT:      -8.1      3.198     10.160
REMARK  7 active torsions:
REMARK  status: ('A' for Active; 'I' for Inactive)
REMARK    1  A    between atoms: C_2  and  C_3 
REMARK    2  A    between atoms: C_3  and  N_4 
REMARK    3  A    between atoms: N_4  and  C_7 
REMARK    4  A    between atoms: C_12  and  N_13 
REMARK       I    between atoms: N_13  and  C_14 
REMARK    5  A    between atoms: C_14  and  C_16 
REMARK    6  A    between atoms: C_20  and  C_22 
REMARK       I    between atoms: N_26  and  C_27 
REMARK       I    between atoms: C_27  and  N_29 
REMARK    7  A    between atoms: N_29  and  C_30 
ROOT
HETATM    1  C   UNL     1      42.951 -14.614   4.270  1.00  0.00     0.037 A 
HETATM    2  C   UNL     1      42.781 -15.542   3.244  1.00  0.00     0.029 A 
HETATM    3  C   UNL     1      42.961 -16.907   3.492  1.00  0.00     0.004 A 
HETATM    4  C   UNL     1      43.304 -17.352   4.770  1.00  0.00     0.023 A 
HETATM    5  C   UNL     1      43.463 -16.430   5.805  1.00  0.00     0.046 A 
HETATM    6  C   UNL     1      43.290 -15.064   5.551  1.00  0.00     0.052 A 
HETATM    7  C   UNL     1      43.765 -16.866   7.135  1.00  0.00     0.099 C 
HETATM    8  N   UNL     1      43.964 -17.189   8.232  1.00  0.00    -0.191 NA
ENDROOT
BRANCH   1   9
HETATM    9  N   UNL     1      42.753 -13.234   4.117  1.00  0.00    -0.309 N 
HETATM   10  C   UNL     1      41.860 -12.578   3.306  1.00  0.00     0.323 C 
HETATM   11  N   UNL     1      41.815 -11.202   3.538  1.00  0.00    -0.325 N 
HETATM   12  O   UNL     1      41.209 -13.115   2.416  1.00  0.00    -0.247 OA
HETATM   13  C   UNL     1      41.821 -10.574   4.870  1.00  0.00     0.122 C 
HETATM   14  C   UNL     1      41.069 -10.366   2.603  1.00  0.00     0.128 C 
HETATM   15  C   UNL     1      41.508  -9.102   4.580  1.00  0.00     0.032 C 
HETATM   16  C   UNL     1      40.522  -9.206   3.426  1.00  0.00     0.022 C 
HETATM   17  H   UNL     1      43.502 -12.643   4.439  1.00  0.00     0.170 HD
BRANCH  13  18
HETATM   18  C   UNL     1      43.072 -10.757   5.700  1.00  0.00    -0.034 A 
HETATM   19  C   UNL     1      44.273 -11.247   5.167  1.00  0.00     0.009 A 
HETATM   20  C   UNL     1      45.377 -11.482   5.996  1.00  0.00     0.002 A 
HETATM   21  C   UNL     1      45.299 -11.236   7.369  1.00  0.00     0.017 A 
HETATM   22  C   UNL     1      44.112 -10.740   7.912  1.00  0.00     0.033 A 
HETATM   23  C   UNL     1      43.015 -10.490   7.078  1.00  0.00     0.026 A 
BRANCH  22  24
HETATM   24  C   UNL     1      43.953 -10.450   9.360  1.00  0.00     0.257 C 
HETATM   25  N   UNL     1      42.896  -9.626   9.680  1.00  0.00    -0.301 N 
HETATM   26  H   UNL     1      42.301  -9.227   8.971  1.00  0.00     0.171 HD
HETATM   27  O   UNL     1      44.796 -10.905  10.122  1.00  0.00    -0.267 OA
BRANCH  25  28
HETATM   28  C   UNL     1      42.717  -9.184  10.963  1.00  0.00     0.174 A 
HETATM   29  N   UNL     1      43.260  -8.154  11.562  1.00  0.00    -0.228 NA
HETATM   30  C   UNL     1      42.771  -8.046  12.834  1.00  0.00     0.050 A 
HETATM   31  C   UNL     1      43.199  -6.933  13.722  1.00  0.00     0.062 C 
HETATM   32  C   UNL     1      41.840  -8.999  13.189  1.00  0.00     0.013 A 
HETATM   33  C   UNL     1      42.779  -7.195  15.178  1.00  0.00     0.039 C 
HETATM   34  C   UNL     1      41.330  -7.722  15.260  1.00  0.00     0.191 C 
HETATM   35  C   UNL     1      41.164  -9.077  14.512  1.00  0.00     0.081 C 
HETATM   36  S   UNL     1      41.602 -10.090  11.899  1.00  0.00    -0.055 SA
BRANCH  34  37
HETATM   37  N   UNL     1      40.934  -7.908  16.709  1.00  0.00    -0.071 N 
HETATM   38  H   UNL     1      41.282  -8.817  17.049  1.00  0.00     0.277 HD
HETATM   39  H   UNL     1      39.908  -7.966  16.768  1.00  0.00     0.277 HD
BRANCH  37  40
HETATM   40  C   UNL     1      41.382  -6.824  17.647  1.00  0.00     0.232 C 
BRANCH  40  41
HETATM   41  C   UNL     1      40.504  -6.849  18.890  1.00  0.00     0.023 C 
HETATM   42  C   UNL     1      39.664  -8.117  18.940  1.00  0.00     0.007 C 
ENDBRANCH  40  41
ENDBRANCH  37  40
ENDBRANCH  34  37
ENDBRANCH  25  28
ENDBRANCH  22  24
ENDBRANCH  13  18
ENDBRANCH   1   9
TORSDOF 7
ENDMDL
MODEL 8
REMARK VINA RESULT:      -7.9      2.681     10.061
REMARK  7 active torsions:
REMARK  status: ('A' for Active; 'I' for Inactive)
REMARK    1  A    between atoms: C_2  and  C_3 
REMARK    2  A    between atoms: C_3  and  N_4 
REMARK    3  A    between atoms: N_4  and  C_7 
REMARK    4  A    between atoms: C_12  and  N_13 
REMARK       I    between atoms: N_13  and  C_14 
REMARK    5  A    between atoms: C_14  and  C_16 
REMARK    6  A    between atoms: C_20  and  C_22 
REMARK       I    between atoms: N_26  and  C_27 
REMARK       I    between atoms: C_27  and  N_29 
REMARK    7  A    between atoms: N_29  and  C_30 
ROOT
HETATM    1  C   UNL     1      44.276 -11.660   7.154  1.00  0.00     0.037 A 
HETATM    2  C   UNL     1      45.548 -11.292   6.716  1.00  0.00     0.029 A 
HETATM    3  C   UNL     1      46.334 -10.427   7.483  1.00  0.00     0.004 A 
HETATM    4  C   UNL     1      45.857  -9.930   8.698  1.00  0.00     0.023 A 
HETATM    5  C   UNL     1      44.590 -10.304   9.148  1.00  0.00     0.046 A 
HETATM    6  C   UNL     1      43.803 -11.164   8.374  1.00  0.00     0.052 A 
HETATM    7  C   UNL     1      44.099  -9.848  10.415  1.00  0.00     0.099 C 
HETATM    8  N   UNL     1      43.690  -9.534  11.455  1.00  0.00    -0.191 NA
ENDROOT
BRANCH   1   9
HETATM    9  N   UNL     1      43.439 -12.551   6.466  1.00  0.00    -0.309 N 
HETATM   10  C   UNL     1      43.523 -13.919   6.382  1.00  0.00     0.323 C 
HETATM   11  N   UNL     1      42.418 -14.500   5.758  1.00  0.00    -0.325 N 
HETATM   12  O   UNL     1      44.491 -14.577   6.748  1.00  0.00    -0.247 OA
HETATM   13  C   UNL     1      41.018 -14.108   5.994  1.00  0.00     0.122 C 
HETATM   14  C   UNL     1      42.482 -15.917   5.415  1.00  0.00     0.128 C 
HETATM   15  C   UNL     1      40.210 -15.196   5.277  1.00  0.00     0.032 C 
HETATM   16  C   UNL     1      41.054 -16.437   5.526  1.00  0.00     0.022 C 
HETATM   17  H   UNL     1      42.857 -12.146   5.752  1.00  0.00     0.170 HD
BRANCH  13  18
HETATM   18  C   UNL     1      40.625 -12.710   5.573  1.00  0.00    -0.034 A 
HETATM   19  C   UNL     1      40.545 -12.315   4.229  1.00  0.00     0.009 A 
HETATM   20  C   UNL     1      40.264 -10.985   3.893  1.00  0.00     0.002 A 
HETATM   21  C   UNL     1      40.061 -10.029   4.892  1.00  0.00     0.017 A 
HETATM   22  C   UNL     1      40.128 -10.410   6.233  1.00  0.00     0.033 A 
HETATM   23  C   UNL     1      40.394 -11.745   6.566  1.00  0.00     0.026 A 
BRANCH  22  24
HETATM   24  C   UNL     1      39.921  -9.453   7.349  1.00  0.00     0.257 C 
HETATM   25  N   UNL     1      40.872  -9.500   8.346  1.00  0.00    -0.301 N 
HETATM   26  H   UNL     1      41.630 -10.164   8.324  1.00  0.00     0.171 HD
HETATM   27  O   UNL     1      38.909  -8.764   7.322  1.00  0.00    -0.267 OA
BRANCH  25  28
HETATM   28  C   UNL     1      40.727  -8.759   9.487  1.00  0.00     0.174 A 
HETATM   29  N   UNL     1      41.140  -7.541   9.736  1.00  0.00    -0.228 NA
HETATM   30  C   UNL     1      40.743  -7.164  10.990  1.00  0.00     0.050 A 
HETATM   31  C   UNL     1      41.053  -5.806  11.508  1.00  0.00     0.062 C 
HETATM   32  C   UNL     1      40.014  -8.105  11.683  1.00  0.00     0.013 A 
HETATM   33  C   UNL     1      40.800  -5.723  13.023  1.00  0.00     0.039 C 
HETATM   34  C   UNL     1      39.469  -6.402  13.410  1.00  0.00     0.191 C 
HETATM   35  C   UNL     1      39.468  -7.918  13.055  1.00  0.00     0.081 C 
HETATM   36  S   UNL     1      39.854  -9.524  10.749  1.00  0.00    -0.055 SA
BRANCH  34  37
HETATM   37  N   UNL     1      39.227  -6.246  14.897  1.00  0.00    -0.071 N 
HETATM   38  H   UNL     1      38.291  -6.606  15.135  1.00  0.00     0.277 HD
HETATM   39  H   UNL     1      39.203  -5.242  15.125  1.00  0.00     0.277 HD
BRANCH  37  40
HETATM   40  C   UNL     1      40.248  -6.890  15.789  1.00  0.00     0.232 C 
BRANCH  40  41
HETATM   41  C   UNL     1      39.814  -6.725  17.239  1.00  0.00     0.023 C 
HETATM   42  C   UNL     1      40.410  -7.816  18.116  1.00  0.00     0.007 C 
ENDBRANCH  40  41
ENDBRANCH  37  40
ENDBRANCH  34  37
ENDBRANCH  25  28
ENDBRANCH  22  24
ENDBRANCH  13  18
ENDBRANCH   1   9
TORSDOF 7
ENDMDL
MODEL 9
REMARK VINA RESULT:      -7.9      3.382      9.628
REMARK  7 active torsions:
REMARK  status: ('A' for Active; 'I' for Inactive)
REMARK    1  A    between atoms: C_2  and  C_3 
REMARK    2  A    between atoms: C_3  and  N_4 
REMARK    3  A    between atoms: N_4  and  C_7 
REMARK    4  A    between atoms: C_12  and  N_13 
REMARK       I    between atoms: N_13  and  C_14 
REMARK    5  A    between atoms: C_14  and  C_16 
REMARK    6  A    between atoms: C_20  and  C_22 
REMARK       I    between atoms: N_26  and  C_27 
REMARK       I    between atoms: C_27  and  N_29 
REMARK    7  A    between atoms: N_29  and  C_30 
ROOT
HETATM    1  C   UNL     1      41.367 -11.322   3.721  1.00  0.00     0.037 A 
HETATM    2  C   UNL     1      42.011 -11.368   2.485  1.00  0.00     0.029 A 
HETATM    3  C   UNL     1      41.714 -10.419   1.501  1.00  0.00     0.004 A 
HETATM    4  C   UNL     1      40.779  -9.413   1.751  1.00  0.00     0.023 A 
HETATM    5  C   UNL     1      40.139  -9.354   2.990  1.00  0.00     0.046 A 
HETATM    6  C   UNL     1      40.433 -10.310   3.969  1.00  0.00     0.052 A 
HETATM    7  C   UNL     1      39.213  -8.303   3.287  1.00  0.00     0.099 C 
HETATM    8  N   UNL     1      38.493  -7.439   3.577  1.00  0.00    -0.191 NA
ENDROOT
BRANCH   1   9
HETATM    9  N   UNL     1      41.631 -12.211   4.774  1.00  0.00    -0.309 N 
HETATM   10  C   UNL     1      41.079 -13.445   5.016  1.00  0.00     0.323 C 
HETATM   11  N   UNL     1      41.705 -14.131   6.058  1.00  0.00    -0.325 N 
HETATM   12  O   UNL     1      40.096 -13.890   4.434  1.00  0.00    -0.247 OA
HETATM   13  C   UNL     1      43.161 -14.195   6.268  1.00  0.00     0.122 C 
HETATM   14  C   UNL     1      41.082 -15.354   6.554  1.00  0.00     0.128 C 
HETATM   15  C   UNL     1      43.325 -15.252   7.365  1.00  0.00     0.032 C 
HETATM   16  C   UNL     1      42.227 -16.247   7.017  1.00  0.00     0.022 C 
HETATM   17  H   UNL     1      42.085 -11.816   5.580  1.00  0.00     0.170 HD
BRANCH  13  18
HETATM   18  C   UNL     1      43.856 -12.893   6.598  1.00  0.00    -0.034 A 
HETATM   19  C   UNL     1      44.739 -12.257   5.713  1.00  0.00     0.009 A 
HETATM   20  C   UNL     1      45.426 -11.100   6.100  1.00  0.00     0.002 A 
HETATM   21  C   UNL     1      45.245 -10.562   7.377  1.00  0.00     0.017 A 
HETATM   22  C   UNL     1      44.363 -11.179   8.265  1.00  0.00     0.033 A 
HETATM   23  C   UNL     1      43.665 -12.327   7.869  1.00  0.00     0.026 A 
BRANCH  22  24
HETATM   24  C   UNL     1      44.116 -10.665   9.636  1.00  0.00     0.257 C 
HETATM   25  N   UNL     1      42.918 -10.006   9.809  1.00  0.00    -0.301 N 
HETATM   26  H   UNL     1      42.278  -9.860   9.043  1.00  0.00     0.171 HD
HETATM   27  O   UNL     1      45.007 -10.810  10.462  1.00  0.00    -0.267 OA
BRANCH  25  28
HETATM   28  C   UNL     1      42.628  -9.379  10.989  1.00  0.00     0.174 A 
HETATM   29  N   UNL     1      43.395  -8.615  11.726  1.00  0.00    -0.228 NA
HETATM   30  C   UNL     1      42.693  -8.156  12.806  1.00  0.00     0.050 A 
HETATM   31  C   UNL     1      43.325  -7.234  13.787  1.00  0.00     0.062 C 
HETATM   32  C   UNL     1      41.380  -8.569  12.873  1.00  0.00     0.013 A 
HETATM   33  C   UNL     1      42.469  -7.113  15.060  1.00  0.00     0.039 C 
HETATM   34  C   UNL     1      40.972  -6.956  14.720  1.00  0.00     0.191 C 
HETATM   35  C   UNL     1      40.422  -8.190  13.946  1.00  0.00     0.081 C 
HETATM   36  S   UNL     1      41.026  -9.600  11.561  1.00  0.00    -0.055 SA
BRANCH  34  37
HETATM   37  N   UNL     1      40.173  -6.779  15.994  1.00  0.00    -0.071 N 
HETATM   38  H   UNL     1      40.042  -7.693  16.450  1.00  0.00     0.277 HD
HETATM   39  H   UNL     1      39.228  -6.452  15.750  1.00  0.00     0.277 HD
BRANCH  37  40
HETATM   40  C   UNL     1      40.746  -5.809  16.987  1.00  0.00     0.232 C 
BRANCH  40  41
HETATM   41  C   UNL     1      40.581  -6.378  18.389  1.00  0.00     0.023 C 
HETATM   42  C   UNL     1      39.993  -7.781  18.342  1.00  0.00     0.007 C 
ENDBRANCH  40  41
ENDBRANCH  37  40
ENDBRANCH  34  37
ENDBRANCH  25  28
ENDBRANCH  22  24
ENDBRANCH  13  18
ENDBRANCH   1   9
TORSDOF 7
ENDMDL
MODEL 10
REMARK VINA RESULT:      -7.8      4.275     10.121
REMARK  7 active torsions:
REMARK  status: ('A' for Active; 'I' for Inactive)
REMARK    1  A    between atoms: C_2  and  C_3 
REMARK    2  A    between atoms: C_3  and  N_4 
REMARK    3  A    between atoms: N_4  and  C_7 
REMARK    4  A    between atoms: C_12  and  N_13 
REMARK       I    between atoms: N_13  and  C_14 
REMARK    5  A    between atoms: C_14  and  C_16 
REMARK    6  A    between atoms: C_20  and  C_22 
REMARK       I    between atoms: N_26  and  C_27 
REMARK       I    between atoms: C_27  and  N_29 
REMARK    7  A    between atoms: N_29  and  C_30 
ROOT
HETATM    1  C   UNL     1      41.399 -14.057   1.846  1.00  0.00     0.037 A 
HETATM    2  C   UNL     1      42.630 -14.709   1.906  1.00  0.00     0.029 A 
HETATM    3  C   UNL     1      43.174 -15.072   3.143  1.00  0.00     0.004 A 
HETATM    4  C   UNL     1      42.486 -14.795   4.325  1.00  0.00     0.023 A 
HETATM    5  C   UNL     1      41.247 -14.154   4.271  1.00  0.00     0.046 A 
HETATM    6  C   UNL     1      40.709 -13.785   3.033  1.00  0.00     0.052 A 
HETATM    7  C   UNL     1      40.499 -13.904   5.467  1.00  0.00     0.099 C 
HETATM    8  N   UNL     1      39.847 -13.728   6.411  1.00  0.00    -0.191 NA
ENDROOT
BRANCH   1   9
HETATM    9  N   UNL     1      40.765 -13.691   0.649  1.00  0.00    -0.309 N 
HETATM   10  C   UNL     1      39.928 -14.438  -0.144  1.00  0.00     0.323 C 
HETATM   11  N   UNL     1      39.338 -13.697  -1.169  1.00  0.00    -0.325 N 
HETATM   12  O   UNL     1      39.756 -15.646  -0.024  1.00  0.00    -0.247 OA
HETATM   13  C   UNL     1      38.786 -12.340  -1.015  1.00  0.00     0.122 C 
HETATM   14  C   UNL     1      38.600 -14.414  -2.204  1.00  0.00     0.128 C 
HETATM   15  C   UNL     1      38.050 -12.095  -2.337  1.00  0.00     0.032 C 
HETATM   16  C   UNL     1      37.487 -13.473  -2.650  1.00  0.00     0.022 C 
HETATM   17  H   UNL     1      41.147 -12.890   0.176  1.00  0.00     0.170 HD
BRANCH  13  18
HETATM   18  C   UNL     1      39.771 -11.243  -0.678  1.00  0.00    -0.034 A 
HETATM   19  C   UNL     1      40.776 -10.825  -1.562  1.00  0.00     0.009 A 
HETATM   20  C   UNL     1      41.718  -9.868  -1.169  1.00  0.00     0.002 A 
HETATM   21  C   UNL     1      41.675  -9.315   0.114  1.00  0.00     0.017 A 
HETATM   22  C   UNL     1      40.675  -9.715   1.002  1.00  0.00     0.033 A 
HETATM   23  C   UNL     1      39.724 -10.661   0.600  1.00  0.00     0.026 A 
BRANCH  22  24
HETATM   24  C   UNL     1      40.562  -9.172   2.379  1.00  0.00     0.257 C 
HETATM   25  N   UNL     1      41.682  -9.331   3.167  1.00  0.00    -0.301 N 
HETATM   26  H   UNL     1      42.501  -9.814   2.831  1.00  0.00     0.171 HD
HETATM   27  O   UNL     1      39.483  -8.698   2.712  1.00  0.00    -0.267 OA
BRANCH  25  28
HETATM   28  C   UNL     1      41.661  -8.987   4.491  1.00  0.00     0.174 A 
HETATM   29  N   UNL     1      41.461  -7.812   5.034  1.00  0.00    -0.228 NA
HETATM   30  C   UNL     1      41.479  -7.921   6.396  1.00  0.00     0.050 A 
HETATM   31  C   UNL     1      41.238  -6.733   7.257  1.00  0.00     0.062 C 
HETATM   32  C   UNL     1      41.682  -9.195   6.882  1.00  0.00     0.013 A 
HETATM   33  C   UNL     1      41.621  -7.025   8.718  1.00  0.00     0.039 C 
HETATM   34  C   UNL     1      41.109  -8.409   9.169  1.00  0.00     0.191 C 
HETATM   35  C   UNL     1      41.731  -9.559   8.323  1.00  0.00     0.081 C 
HETATM   36  S   UNL     1      41.899 -10.285   5.587  1.00  0.00    -0.055 SA
BRANCH  34  37
HETATM   37  N   UNL     1      41.451  -8.632  10.628  1.00  0.00    -0.071 N 
HETATM   38  H   UNL     1      40.666  -9.105  11.099  1.00  0.00     0.277 HD
HETATM   39  H   UNL     1      41.542  -7.717  11.091  1.00  0.00     0.277 HD
BRANCH  37  40
HETATM   40  C   UNL     1      42.716  -9.398  10.885  1.00  0.00     0.232 C 
BRANCH  40  41
HETATM   41  C   UNL     1      43.470  -8.739  12.032  1.00  0.00     0.023 C 
HETATM   42  C   UNL     1      42.749  -7.488  12.512  1.00  0.00     0.007 C 
ENDBRANCH  40  41
ENDBRANCH  37  40
ENDBRANCH  34  37
ENDBRANCH  25  28
ENDBRANCH  22  24
ENDBRANCH  13  18
ENDBRANCH   1   9
TORSDOF 7
ENDMDL
