MODEL 1
REMARK VINA RESULT:      -8.0      0.000      0.000
REMARK  6 active torsions:
REMARK  status: ('A' for Active; 'I' for Inactive)
REMARK    1  A    between atoms: N_1  and  C_2 
REMARK    2  A    between atoms: C_2  and  C_3 
REMARK    3  A    between atoms: C_2  and  C_11 
REMARK    4  A    between atoms: C_3  and  C_4 
REMARK       I    between atoms: C_11  and  N_13 
REMARK    5  A    between atoms: N_13  and  C_14 
REMARK    6  A    between atoms: C_17  and  C_20 
ROOT
HETATM    1  C   UNL     1      41.582 -14.830   3.473  1.00  0.00     0.255 C 
HETATM    2  O   UNL     1      40.583 -14.725   4.179  1.00  0.00    -0.271 OA
HETATM    3  N   UNL     1      42.794 -14.194   3.667  1.00  0.00    -0.325 N 
HETATM    4  H   UNL     1      43.488 -14.435   2.960  1.00  0.00     0.169 HD
ENDROOT
BRANCH   1   5
HETATM    5  C   UNL     1      41.585 -15.715   2.202  1.00  0.00     0.313 C 
BRANCH   5   6
HETATM    6  N   UNL     1      41.051 -14.946   1.038  1.00  0.00     0.092 N 
HETATM    7  H   UNL     1      41.735 -15.029   0.281  1.00  0.00     0.313 HD
HETATM    8  H   UNL     1      41.062 -13.953   1.283  1.00  0.00     0.313 HD
ENDBRANCH   5   6
BRANCH   5   9
HETATM    9  C   UNL     1      43.013 -16.243   1.964  1.00  0.00     0.083 C 
BRANCH   9  10
HETATM   10  C   UNL     1      43.362 -17.469   2.776  1.00  0.00    -0.056 A 
HETATM   11  C   UNL     1      43.229 -18.752   2.226  1.00  0.00     0.009 A 
HETATM   12  C   UNL     1      43.566 -19.881   2.977  1.00  0.00     0.024 A 
HETATM   13  C   UNL     1      44.037 -19.731   4.279  1.00  0.00     0.034 A 
HETATM   14 CL   UNL     1      44.462 -21.122   5.199  1.00  0.00    -0.084 Cl
HETATM   15  C   UNL     1      44.172 -18.462   4.839  1.00  0.00     0.024 A 
HETATM   16  C   UNL     1      43.831 -17.334   4.090  1.00  0.00     0.009 A 
ENDBRANCH   9  10
ENDBRANCH   5   9
ENDBRANCH   1   5
BRANCH   3  17
HETATM   17  C   UNL     1      43.194 -13.392   4.748  1.00  0.00     0.034 A 
HETATM   18  C   UNL     1      43.482 -12.049   4.484  1.00  0.00     0.030 A 
HETATM   19  C   UNL     1      43.941 -11.201   5.502  1.00  0.00     0.014 A 
HETATM   20  C   UNL     1      44.114 -11.679   6.806  1.00  0.00    -0.023 A 
HETATM   21  C   UNL     1      43.793 -13.016   7.070  1.00  0.00     0.014 A 
HETATM   22  C   UNL     1      43.340 -13.864   6.051  1.00  0.00     0.030 A 
BRANCH  20  23
HETATM   23  C   UNL     1      44.621 -10.803   7.852  1.00  0.00     0.010 A 
HETATM   24  C   UNL     1      44.131 -10.527   9.151  1.00  0.00     0.152 A 
HETATM   25  N   UNL     1      44.872  -9.630   9.808  1.00  0.00    -0.187 NA
HETATM   26  N   UNL     1      45.841  -9.324   8.933  1.00  0.00    -0.289 N 
HETATM   27  H   UNL     1      46.542  -8.644   9.208  1.00  0.00     0.188 HD
HETATM   28  C   UNL     1      45.734  -9.993   7.748  1.00  0.00     0.123 A 
ENDBRANCH  20  23
ENDBRANCH   3  17
TORSDOF 6
ENDMDL
MODEL 2
REMARK VINA RESULT:      -7.9      3.732      7.263
REMARK  6 active torsions:
REMARK  status: ('A' for Active; 'I' for Inactive)
REMARK    1  A    between atoms: N_1  and  C_2 
REMARK    2  A    between atoms: C_2  and  C_3 
REMARK    3  A    between atoms: C_2  and  C_11 
REMARK    4  A    between atoms: C_3  and  C_4 
REMARK       I    between atoms: C_11  and  N_13 
REMARK    5  A    between atoms: N_13  and  C_14 
REMARK    6  A    between atoms: C_17  and  C_20 
ROOT
HETATM    1  C   UNL     1      42.013 -14.384   4.544  1.00  0.00     0.255 C 
HETATM    2  O   UNL     1      42.760 -13.498   4.138  1.00  0.00    -0.271 OA
HETATM    3  N   UNL     1      40.892 -14.872   3.897  1.00  0.00    -0.325 N 
HETATM    4  H   UNL     1      40.425 -15.615   4.416  1.00  0.00     0.169 HD
ENDROOT
BRANCH   1   5
HETATM    5  C   UNL     1      42.239 -15.070   5.914  1.00  0.00     0.313 C 
BRANCH   5   6
HETATM    6  N   UNL     1      41.127 -16.023   6.203  1.00  0.00     0.092 N 
HETATM    7  H   UNL     1      40.255 -15.566   5.920  1.00  0.00     0.313 HD
HETATM    8  H   UNL     1      41.046 -16.119   7.218  1.00  0.00     0.313 HD
ENDBRANCH   5   6
BRANCH   5   9
HETATM    9  C   UNL     1      43.622 -15.750   5.910  1.00  0.00     0.083 C 
BRANCH   9  10
HETATM   10  C   UNL     1      43.703 -16.978   5.032  1.00  0.00    -0.056 A 
HETATM   11  C   UNL     1      43.938 -18.242   5.593  1.00  0.00     0.009 A 
HETATM   12  C   UNL     1      43.998 -19.375   4.778  1.00  0.00     0.024 A 
HETATM   13  C   UNL     1      43.822 -19.249   3.401  1.00  0.00     0.034 A 
HETATM   14 CL   UNL     1      43.884 -20.647   2.401  1.00  0.00    -0.084 Cl
HETATM   15  C   UNL     1      43.589 -17.999   2.832  1.00  0.00     0.024 A 
HETATM   16  C   UNL     1      43.533 -16.865   3.645  1.00  0.00     0.009 A 
ENDBRANCH   9  10
ENDBRANCH   5   9
ENDBRANCH   1   5
BRANCH   3  17
HETATM   17  C   UNL     1      40.426 -14.561   2.610  1.00  0.00     0.034 A 
HETATM   18  C   UNL     1      40.387 -15.595   1.670  1.00  0.00     0.030 A 
HETATM   19  C   UNL     1      39.988 -15.349   0.349  1.00  0.00     0.014 A 
HETATM   20  C   UNL     1      39.611 -14.063  -0.056  1.00  0.00    -0.023 A 
HETATM   21  C   UNL     1      39.621 -13.039   0.899  1.00  0.00     0.014 A 
HETATM   22  C   UNL     1      40.026 -13.285   2.217  1.00  0.00     0.030 A 
BRANCH  20  23
HETATM   23  C   UNL     1      39.228 -13.806  -1.436  1.00  0.00     0.010 A 
HETATM   24  C   UNL     1      39.040 -14.689  -2.527  1.00  0.00     0.152 A 
HETATM   25  N   UNL     1      38.711 -14.057  -3.658  1.00  0.00    -0.187 NA
HETATM   26  N   UNL     1      38.688 -12.765  -3.298  1.00  0.00    -0.289 N 
HETATM   27  H   UNL     1      38.462 -12.073  -4.004  1.00  0.00     0.188 HD
HETATM   28  C   UNL     1      38.994 -12.561  -1.983  1.00  0.00     0.123 A 
ENDBRANCH  20  23
ENDBRANCH   3  17
TORSDOF 6
ENDMDL
MODEL 3
REMARK VINA RESULT:      -7.9      4.501      8.042
REMARK  6 active torsions:
REMARK  status: ('A' for Active; 'I' for Inactive)
REMARK    1  A    between atoms: N_1  and  C_2 
REMARK    2  A    between atoms: C_2  and  C_3 
REMARK    3  A    between atoms: C_2  and  C_11 
REMARK    4  A    between atoms: C_3  and  C_4 
REMARK       I    between atoms: C_11  and  N_13 
REMARK    5  A    between atoms: N_13  and  C_14 
REMARK    6  A    between atoms: C_17  and  C_20 
ROOT
HETATM    1  C   UNL     1      41.137 -13.017   3.130  1.00  0.00     0.255 C 
HETATM    2  O   UNL     1      40.138 -13.592   3.553  1.00  0.00    -0.271 OA
HETATM    3  N   UNL     1      42.389 -13.575   2.945  1.00  0.00    -0.325 N 
HETATM    4  H   UNL     1      43.069 -12.913   2.575  1.00  0.00     0.169 HD
ENDROOT
BRANCH   1   5
HETATM    5  C   UNL     1      41.110 -11.512   2.762  1.00  0.00     0.313 C 
BRANCH   5   6
HETATM    6  N   UNL     1      42.010 -10.744   3.674  1.00  0.00     0.092 N 
HETATM    7  H   UNL     1      42.241  -9.866   3.202  1.00  0.00     0.313 HD
HETATM    8  H   UNL     1      42.901 -11.243   3.735  1.00  0.00     0.313 HD
ENDBRANCH   5   6
BRANCH   5   9
HETATM    9  C   UNL     1      41.489 -11.354   1.277  1.00  0.00     0.083 C 
BRANCH   9  10
HETATM   10  C   UNL     1      40.442 -11.865   0.314  1.00  0.00    -0.056 A 
HETATM   11  C   UNL     1      40.763 -12.842  -0.638  1.00  0.00     0.009 A 
HETATM   12  C   UNL     1      39.786 -13.320  -1.515  1.00  0.00     0.024 A 
HETATM   13  C   UNL     1      38.487 -12.823  -1.444  1.00  0.00     0.034 A 
HETATM   14 CL   UNL     1      37.283 -13.421  -2.518  1.00  0.00    -0.084 Cl
HETATM   15  C   UNL     1      38.156 -11.850  -0.504  1.00  0.00     0.024 A 
HETATM   16  C   UNL     1      39.131 -11.369   0.371  1.00  0.00     0.009 A 
ENDBRANCH   9  10
ENDBRANCH   5   9
ENDBRANCH   1   5
BRANCH   3  17
HETATM   17  C   UNL     1      42.771 -14.919   3.084  1.00  0.00     0.034 A 
HETATM   18  C   UNL     1      42.815 -15.701   1.926  1.00  0.00     0.030 A 
HETATM   19  C   UNL     1      43.132 -17.064   1.993  1.00  0.00     0.014 A 
HETATM   20  C   UNL     1      43.420 -17.672   3.221  1.00  0.00    -0.023 A 
HETATM   21  C   UNL     1      43.406 -16.875   4.373  1.00  0.00     0.014 A 
HETATM   22  C   UNL     1      43.083 -15.514   4.305  1.00  0.00     0.030 A 
BRANCH  20  23
HETATM   23  C   UNL     1      43.717 -19.095   3.288  1.00  0.00     0.010 A 
HETATM   24  C   UNL     1      43.681 -20.100   2.292  1.00  0.00     0.152 A 
HETATM   25  N   UNL     1      44.001 -21.310   2.760  1.00  0.00    -0.187 NA
HETATM   26  N   UNL     1      44.242 -21.088   4.060  1.00  0.00    -0.289 N 
HETATM   27  H   UNL     1      44.506 -21.875   4.643  1.00  0.00     0.188 HD
HETATM   28  C   UNL     1      44.082 -19.783   4.428  1.00  0.00     0.123 A 
ENDBRANCH  20  23
ENDBRANCH   3  17
TORSDOF 6
ENDMDL
MODEL 4
REMARK VINA RESULT:      -7.5      3.529      7.481
REMARK  6 active torsions:
REMARK  status: ('A' for Active; 'I' for Inactive)
REMARK    1  A    between atoms: N_1  and  C_2 
REMARK    2  A    between atoms: C_2  and  C_3 
REMARK    3  A    between atoms: C_2  and  C_11 
REMARK    4  A    between atoms: C_3  and  C_4 
REMARK       I    between atoms: C_11  and  N_13 
REMARK    5  A    between atoms: N_13  and  C_14 
REMARK    6  A    between atoms: C_17  and  C_20 
ROOT
HETATM    1  C   UNL     1      41.828 -13.261   5.760  1.00  0.00     0.255 C 
HETATM    2  O   UNL     1      40.984 -13.911   6.372  1.00  0.00    -0.271 OA
HETATM    3  N   UNL     1      42.896 -13.771   5.045  1.00  0.00    -0.325 N 
HETATM    4  H   UNL     1      43.465 -13.046   4.609  1.00  0.00     0.169 HD
ENDROOT
BRANCH   1   5
HETATM    5  C   UNL     1      41.802 -11.712   5.744  1.00  0.00     0.313 C 
BRANCH   5   6
HETATM    6  N   UNL     1      43.140 -11.180   5.348  1.00  0.00     0.092 N 
HETATM    7  H   UNL     1      43.208 -11.258   4.330  1.00  0.00     0.313 HD
HETATM    8  H   UNL     1      43.854 -11.822   5.702  1.00  0.00     0.313 HD
ENDBRANCH   5   6
BRANCH   5   9
HETATM    9  C   UNL     1      40.672 -11.241   4.809  1.00  0.00     0.083 C 
BRANCH   9  10
HETATM   10  C   UNL     1      40.584 -12.009   3.510  1.00  0.00    -0.056 A 
HETATM   11  C   UNL     1      39.650 -13.044   3.354  1.00  0.00     0.009 A 
HETATM   12  C   UNL     1      39.565 -13.741   2.146  1.00  0.00     0.024 A 
HETATM   13  C   UNL     1      40.411 -13.406   1.091  1.00  0.00     0.034 A 
HETATM   14 CL   UNL     1      40.297 -14.258  -0.399  1.00  0.00    -0.084 Cl
HETATM   15  C   UNL     1      41.345 -12.382   1.234  1.00  0.00     0.024 A 
HETATM   16  C   UNL     1      41.434 -11.687   2.442  1.00  0.00     0.009 A 
ENDBRANCH   9  10
ENDBRANCH   5   9
ENDBRANCH   1   5
BRANCH   3  17
HETATM   17  C   UNL     1      43.193 -15.113   4.762  1.00  0.00     0.034 A 
HETATM   18  C   UNL     1      42.867 -15.593   3.489  1.00  0.00     0.030 A 
HETATM   19  C   UNL     1      43.080 -16.936   3.153  1.00  0.00     0.014 A 
HETATM   20  C   UNL     1      43.631 -17.827   4.082  1.00  0.00    -0.023 A 
HETATM   21  C   UNL     1      43.984 -17.333   5.344  1.00  0.00     0.014 A 
HETATM   22  C   UNL     1      43.766 -15.991   5.681  1.00  0.00     0.030 A 
BRANCH  20  23
HETATM   23  C   UNL     1      43.821 -19.228   3.738  1.00  0.00     0.010 A 
HETATM   24  C   UNL     1      43.698 -19.906   2.501  1.00  0.00     0.152 A 
HETATM   25  N   UNL     1      43.931 -21.218   2.600  1.00  0.00    -0.187 NA
HETATM   26  N   UNL     1      44.201 -21.390   3.902  1.00  0.00    -0.289 N 
HETATM   27  H   UNL     1      44.410 -22.326   4.232  1.00  0.00     0.188 HD
HETATM   28  C   UNL     1      44.144 -20.234   4.627  1.00  0.00     0.123 A 
ENDBRANCH  20  23
ENDBRANCH   3  17
TORSDOF 6
ENDMDL
MODEL 5
REMARK VINA RESULT:      -7.5      3.582      8.313
REMARK  6 active torsions:
REMARK  status: ('A' for Active; 'I' for Inactive)
REMARK    1  A    between atoms: N_1  and  C_2 
REMARK    2  A    between atoms: C_2  and  C_3 
REMARK    3  A    between atoms: C_2  and  C_11 
REMARK    4  A    between atoms: C_3  and  C_4 
REMARK       I    between atoms: C_11  and  N_13 
REMARK    5  A    between atoms: N_13  and  C_14 
REMARK    6  A    between atoms: C_17  and  C_20 
ROOT
HETATM    1  C   UNL     1      42.049 -12.694   4.318  1.00  0.00     0.255 C 
HETATM    2  O   UNL     1      42.840 -12.465   3.406  1.00  0.00    -0.271 OA
HETATM    3  N   UNL     1      41.688 -13.939   4.797  1.00  0.00    -0.325 N 
HETATM    4  H   UNL     1      41.021 -13.892   5.567  1.00  0.00     0.169 HD
ENDROOT
BRANCH   1   5
HETATM    5  C   UNL     1      41.309 -11.549   5.053  1.00  0.00     0.313 C 
BRANCH   5   6
HETATM    6  N   UNL     1      40.786 -12.034   6.365  1.00  0.00     0.092 N 
HETATM    7  H   UNL     1      40.040 -12.705   6.165  1.00  0.00     0.313 HD
HETATM    8  H   UNL     1      40.311 -11.254   6.825  1.00  0.00     0.313 HD
ENDBRANCH   5   6
BRANCH   5   9
HETATM    9  C   UNL     1      42.262 -10.348   5.197  1.00  0.00     0.083 C 
BRANCH   9  10
HETATM   10  C   UNL     1      43.024 -10.318   6.503  1.00  0.00    -0.056 A 
HETATM   11  C   UNL     1      44.139 -11.144   6.699  1.00  0.00     0.009 A 
HETATM   12  C   UNL     1      44.846 -11.101   7.903  1.00  0.00     0.024 A 
HETATM   13  C   UNL     1      44.442 -10.232   8.914  1.00  0.00     0.034 A 
HETATM   14 CL   UNL     1      45.322 -10.172  10.391  1.00  0.00    -0.084 Cl
HETATM   15  C   UNL     1      43.335  -9.407   8.732  1.00  0.00     0.024 A 
HETATM   16  C   UNL     1      42.625  -9.452   7.531  1.00  0.00     0.009 A 
ENDBRANCH   9  10
ENDBRANCH   5   9
ENDBRANCH   1   5
BRANCH   3  17
HETATM   17  C   UNL     1      42.211 -15.193   4.444  1.00  0.00     0.034 A 
HETATM   18  C   UNL     1      41.655 -15.835   3.333  1.00  0.00     0.030 A 
HETATM   19  C   UNL     1      42.085 -17.114   2.953  1.00  0.00     0.014 A 
HETATM   20  C   UNL     1      43.087 -17.774   3.674  1.00  0.00    -0.023 A 
HETATM   21  C   UNL     1      43.663 -17.112   4.766  1.00  0.00     0.014 A 
HETATM   22  C   UNL     1      43.228 -15.836   5.147  1.00  0.00     0.030 A 
BRANCH  20  23
HETATM   23  C   UNL     1      43.509 -19.114   3.295  1.00  0.00     0.010 A 
HETATM   24  C   UNL     1      43.495 -19.772   2.041  1.00  0.00     0.152 A 
HETATM   25  N   UNL     1      43.946 -21.028   2.107  1.00  0.00    -0.187 NA
HETATM   26  N   UNL     1      44.248 -21.184   3.404  1.00  0.00    -0.289 N 
HETATM   27  H   UNL     1      44.613 -22.080   3.710  1.00  0.00     0.188 HD
HETATM   28  C   UNL     1      44.001 -20.072   4.158  1.00  0.00     0.123 A 
ENDBRANCH  20  23
ENDBRANCH   3  17
TORSDOF 6
ENDMDL
MODEL 6
REMARK VINA RESULT:      -7.4      3.289      7.562
REMARK  6 active torsions:
REMARK  status: ('A' for Active; 'I' for Inactive)
REMARK    1  A    between atoms: N_1  and  C_2 
REMARK    2  A    between atoms: C_2  and  C_3 
REMARK    3  A    between atoms: C_2  and  C_11 
REMARK    4  A    between atoms: C_3  and  C_4 
REMARK       I    between atoms: C_11  and  N_13 
REMARK    5  A    between atoms: N_13  and  C_14 
REMARK    6  A    between atoms: C_17  and  C_20 
ROOT
HETATM    1  C   UNL     1      41.868 -12.866   4.386  1.00  0.00     0.255 C 
HETATM    2  O   UNL     1      42.554 -12.037   3.794  1.00  0.00    -0.271 OA
HETATM    3  N   UNL     1      40.856 -13.634   3.841  1.00  0.00    -0.325 N 
HETATM    4  H   UNL     1      40.425 -14.264   4.517  1.00  0.00     0.169 HD
ENDROOT
BRANCH   1   5
HETATM    5  C   UNL     1      42.054 -13.136   5.900  1.00  0.00     0.313 C 
BRANCH   5   6
HETATM    6  N   UNL     1      40.953 -14.011   6.405  1.00  0.00     0.092 N 
HETATM    7  H   UNL     1      40.111 -13.432   6.467  1.00  0.00     0.313 HD
HETATM    8  H   UNL     1      41.165 -14.259   7.374  1.00  0.00     0.313 HD
ENDBRANCH   5   6
BRANCH   5   9
HETATM    9  C   UNL     1      43.451 -13.742   6.132  1.00  0.00     0.083 C 
BRANCH   9  10
HETATM   10  C   UNL     1      43.478 -15.254   6.122  1.00  0.00    -0.056 A 
HETATM   11  C   UNL     1      43.489 -15.976   7.324  1.00  0.00     0.009 A 
HETATM   12  C   UNL     1      43.500 -17.373   7.307  1.00  0.00     0.024 A 
HETATM   13  C   UNL     1      43.499 -18.052   6.091  1.00  0.00     0.034 A 
HETATM   14 CL   UNL     1      43.501 -19.772   6.073  1.00  0.00    -0.084 Cl
HETATM   15  C   UNL     1      43.491 -17.346   4.890  1.00  0.00     0.024 A 
HETATM   16  C   UNL     1      43.484 -15.950   4.905  1.00  0.00     0.009 A 
ENDBRANCH   9  10
ENDBRANCH   5   9
ENDBRANCH   1   5
BRANCH   3  17
HETATM   17  C   UNL     1      40.463 -13.728   2.496  1.00  0.00     0.034 A 
HETATM   18  C   UNL     1      39.845 -12.613   1.924  1.00  0.00     0.030 A 
HETATM   19  C   UNL     1      39.374 -12.652   0.604  1.00  0.00     0.014 A 
HETATM   20  C   UNL     1      39.519 -13.807  -0.173  1.00  0.00    -0.023 A 
HETATM   21  C   UNL     1      40.169 -14.910   0.396  1.00  0.00     0.014 A 
HETATM   22  C   UNL     1      40.634 -14.871   1.717  1.00  0.00     0.030 A 
BRANCH  20  23
HETATM   23  C   UNL     1      39.001 -13.853  -1.531  1.00  0.00     0.010 A 
HETATM   24  C   UNL     1      39.164 -14.817  -2.555  1.00  0.00     0.152 A 
HETATM   25  N   UNL     1      38.544 -14.482  -3.691  1.00  0.00    -0.187 NA
HETATM   26  N   UNL     1      37.982 -13.299  -3.402  1.00  0.00    -0.289 N 
HETATM   27  H   UNL     1      37.447 -12.829  -4.125  1.00  0.00     0.188 HD
HETATM   28  C   UNL     1      38.229 -12.877  -2.127  1.00  0.00     0.123 A 
ENDBRANCH  20  23
ENDBRANCH   3  17
TORSDOF 6
ENDMDL
MODEL 7
REMARK VINA RESULT:      -7.3     15.476     19.446
REMARK  6 active torsions:
REMARK  status: ('A' for Active; 'I' for Inactive)
REMARK    1  A    between atoms: N_1  and  C_2 
REMARK    2  A    between atoms: C_2  and  C_3 
REMARK    3  A    between atoms: C_2  and  C_11 
REMARK    4  A    between atoms: C_3  and  C_4 
REMARK       I    between atoms: C_11  and  N_13 
REMARK    5  A    between atoms: N_13  and  C_14 
REMARK    6  A    between atoms: C_17  and  C_20 
ROOT
HETATM    1  C   UNL     1      48.284 -30.085   0.817  1.00  0.00     0.255 C 
HETATM    2  O   UNL     1      47.780 -31.196   0.677  1.00  0.00    -0.271 OA
HETATM    3  N   UNL     1      49.545 -29.698   0.402  1.00  0.00    -0.325 N 
HETATM    4  H   UNL     1      49.752 -28.723   0.616  1.00  0.00     0.169 HD
ENDROOT
BRANCH   1   5
HETATM    5  C   UNL     1      47.530 -28.940   1.538  1.00  0.00     0.313 C 
BRANCH   5   6
HETATM    6  N   UNL     1      48.324 -28.460   2.709  1.00  0.00     0.092 N 
HETATM    7  H   UNL     1      47.841 -27.640   3.087  1.00  0.00     0.313 HD
HETATM    8  H   UNL     1      49.213 -28.093   2.360  1.00  0.00     0.313 HD
ENDBRANCH   5   6
BRANCH   5   9
HETATM    9  C   UNL     1      47.230 -27.821   0.522  1.00  0.00     0.083 C 
BRANCH   9  10
HETATM   10  C   UNL     1      46.305 -28.238  -0.599  1.00  0.00    -0.056 A 
HETATM   11  C   UNL     1      45.026 -28.739  -0.321  1.00  0.00     0.009 A 
HETATM   12  C   UNL     1      44.172 -29.109  -1.363  1.00  0.00     0.024 A 
HETATM   13  C   UNL     1      44.592 -28.979  -2.684  1.00  0.00     0.034 A 
HETATM   14 CL   UNL     1      43.535 -29.425  -3.966  1.00  0.00    -0.084 Cl
HETATM   15  C   UNL     1      45.862 -28.485  -2.974  1.00  0.00     0.024 A 
HETATM   16  C   UNL     1      46.719 -28.118  -1.934  1.00  0.00     0.009 A 
ENDBRANCH   9  10
ENDBRANCH   5   9
ENDBRANCH   1   5
BRANCH   3  17
HETATM   17  C   UNL     1      50.474 -30.427  -0.357  1.00  0.00     0.034 A 
HETATM   18  C   UNL     1      51.224 -31.404   0.306  1.00  0.00     0.030 A 
HETATM   19  C   UNL     1      52.211 -32.133  -0.372  1.00  0.00     0.014 A 
HETATM   20  C   UNL     1      52.461 -31.904  -1.731  1.00  0.00    -0.023 A 
HETATM   21  C   UNL     1      51.683 -30.948  -2.396  1.00  0.00     0.014 A 
HETATM   22  C   UNL     1      50.702 -30.216  -1.715  1.00  0.00     0.030 A 
BRANCH  20  23
HETATM   23  C   UNL     1      53.508 -32.642  -2.422  1.00  0.00     0.010 A 
HETATM   24  C   UNL     1      54.777 -33.086  -1.981  1.00  0.00     0.152 A 
HETATM   25  N   UNL     1      55.470 -33.715  -2.935  1.00  0.00    -0.187 NA
HETATM   26  N   UNL     1      54.649 -33.674  -3.995  1.00  0.00    -0.289 N 
HETATM   27  H   UNL     1      54.963 -34.094  -4.864  1.00  0.00     0.188 HD
HETATM   28  C   UNL     1      53.467 -33.040  -3.743  1.00  0.00     0.123 A 
ENDBRANCH  20  23
ENDBRANCH   3  17
TORSDOF 6
ENDMDL
MODEL 8
REMARK VINA RESULT:      -7.3      3.806      6.289
REMARK  6 active torsions:
REMARK  status: ('A' for Active; 'I' for Inactive)
REMARK    1  A    between atoms: N_1  and  C_2 
REMARK    2  A    between atoms: C_2  and  C_3 
REMARK    3  A    between atoms: C_2  and  C_11 
REMARK    4  A    between atoms: C_3  and  C_4 
REMARK       I    between atoms: C_11  and  N_13 
REMARK    5  A    between atoms: N_13  and  C_14 
REMARK    6  A    between atoms: C_17  and  C_20 
ROOT
HETATM    1  C   UNL     1      43.615 -10.644   7.582  1.00  0.00     0.255 C 
HETATM    2  O   UNL     1      42.505 -10.176   7.342  1.00  0.00    -0.271 OA
HETATM    3  N   UNL     1      44.300 -10.559   8.780  1.00  0.00    -0.325 N 
HETATM    4  H   UNL     1      45.204 -11.029   8.755  1.00  0.00     0.169 HD
ENDROOT
BRANCH   1   5
HETATM    5  C   UNL     1      44.426 -11.398   6.499  1.00  0.00     0.313 C 
BRANCH   5   6
HETATM    6  N   UNL     1      45.824 -10.875   6.447  1.00  0.00     0.092 N 
HETATM    7  H   UNL     1      45.906 -10.156   7.170  1.00  0.00     0.313 HD
HETATM    8  H   UNL     1      45.940 -10.367   5.567  1.00  0.00     0.313 HD
ENDBRANCH   5   6
BRANCH   5   9
HETATM    9  C   UNL     1      44.365 -12.910   6.790  1.00  0.00     0.083 C 
BRANCH   9  10
HETATM   10  C   UNL     1      43.429 -13.676   5.882  1.00  0.00    -0.056 A 
HETATM   11  C   UNL     1      42.638 -13.003   4.941  1.00  0.00     0.009 A 
HETATM   12  C   UNL     1      41.786 -13.719   4.095  1.00  0.00     0.024 A 
HETATM   13  C   UNL     1      41.723 -15.107   4.188  1.00  0.00     0.034 A 
HETATM   14 CL   UNL     1      40.682 -15.987   3.138  1.00  0.00    -0.084 Cl
HETATM   15  C   UNL     1      42.503 -15.787   5.121  1.00  0.00     0.024 A 
HETATM   16  C   UNL     1      43.352 -15.073   5.969  1.00  0.00     0.009 A 
ENDBRANCH   9  10
ENDBRANCH   5   9
ENDBRANCH   1   5
BRANCH   3  17
HETATM   17  C   UNL     1      43.852 -10.035  10.003  1.00  0.00     0.034 A 
HETATM   18  C   UNL     1      43.751  -8.645  10.112  1.00  0.00     0.030 A 
HETATM   19  C   UNL     1      43.366  -8.046  11.319  1.00  0.00     0.014 A 
HETATM   20  C   UNL     1      43.068  -8.828  12.442  1.00  0.00    -0.023 A 
HETATM   21  C   UNL     1      43.140 -10.221  12.316  1.00  0.00     0.014 A 
HETATM   22  C   UNL     1      43.530 -10.818  11.111  1.00  0.00     0.030 A 
BRANCH  20  23
HETATM   23  C   UNL     1      42.699  -8.200  13.701  1.00  0.00     0.010 A 
HETATM   24  C   UNL     1      41.761  -8.583  14.690  1.00  0.00     0.152 A 
HETATM   25  N   UNL     1      41.691  -7.716  15.705  1.00  0.00    -0.187 NA
HETATM   26  N   UNL     1      42.582  -6.771  15.371  1.00  0.00    -0.289 N 
HETATM   27  H   UNL     1      42.709  -5.985  15.999  1.00  0.00     0.188 HD
HETATM   28  C   UNL     1      43.208  -7.011  14.182  1.00  0.00     0.123 A 
ENDBRANCH  20  23
ENDBRANCH   3  17
TORSDOF 6
ENDMDL
MODEL 9
REMARK VINA RESULT:      -7.3      4.845      7.997
REMARK  6 active torsions:
REMARK  status: ('A' for Active; 'I' for Inactive)
REMARK    1  A    between atoms: N_1  and  C_2 
REMARK    2  A    between atoms: C_2  and  C_3 
REMARK    3  A    between atoms: C_2  and  C_11 
REMARK    4  A    between atoms: C_3  and  C_4 
REMARK       I    between atoms: C_11  and  N_13 
REMARK    5  A    between atoms: N_13  and  C_14 
REMARK    6  A    between atoms: C_17  and  C_20 
ROOT
HETATM    1  C   UNL     1      41.413 -14.075   1.795  1.00  0.00     0.255 C 
HETATM    2  O   UNL     1      42.182 -13.121   1.716  1.00  0.00    -0.271 OA
HETATM    3  N   UNL     1      40.191 -14.199   1.158  1.00  0.00    -0.325 N 
HETATM    4  H   UNL     1      39.724 -15.082   1.362  1.00  0.00     0.169 HD
ENDROOT
BRANCH   1   5
HETATM    5  C   UNL     1      41.731 -15.299   2.689  1.00  0.00     0.313 C 
BRANCH   5   6
HETATM    6  N   UNL     1      40.471 -16.022   3.038  1.00  0.00     0.092 N 
HETATM    7  H   UNL     1      39.871 -16.004   2.208  1.00  0.00     0.313 HD
HETATM    8  H   UNL     1      39.966 -15.463   3.730  1.00  0.00     0.313 HD
ENDBRANCH   5   6
BRANCH   5   9
HETATM    9  C   UNL     1      42.752 -16.196   1.963  1.00  0.00     0.083 C 
BRANCH   9  10
HETATM   10  C   UNL     1      43.234 -17.371   2.782  1.00  0.00    -0.056 A 
HETATM   11  C   UNL     1      43.705 -17.185   4.090  1.00  0.00     0.009 A 
HETATM   12  C   UNL     1      44.137 -18.276   4.847  1.00  0.00     0.024 A 
HETATM   13  C   UNL     1      44.098 -19.557   4.300  1.00  0.00     0.034 A 
HETATM   14 CL   UNL     1      44.619 -20.902   5.238  1.00  0.00    -0.084 Cl
HETATM   15  C   UNL     1      43.635 -19.756   3.002  1.00  0.00     0.024 A 
HETATM   16  C   UNL     1      43.207 -18.665   2.243  1.00  0.00     0.009 A 
ENDBRANCH   9  10
ENDBRANCH   5   9
ENDBRANCH   1   5
BRANCH   3  17
HETATM   17  C   UNL     1      39.614 -13.341   0.209  1.00  0.00     0.034 A 
HETATM   18  C   UNL     1      39.674 -13.728  -1.133  1.00  0.00     0.030 A 
HETATM   19  C   UNL     1      39.170 -12.897  -2.143  1.00  0.00     0.014 A 
HETATM   20  C   UNL     1      38.589 -11.663  -1.829  1.00  0.00    -0.023 A 
HETATM   21  C   UNL     1      38.504 -11.295  -0.481  1.00  0.00     0.014 A 
HETATM   22  C   UNL     1      39.012 -12.124   0.527  1.00  0.00     0.030 A 
BRANCH  20  23
HETATM   23  C   UNL     1      38.097 -10.790  -2.884  1.00  0.00     0.010 A 
HETATM   24  C   UNL     1      38.776  -9.878  -3.728  1.00  0.00     0.152 A 
HETATM   25  N   UNL     1      37.957  -9.232  -4.563  1.00  0.00    -0.187 NA
HETATM   26  N   UNL     1      36.747  -9.723  -4.257  1.00  0.00    -0.289 N 
HETATM   27  H   UNL     1      35.943  -9.375  -4.767  1.00  0.00     0.188 HD
HETATM   28  C   UNL     1      36.775 -10.653  -3.258  1.00  0.00     0.123 A 
ENDBRANCH  20  23
ENDBRANCH   3  17
TORSDOF 6
ENDMDL
MODEL 10
REMARK VINA RESULT:      -7.2     15.665     17.439
REMARK  6 active torsions:
REMARK  status: ('A' for Active; 'I' for Inactive)
REMARK    1  A    between atoms: N_1  and  C_2 
REMARK    2  A    between atoms: C_2  and  C_3 
REMARK    3  A    between atoms: C_2  and  C_11 
REMARK    4  A    between atoms: C_3  and  C_4 
REMARK       I    between atoms: C_11  and  N_13 
REMARK    5  A    between atoms: N_13  and  C_14 
REMARK    6  A    between atoms: C_17  and  C_20 
ROOT
HETATM    1  C   UNL     1      46.077 -29.332   0.617  1.00  0.00     0.255 C 
HETATM    2  O   UNL     1      46.506 -30.429   0.963  1.00  0.00    -0.271 OA
HETATM    3  N   UNL     1      44.770 -28.891   0.724  1.00  0.00    -0.325 N 
HETATM    4  H   UNL     1      44.642 -27.940   0.380  1.00  0.00     0.169 HD
ENDROOT
BRANCH   1   5
HETATM    5  C   UNL     1      46.997 -28.273  -0.040  1.00  0.00     0.313 C 
BRANCH   5   6
HETATM    6  N   UNL     1      47.964 -27.738   0.964  1.00  0.00     0.092 N 
HETATM    7  H   UNL     1      48.322 -28.537   1.495  1.00  0.00     0.313 HD
HETATM    8  H   UNL     1      47.439 -27.191   1.651  1.00  0.00     0.313 HD
ENDBRANCH   5   6
BRANCH   5   9
HETATM    9  C   UNL     1      47.692 -28.904  -1.261  1.00  0.00     0.083 C 
BRANCH   9  10
HETATM   10  C   UNL     1      46.753 -29.262  -2.391  1.00  0.00    -0.056 A 
HETATM   11  C   UNL     1      46.758 -30.550  -2.943  1.00  0.00     0.009 A 
HETATM   12  C   UNL     1      45.878 -30.878  -3.977  1.00  0.00     0.024 A 
HETATM   13  C   UNL     1      44.989 -29.921  -4.461  1.00  0.00     0.034 A 
HETATM   14 CL   UNL     1      43.898 -30.330  -5.726  1.00  0.00    -0.084 Cl
HETATM   15  C   UNL     1      44.976 -28.636  -3.922  1.00  0.00     0.024 A 
HETATM   16  C   UNL     1      45.858 -28.306  -2.892  1.00  0.00     0.009 A 
ENDBRANCH   9  10
ENDBRANCH   5   9
ENDBRANCH   1   5
BRANCH   3  17
HETATM   17  C   UNL     1      43.684 -29.531   1.342  1.00  0.00     0.034 A 
HETATM   18  C   UNL     1      43.422 -29.214   2.678  1.00  0.00     0.030 A 
HETATM   19  C   UNL     1      42.391 -29.854   3.378  1.00  0.00     0.014 A 
HETATM   20  C   UNL     1      41.594 -30.821   2.752  1.00  0.00    -0.023 A 
HETATM   21  C   UNL     1      41.841 -31.110   1.404  1.00  0.00     0.014 A 
HETATM   22  C   UNL     1      42.876 -30.473   0.708  1.00  0.00     0.030 A 
BRANCH  20  23
HETATM   23  C   UNL     1      40.545 -31.505   3.493  1.00  0.00     0.010 A 
HETATM   24  C   UNL     1      40.190 -31.452   4.862  1.00  0.00     0.152 A 
HETATM   25  N   UNL     1      39.170 -32.261   5.167  1.00  0.00    -0.187 NA
HETATM   26  N   UNL     1      38.868 -32.839   3.995  1.00  0.00    -0.289 N 
HETATM   27  H   UNL     1      38.111 -33.513   3.971  1.00  0.00     0.188 HD
HETATM   28  C   UNL     1      39.663 -32.425   2.964  1.00  0.00     0.123 A 
ENDBRANCH  20  23
ENDBRANCH   3  17
TORSDOF 6
ENDMDL
