MODEL 1
REMARK VINA RESULT:      -8.7      0.000      0.000
REMARK  5 active torsions:
REMARK  status: ('A' for Active; 'I' for Inactive)
REMARK    1  A    between atoms: C_2  and  C_3 
REMARK    2  A    between atoms: C_5  and  C_6 
REMARK    3  A    between atoms: C_6  and  C_7 
REMARK       I    between atoms: C_7  and  N_8 
REMARK    4  A    between atoms: N_8  and  C_9 
REMARK    5  A    between atoms: C_11  and  C_12 
ROOT
HETATM    1  C   UNL     1      43.235 -14.053   6.008  1.00  0.00     0.226 C 
HETATM    2  N   UNL     1      42.772 -14.213   4.711  1.00  0.00    -0.327 N 
HETATM    3  O   UNL     1      43.850 -14.883   6.671  1.00  0.00    -0.273 OA
HETATM    4  H   UNL     1      42.285 -13.421   4.309  1.00  0.00     0.169 HD
ENDROOT
BRANCH   2   5
HETATM    5  C   UNL     1      42.998 -15.305   3.846  1.00  0.00     0.035 A 
HETATM    6  C   UNL     1      43.232 -16.613   4.283  1.00  0.00     0.042 A 
HETATM    7  C   UNL     1      43.495 -17.654   3.374  1.00  0.00    -0.021 A 
HETATM    8  C   UNL     1      43.501 -17.361   2.005  1.00  0.00     0.012 A 
HETATM    9  C   UNL     1      43.256 -16.062   1.556  1.00  0.00     0.003 A 
HETATM   10  C   UNL     1      43.008 -15.040   2.473  1.00  0.00     0.029 A 
BRANCH   7  11
HETATM   11  C   UNL     1      43.765 -19.011   3.834  1.00  0.00     0.010 A 
HETATM   12  C   UNL     1      44.086 -19.512   5.120  1.00  0.00     0.152 A 
HETATM   13  N   UNL     1      44.248 -20.838   5.141  1.00  0.00    -0.187 NA
HETATM   14  N   UNL     1      44.036 -21.197   3.866  1.00  0.00    -0.289 N 
HETATM   15  H   UNL     1      44.106 -22.179   3.624  1.00  0.00     0.188 HD
HETATM   16  C   UNL     1      43.737 -20.146   3.049  1.00  0.00     0.123 A 
ENDBRANCH   7  11
ENDBRANCH   2   5
BRANCH   1  17
HETATM   17  C   UNL     1      42.902 -12.689   6.593  1.00  0.00     0.141 C 
BRANCH  17  18
HETATM   18  C   UNL     1      44.089 -11.868   7.058  1.00  0.00    -0.049 A 
HETATM   19  C   UNL     1      44.096 -11.174   8.281  1.00  0.00     0.014 A 
HETATM   20  C   UNL     1      45.209 -10.426   8.691  1.00  0.00    -0.058 A 
HETATM   21  C   UNL     1      46.303 -10.325   7.820  1.00  0.00     0.007 A 
HETATM   22  C   UNL     1      46.297 -10.977   6.587  1.00  0.00     0.001 A 
HETATM   23  C   UNL     1      45.198 -11.748   6.210  1.00  0.00     0.007 A 
BRANCH  20  24
HETATM   24  C   UNL     1      45.260  -9.680  10.006  1.00  0.00     0.034 C 
HETATM   25  C   UNL     1      44.147  -9.988  11.001  1.00  0.00     0.010 C 
ENDBRANCH  20  24
ENDBRANCH  17  18
ENDBRANCH   1  17
TORSDOF 5
ENDMDL
MODEL 2
REMARK VINA RESULT:      -8.4      2.595      8.204
REMARK  5 active torsions:
REMARK  status: ('A' for Active; 'I' for Inactive)
REMARK    1  A    between atoms: C_2  and  C_3 
REMARK    2  A    between atoms: C_5  and  C_6 
REMARK    3  A    between atoms: C_6  and  C_7 
REMARK       I    between atoms: C_7  and  N_8 
REMARK    4  A    between atoms: N_8  and  C_9 
REMARK    5  A    between atoms: C_11  and  C_12 
ROOT
HETATM    1  C   UNL     1      43.392 -16.050   6.980  1.00  0.00     0.226 C 
HETATM    2  N   UNL     1      43.726 -15.013   6.124  1.00  0.00    -0.327 N 
HETATM    3  O   UNL     1      42.827 -15.948   8.064  1.00  0.00    -0.273 OA
HETATM    4  H   UNL     1      44.189 -15.275   5.261  1.00  0.00     0.169 HD
ENDROOT
BRANCH   2   5
HETATM    5  C   UNL     1      43.396 -13.647   6.257  1.00  0.00     0.035 A 
HETATM    6  C   UNL     1      44.285 -12.670   6.719  1.00  0.00     0.042 A 
HETATM    7  C   UNL     1      43.886 -11.331   6.874  1.00  0.00    -0.021 A 
HETATM    8  C   UNL     1      42.573 -10.980   6.537  1.00  0.00     0.012 A 
HETATM    9  C   UNL     1      41.681 -11.943   6.062  1.00  0.00     0.003 A 
HETATM   10  C   UNL     1      42.091 -13.270   5.926  1.00  0.00     0.029 A 
BRANCH   7  11
HETATM   11  C   UNL     1      44.807 -10.319   7.381  1.00  0.00     0.010 A 
HETATM   12  C   UNL     1      44.566  -9.080   8.023  1.00  0.00     0.152 A 
HETATM   13  N   UNL     1      45.687  -8.435   8.356  1.00  0.00    -0.187 NA
HETATM   14  N   UNL     1      46.657  -9.255   7.924  1.00  0.00    -0.289 N 
HETATM   15  H   UNL     1      47.622  -8.977   8.064  1.00  0.00     0.188 HD
HETATM   16  C   UNL     1      46.184 -10.395   7.342  1.00  0.00     0.123 A 
ENDBRANCH   7  11
ENDBRANCH   2   5
BRANCH   1  17
HETATM   17  C   UNL     1      43.808 -17.415   6.450  1.00  0.00     0.141 C 
BRANCH  17  18
HETATM   18  C   UNL     1      43.547 -17.652   4.977  1.00  0.00    -0.049 A 
HETATM   19  C   UNL     1      42.603 -16.910   4.246  1.00  0.00     0.014 A 
HETATM   20  C   UNL     1      42.384 -17.145   2.880  1.00  0.00    -0.058 A 
HETATM   21  C   UNL     1      43.083 -18.192   2.264  1.00  0.00     0.007 A 
HETATM   22  C   UNL     1      43.996 -18.963   2.984  1.00  0.00     0.001 A 
HETATM   23  C   UNL     1      44.230 -18.692   4.331  1.00  0.00     0.007 A 
BRANCH  20  24
HETATM   24  C   UNL     1      41.390 -16.355   2.058  1.00  0.00     0.034 C 
HETATM   25  C   UNL     1      40.223 -15.737   2.820  1.00  0.00     0.010 C 
ENDBRANCH  20  24
ENDBRANCH  17  18
ENDBRANCH   1  17
TORSDOF 5
ENDMDL
MODEL 3
REMARK VINA RESULT:      -8.4      3.985      7.493
REMARK  5 active torsions:
REMARK  status: ('A' for Active; 'I' for Inactive)
REMARK    1  A    between atoms: C_2  and  C_3 
REMARK    2  A    between atoms: C_5  and  C_6 
REMARK    3  A    between atoms: C_6  and  C_7 
REMARK       I    between atoms: C_7  and  N_8 
REMARK    4  A    between atoms: N_8  and  C_9 
REMARK    5  A    between atoms: C_11  and  C_12 
ROOT
HETATM    1  C   UNL     1      40.670 -14.489   2.485  1.00  0.00     0.226 C 
HETATM    2  N   UNL     1      42.006 -14.513   2.854  1.00  0.00    -0.327 N 
HETATM    3  O   UNL     1      39.849 -15.385   2.658  1.00  0.00    -0.273 OA
HETATM    4  H   UNL     1      42.545 -13.682   2.637  1.00  0.00     0.169 HD
ENDROOT
BRANCH   2   5
HETATM    5  C   UNL     1      42.676 -15.509   3.597  1.00  0.00     0.035 A 
HETATM    6  C   UNL     1      42.882 -16.816   3.143  1.00  0.00     0.042 A 
HETATM    7  C   UNL     1      43.518 -17.779   3.946  1.00  0.00    -0.021 A 
HETATM    8  C   UNL     1      43.964 -17.400   5.218  1.00  0.00     0.012 A 
HETATM    9  C   UNL     1      43.776 -16.095   5.677  1.00  0.00     0.003 A 
HETATM   10  C   UNL     1      43.132 -15.156   4.870  1.00  0.00     0.029 A 
BRANCH   7  11
HETATM   11  C   UNL     1      43.708 -19.148   3.481  1.00  0.00     0.010 A 
HETATM   12  C   UNL     1      43.595 -19.716   2.188  1.00  0.00     0.152 A 
HETATM   13  N   UNL     1      43.866 -21.024   2.164  1.00  0.00    -0.187 NA
HETATM   14  N   UNL     1      44.151 -21.306   3.444  1.00  0.00    -0.289 N 
HETATM   15  H   UNL     1      44.393 -22.260   3.686  1.00  0.00     0.188 HD
HETATM   16  C   UNL     1      44.077 -20.220   4.268  1.00  0.00     0.123 A 
ENDBRANCH   7  11
ENDBRANCH   2   5
BRANCH   1  17
HETATM   17  C   UNL     1      40.266 -13.193   1.797  1.00  0.00     0.141 C 
BRANCH  17  18
HETATM   18  C   UNL     1      40.265 -13.228   0.283  1.00  0.00    -0.049 A 
HETATM   19  C   UNL     1      39.602 -14.228  -0.451  1.00  0.00     0.014 A 
HETATM   20  C   UNL     1      39.611 -14.235  -1.854  1.00  0.00    -0.058 A 
HETATM   21  C   UNL     1      40.359 -13.254  -2.520  1.00  0.00     0.007 A 
HETATM   22  C   UNL     1      41.053 -12.277  -1.807  1.00  0.00     0.001 A 
HETATM   23  C   UNL     1      41.003 -12.261  -0.414  1.00  0.00     0.007 A 
BRANCH  20  24
HETATM   24  C   UNL     1      38.896 -15.283  -2.676  1.00  0.00     0.034 C 
HETATM   25  C   UNL     1      38.023 -14.770  -3.815  1.00  0.00     0.010 C 
ENDBRANCH  20  24
ENDBRANCH  17  18
ENDBRANCH   1  17
TORSDOF 5
ENDMDL
MODEL 4
REMARK VINA RESULT:      -8.3      4.610      8.109
REMARK  5 active torsions:
REMARK  status: ('A' for Active; 'I' for Inactive)
REMARK    1  A    between atoms: C_2  and  C_3 
REMARK    2  A    between atoms: C_5  and  C_6 
REMARK    3  A    between atoms: C_6  and  C_7 
REMARK       I    between atoms: C_7  and  N_8 
REMARK    4  A    between atoms: N_8  and  C_9 
REMARK    5  A    between atoms: C_11  and  C_12 
ROOT
HETATM    1  C   UNL     1      40.992 -13.946   1.077  1.00  0.00     0.226 C 
HETATM    2  N   UNL     1      42.238 -14.534   1.233  1.00  0.00    -0.327 N 
HETATM    3  O   UNL     1      40.006 -14.126   1.785  1.00  0.00    -0.273 OA
HETATM    4  H   UNL     1      42.945 -14.270   0.558  1.00  0.00     0.169 HD
ENDROOT
BRANCH   2   5
HETATM    5  C   UNL     1      42.669 -15.369   2.286  1.00  0.00     0.035 A 
HETATM    6  C   UNL     1      42.936 -16.735   2.141  1.00  0.00     0.042 A 
HETATM    7  C   UNL     1      43.321 -17.526   3.238  1.00  0.00    -0.021 A 
HETATM    8  C   UNL     1      43.452 -16.915   4.491  1.00  0.00     0.012 A 
HETATM    9  C   UNL     1      43.201 -15.552   4.645  1.00  0.00     0.003 A 
HETATM   10  C   UNL     1      42.809 -14.784   3.549  1.00  0.00     0.029 A 
BRANCH   7  11
HETATM   11  C   UNL     1      43.574 -18.955   3.089  1.00  0.00     0.010 A 
HETATM   12  C   UNL     1      43.462 -19.808   1.963  1.00  0.00     0.152 A 
HETATM   13  N   UNL     1      43.802 -21.073   2.228  1.00  0.00    -0.187 NA
HETATM   14  N   UNL     1      44.131 -21.041   3.528  1.00  0.00    -0.289 N 
HETATM   15  H   UNL     1      44.429 -21.902   3.971  1.00  0.00     0.188 HD
HETATM   16  C   UNL     1      44.018 -19.800   4.086  1.00  0.00     0.123 A 
ENDBRANCH   7  11
ENDBRANCH   2   5
BRANCH   1  17
HETATM   17  C   UNL     1      40.926 -13.003  -0.115  1.00  0.00     0.141 C 
BRANCH  17  18
HETATM   18  C   UNL     1      39.824 -13.289  -1.115  1.00  0.00    -0.049 A 
HETATM   19  C   UNL     1      38.829 -12.347  -1.435  1.00  0.00     0.014 A 
HETATM   20  C   UNL     1      37.823 -12.634  -2.369  1.00  0.00    -0.058 A 
HETATM   21  C   UNL     1      37.785 -13.917  -2.935  1.00  0.00     0.007 A 
HETATM   22  C   UNL     1      38.741 -14.874  -2.600  1.00  0.00     0.001 A 
HETATM   23  C   UNL     1      39.757 -14.561  -1.699  1.00  0.00     0.007 A 
BRANCH  20  24
HETATM   24  C   UNL     1      36.748 -11.642  -2.751  1.00  0.00     0.034 C 
HETATM   25  C   UNL     1      37.220 -10.236  -3.104  1.00  0.00     0.010 C 
ENDBRANCH  20  24
ENDBRANCH  17  18
ENDBRANCH   1  17
TORSDOF 5
ENDMDL
MODEL 5
REMARK VINA RESULT:      -8.3      4.853      7.881
REMARK  5 active torsions:
REMARK  status: ('A' for Active; 'I' for Inactive)
REMARK    1  A    between atoms: C_2  and  C_3 
REMARK    2  A    between atoms: C_5  and  C_6 
REMARK    3  A    between atoms: C_6  and  C_7 
REMARK       I    between atoms: C_7  and  N_8 
REMARK    4  A    between atoms: N_8  and  C_9 
REMARK    5  A    between atoms: C_11  and  C_12 
ROOT
HETATM    1  C   UNL     1      41.114 -14.159   4.376  1.00  0.00     0.226 C 
HETATM    2  N   UNL     1      40.008 -14.308   3.553  1.00  0.00    -0.327 N 
HETATM    3  O   UNL     1      42.018 -13.340   4.243  1.00  0.00    -0.273 OA
HETATM    4  H   UNL     1      39.353 -15.037   3.811  1.00  0.00     0.169 HD
ENDROOT
BRANCH   2   5
HETATM    5  C   UNL     1      39.630 -13.493   2.465  1.00  0.00     0.035 A 
HETATM    6  C   UNL     1      40.138 -13.634   1.169  1.00  0.00     0.042 A 
HETATM    7  C   UNL     1      39.757 -12.762   0.133  1.00  0.00    -0.021 A 
HETATM    8  C   UNL     1      38.833 -11.749   0.418  1.00  0.00     0.012 A 
HETATM    9  C   UNL     1      38.309 -11.606   1.704  1.00  0.00     0.003 A 
HETATM   10  C   UNL     1      38.708 -12.473   2.722  1.00  0.00     0.029 A 
BRANCH   7  11
HETATM   11  C   UNL     1      40.308 -12.895  -1.210  1.00  0.00     0.010 A 
HETATM   12  C   UNL     1      40.105 -13.882  -2.206  1.00  0.00     0.152 A 
HETATM   13  N   UNL     1      40.787 -13.641  -3.330  1.00  0.00    -0.187 NA
HETATM   14  N   UNL     1      41.437 -12.499  -3.060  1.00  0.00    -0.289 N 
HETATM   15  H   UNL     1      42.037 -12.105  -3.776  1.00  0.00     0.188 HD
HETATM   16  C   UNL     1      41.179 -12.010  -1.812  1.00  0.00     0.123 A 
ENDBRANCH   7  11
ENDBRANCH   2   5
BRANCH   1  17
HETATM   17  C   UNL     1      41.134 -15.152   5.529  1.00  0.00     0.141 C 
BRANCH  17  18
HETATM   18  C   UNL     1      42.103 -16.307   5.382  1.00  0.00    -0.049 A 
HETATM   19  C   UNL     1      42.493 -16.812   4.129  1.00  0.00     0.014 A 
HETATM   20  C   UNL     1      43.397 -17.879   4.019  1.00  0.00    -0.058 A 
HETATM   21  C   UNL     1      43.858 -18.486   5.195  1.00  0.00     0.007 A 
HETATM   22  C   UNL     1      43.451 -18.023   6.446  1.00  0.00     0.001 A 
HETATM   23  C   UNL     1      42.582 -16.937   6.539  1.00  0.00     0.007 A 
BRANCH  20  24
HETATM   24  C   UNL     1      43.853 -18.437   2.689  1.00  0.00     0.034 C 
HETATM   25  C   UNL     1      43.633 -19.929   2.471  1.00  0.00     0.010 C 
ENDBRANCH  20  24
ENDBRANCH  17  18
ENDBRANCH   1  17
TORSDOF 5
ENDMDL
MODEL 6
REMARK VINA RESULT:      -8.3      2.819      9.028
REMARK  5 active torsions:
REMARK  status: ('A' for Active; 'I' for Inactive)
REMARK    1  A    between atoms: C_2  and  C_3 
REMARK    2  A    between atoms: C_5  and  C_6 
REMARK    3  A    between atoms: C_6  and  C_7 
REMARK       I    between atoms: C_7  and  N_8 
REMARK    4  A    between atoms: N_8  and  C_9 
REMARK    5  A    between atoms: C_11  and  C_12 
ROOT
HETATM    1  C   UNL     1      43.230 -14.049   6.155  1.00  0.00     0.226 C 
HETATM    2  N   UNL     1      43.268 -12.664   6.128  1.00  0.00    -0.327 N 
HETATM    3  O   UNL     1      43.981 -14.788   6.784  1.00  0.00    -0.273 OA
HETATM    4  H   UNL     1      42.568 -12.208   5.555  1.00  0.00     0.169 HD
ENDROOT
BRANCH   2   5
HETATM    5  C   UNL     1      44.093 -11.811   6.893  1.00  0.00     0.035 A 
HETATM    6  C   UNL     1      43.656 -11.102   8.017  1.00  0.00     0.042 A 
HETATM    7  C   UNL     1      44.512 -10.231   8.713  1.00  0.00    -0.021 A 
HETATM    8  C   UNL     1      45.834 -10.097   8.270  1.00  0.00     0.012 A 
HETATM    9  C   UNL     1      46.286 -10.809   7.158  1.00  0.00     0.003 A 
HETATM   10  C   UNL     1      45.418 -11.659   6.472  1.00  0.00     0.029 A 
BRANCH   7  11
HETATM   11  C   UNL     1      44.046  -9.473   9.869  1.00  0.00     0.010 A 
HETATM   12  C   UNL     1      43.995  -9.811  11.244  1.00  0.00     0.152 A 
HETATM   13  N   UNL     1      43.509  -8.828  12.007  1.00  0.00    -0.187 NA
HETATM   14  N   UNL     1      43.240  -7.853  11.125  1.00  0.00    -0.289 N 
HETATM   15  H   UNL     1      42.850  -6.984  11.471  1.00  0.00     0.188 HD
HETATM   16  C   UNL     1      43.549  -8.187   9.838  1.00  0.00     0.123 A 
ENDBRANCH   7  11
ENDBRANCH   2   5
BRANCH   1  17
HETATM   17  C   UNL     1      42.123 -14.630   5.287  1.00  0.00     0.141 C 
BRANCH  17  18
HETATM   18  C   UNL     1      42.585 -15.456   4.103  1.00  0.00    -0.049 A 
HETATM   19  C   UNL     1      42.948 -16.809   4.221  1.00  0.00     0.014 A 
HETATM   20  C   UNL     1      43.366 -17.554   3.108  1.00  0.00    -0.058 A 
HETATM   21  C   UNL     1      43.483 -16.900   1.874  1.00  0.00     0.007 A 
HETATM   22  C   UNL     1      43.163 -15.548   1.748  1.00  0.00     0.001 A 
HETATM   23  C   UNL     1      42.713 -14.832   2.855  1.00  0.00     0.007 A 
BRANCH  20  24
HETATM   24  C   UNL     1      43.747 -19.015   3.193  1.00  0.00     0.034 C 
HETATM   25  C   UNL     1      43.287 -19.902   2.041  1.00  0.00     0.010 C 
ENDBRANCH  20  24
ENDBRANCH  17  18
ENDBRANCH   1  17
TORSDOF 5
ENDMDL
MODEL 7
REMARK VINA RESULT:      -8.2      4.746      8.025
REMARK  5 active torsions:
REMARK  status: ('A' for Active; 'I' for Inactive)
REMARK    1  A    between atoms: C_2  and  C_3 
REMARK    2  A    between atoms: C_5  and  C_6 
REMARK    3  A    between atoms: C_6  and  C_7 
REMARK       I    between atoms: C_7  and  N_8 
REMARK    4  A    between atoms: N_8  and  C_9 
REMARK    5  A    between atoms: C_11  and  C_12 
ROOT
HETATM    1  C   UNL     1      41.491 -14.197   3.211  1.00  0.00     0.226 C 
HETATM    2  N   UNL     1      41.963 -13.252   2.313  1.00  0.00    -0.327 N 
HETATM    3  O   UNL     1      40.383 -14.724   3.200  1.00  0.00    -0.273 OA
HETATM    4  H   UNL     1      42.909 -12.922   2.467  1.00  0.00     0.169 HD
ENDROOT
BRANCH   2   5
HETATM    5  C   UNL     1      41.325 -12.779   1.146  1.00  0.00     0.035 A 
HETATM    6  C   UNL     1      40.645 -13.601   0.241  1.00  0.00     0.042 A 
HETATM    7  C   UNL     1      40.066 -13.080  -0.930  1.00  0.00    -0.021 A 
HETATM    8  C   UNL     1      40.166 -11.704  -1.170  1.00  0.00     0.012 A 
HETATM    9  C   UNL     1      40.831 -10.872  -0.268  1.00  0.00     0.003 A 
HETATM   10  C   UNL     1      41.410 -11.409   0.882  1.00  0.00     0.029 A 
BRANCH   7  11
HETATM   11  C   UNL     1      39.379 -13.942  -1.885  1.00  0.00     0.010 A 
HETATM   12  C   UNL     1      38.899 -13.685  -3.193  1.00  0.00     0.152 A 
HETATM   13  N   UNL     1      38.331 -14.752  -3.762  1.00  0.00    -0.187 NA
HETATM   14  N   UNL     1      38.440 -15.702  -2.820  1.00  0.00    -0.289 N 
HETATM   15  H   UNL     1      38.070 -16.624  -3.020  1.00  0.00     0.188 HD
HETATM   16  C   UNL     1      39.063 -15.270  -1.684  1.00  0.00     0.123 A 
ENDBRANCH   7  11
ENDBRANCH   2   5
BRANCH   1  17
HETATM   17  C   UNL     1      42.506 -14.554   4.286  1.00  0.00     0.141 C 
BRANCH  17  18
HETATM   18  C   UNL     1      43.062 -15.962   4.219  1.00  0.00    -0.049 A 
HETATM   19  C   UNL     1      42.772 -16.841   3.160  1.00  0.00     0.014 A 
HETATM   20  C   UNL     1      43.305 -18.138   3.118  1.00  0.00    -0.058 A 
HETATM   21  C   UNL     1      44.085 -18.573   4.199  1.00  0.00     0.007 A 
HETATM   22  C   UNL     1      44.350 -17.728   5.275  1.00  0.00     0.001 A 
HETATM   23  C   UNL     1      43.845 -16.429   5.284  1.00  0.00     0.007 A 
BRANCH  20  24
HETATM   24  C   UNL     1      43.030 -19.104   1.987  1.00  0.00     0.034 C 
HETATM   25  C   UNL     1      43.739 -20.451   2.061  1.00  0.00     0.010 C 
ENDBRANCH  20  24
ENDBRANCH  17  18
ENDBRANCH   1  17
TORSDOF 5
ENDMDL
MODEL 8
REMARK VINA RESULT:      -8.1      4.804      8.219
REMARK  5 active torsions:
REMARK  status: ('A' for Active; 'I' for Inactive)
REMARK    1  A    between atoms: C_2  and  C_3 
REMARK    2  A    between atoms: C_5  and  C_6 
REMARK    3  A    between atoms: C_6  and  C_7 
REMARK       I    between atoms: C_7  and  N_8 
REMARK    4  A    between atoms: N_8  and  C_9 
REMARK    5  A    between atoms: C_11  and  C_12 
ROOT
HETATM    1  C   UNL     1      41.530 -14.096   3.362  1.00  0.00     0.226 C 
HETATM    2  N   UNL     1      41.586 -13.378   2.178  1.00  0.00    -0.327 N 
HETATM    3  O   UNL     1      40.524 -14.342   4.021  1.00  0.00    -0.273 OA
HETATM    4  H   UNL     1      42.504 -13.271   1.762  1.00  0.00     0.169 HD
ENDROOT
BRANCH   2   5
HETATM    5  C   UNL     1      40.503 -12.875   1.425  1.00  0.00     0.035 A 
HETATM    6  C   UNL     1      40.089 -13.409   0.200  1.00  0.00     0.042 A 
HETATM    7  C   UNL     1      39.030 -12.838  -0.527  1.00  0.00    -0.021 A 
HETATM    8  C   UNL     1      38.375 -11.722   0.009  1.00  0.00     0.012 A 
HETATM    9  C   UNL     1      38.770 -11.189   1.236  1.00  0.00     0.003 A 
HETATM   10  C   UNL     1      39.831 -11.761   1.939  1.00  0.00     0.029 A 
BRANCH   7  11
HETATM   11  C   UNL     1      38.617 -13.380  -1.817  1.00  0.00     0.010 A 
HETATM   12  C   UNL     1      39.247 -14.311  -2.680  1.00  0.00     0.152 A 
HETATM   13  N   UNL     1      38.536 -14.570  -3.781  1.00  0.00    -0.187 NA
HETATM   14  N   UNL     1      37.445 -13.803  -3.633  1.00  0.00    -0.289 N 
HETATM   15  H   UNL     1      36.738 -13.825  -4.360  1.00  0.00     0.188 HD
HETATM   16  C   UNL     1      37.442 -13.080  -2.476  1.00  0.00     0.123 A 
ENDBRANCH   7  11
ENDBRANCH   2   5
BRANCH   1  17
HETATM   17  C   UNL     1      42.894 -14.587   3.824  1.00  0.00     0.141 C 
BRANCH  17  18
HETATM   18  C   UNL     1      43.155 -16.068   3.637  1.00  0.00    -0.049 A 
HETATM   19  C   UNL     1      43.413 -16.933   4.716  1.00  0.00     0.014 A 
HETATM   20  C   UNL     1      43.646 -18.302   4.516  1.00  0.00    -0.058 A 
HETATM   21  C   UNL     1      43.685 -18.787   3.201  1.00  0.00     0.007 A 
HETATM   22  C   UNL     1      43.470 -17.935   2.119  1.00  0.00     0.001 A 
HETATM   23  C   UNL     1      43.202 -16.585   2.335  1.00  0.00     0.007 A 
BRANCH  20  24
HETATM   24  C   UNL     1      43.909 -19.265   5.652  1.00  0.00     0.034 C 
HETATM   25  C   UNL     1      44.042 -20.736   5.274  1.00  0.00     0.010 C 
ENDBRANCH  20  24
ENDBRANCH  17  18
ENDBRANCH   1  17
TORSDOF 5
ENDMDL
MODEL 9
REMARK VINA RESULT:      -8.0      5.481      9.422
REMARK  5 active torsions:
REMARK  status: ('A' for Active; 'I' for Inactive)
REMARK    1  A    between atoms: C_2  and  C_3 
REMARK    2  A    between atoms: C_5  and  C_6 
REMARK    3  A    between atoms: C_6  and  C_7 
REMARK       I    between atoms: C_7  and  N_8 
REMARK    4  A    between atoms: N_8  and  C_9 
REMARK    5  A    between atoms: C_11  and  C_12 
ROOT
HETATM    1  C   UNL     1      41.382 -14.350   1.330  1.00  0.00     0.226 C 
HETATM    2  N   UNL     1      41.276 -13.702   0.110  1.00  0.00    -0.327 N 
HETATM    3  O   UNL     1      40.454 -14.750   2.027  1.00  0.00    -0.273 OA
HETATM    4  H   UNL     1      42.148 -13.442  -0.336  1.00  0.00     0.169 HD
ENDROOT
BRANCH   2   5
HETATM    5  C   UNL     1      40.103 -13.463  -0.639  1.00  0.00     0.035 A 
HETATM    6  C   UNL     1      39.274 -12.350  -0.457  1.00  0.00     0.042 A 
HETATM    7  C   UNL     1      38.093 -12.188  -1.203  1.00  0.00    -0.021 A 
HETATM    8  C   UNL     1      37.765 -13.160  -2.156  1.00  0.00     0.012 A 
HETATM    9  C   UNL     1      38.590 -14.267  -2.355  1.00  0.00     0.003 A 
HETATM   10  C   UNL     1      39.752 -14.418  -1.598  1.00  0.00     0.029 A 
BRANCH   7  11
HETATM   11  C   UNL     1      37.217 -11.041  -0.994  1.00  0.00     0.010 A 
HETATM   12  C   UNL     1      36.917 -10.300   0.176  1.00  0.00     0.152 A 
HETATM   13  N   UNL     1      36.065  -9.294  -0.044  1.00  0.00    -0.187 NA
HETATM   14  N   UNL     1      35.809  -9.386  -1.358  1.00  0.00    -0.289 N 
HETATM   15  H   UNL     1      35.172  -8.716  -1.773  1.00  0.00     0.188 HD
HETATM   16  C   UNL     1      36.477 -10.407  -1.971  1.00  0.00     0.123 A 
ENDBRANCH   7  11
ENDBRANCH   2   5
BRANCH   1  17
HETATM   17  C   UNL     1      42.823 -14.539   1.780  1.00  0.00     0.141 C 
BRANCH  17  18
HETATM   18  C   UNL     1      43.101 -15.798   2.576  1.00  0.00    -0.049 A 
HETATM   19  C   UNL     1      43.091 -17.078   1.994  1.00  0.00     0.014 A 
HETATM   20  C   UNL     1      43.358 -18.229   2.752  1.00  0.00    -0.058 A 
HETATM   21  C   UNL     1      43.570 -18.085   4.130  1.00  0.00     0.007 A 
HETATM   22  C   UNL     1      43.546 -16.826   4.729  1.00  0.00     0.001 A 
HETATM   23  C   UNL     1      43.317 -15.689   3.956  1.00  0.00     0.007 A 
BRANCH  20  24
HETATM   24  C   UNL     1      43.373 -19.619   2.158  1.00  0.00     0.034 C 
HETATM   25  C   UNL     1      43.748 -20.754   3.104  1.00  0.00     0.010 C 
ENDBRANCH  20  24
ENDBRANCH  17  18
ENDBRANCH   1  17
TORSDOF 5
ENDMDL
MODEL 10
REMARK VINA RESULT:      -8.0      5.298      9.133
REMARK  5 active torsions:
REMARK  status: ('A' for Active; 'I' for Inactive)
REMARK    1  A    between atoms: C_2  and  C_3 
REMARK    2  A    between atoms: C_5  and  C_6 
REMARK    3  A    between atoms: C_6  and  C_7 
REMARK       I    between atoms: C_7  and  N_8 
REMARK    4  A    between atoms: N_8  and  C_9 
REMARK    5  A    between atoms: C_11  and  C_12 
ROOT
HETATM    1  C   UNL     1      40.708 -14.787   1.533  1.00  0.00     0.226 C 
HETATM    2  N   UNL     1      39.817 -15.014   0.496  1.00  0.00    -0.327 N 
HETATM    3  O   UNL     1      41.637 -13.985   1.535  1.00  0.00    -0.273 OA
HETATM    4  H   UNL     1      39.104 -15.714   0.664  1.00  0.00     0.169 HD
ENDROOT
BRANCH   2   5
HETATM    5  C   UNL     1      39.715 -14.307  -0.721  1.00  0.00     0.035 A 
HETATM    6  C   UNL     1      40.188 -13.004  -0.909  1.00  0.00     0.042 A 
HETATM    7  C   UNL     1      40.018 -12.332  -2.133  1.00  0.00    -0.021 A 
HETATM    8  C   UNL     1      39.377 -13.004  -3.181  1.00  0.00     0.012 A 
HETATM    9  C   UNL     1      38.913 -14.309  -3.010  1.00  0.00     0.003 A 
HETATM   10  C   UNL     1      39.079 -14.955  -1.785  1.00  0.00     0.029 A 
BRANCH   7  11
HETATM   11  C   UNL     1      40.489 -10.964  -2.318  1.00  0.00     0.010 A 
HETATM   12  C   UNL     1      40.091  -9.960  -3.235  1.00  0.00     0.152 A 
HETATM   13  N   UNL     1      40.759  -8.813  -3.079  1.00  0.00    -0.187 NA
HETATM   14  N   UNL     1      41.594  -9.076  -2.061  1.00  0.00    -0.289 N 
HETATM   15  H   UNL     1      42.221  -8.343  -1.751  1.00  0.00     0.188 HD
HETATM   16  C   UNL     1      41.467 -10.343  -1.569  1.00  0.00     0.123 A 
ENDBRANCH   7  11
ENDBRANCH   2   5
BRANCH   1  17
HETATM   17  C   UNL     1      40.443 -15.664   2.748  1.00  0.00     0.141 C 
BRANCH  17  18
HETATM   18  C   UNL     1      41.655 -16.365   3.328  1.00  0.00    -0.049 A 
HETATM   19  C   UNL     1      42.279 -17.450   2.689  1.00  0.00     0.014 A 
HETATM   20  C   UNL     1      43.405 -18.078   3.244  1.00  0.00    -0.058 A 
HETATM   21  C   UNL     1      43.861 -17.643   4.496  1.00  0.00     0.007 A 
HETATM   22  C   UNL     1      43.229 -16.592   5.161  1.00  0.00     0.001 A 
HETATM   23  C   UNL     1      42.136 -15.954   4.579  1.00  0.00     0.007 A 
BRANCH  20  24
HETATM   24  C   UNL     1      44.113 -19.236   2.577  1.00  0.00     0.034 C 
HETATM   25  C   UNL     1      43.222 -20.308   1.959  1.00  0.00     0.010 C 
ENDBRANCH  20  24
ENDBRANCH  17  18
ENDBRANCH   1  17
TORSDOF 5
ENDMDL
