MODEL 1
REMARK VINA RESULT:      -8.9      0.000      0.000
REMARK  5 active torsions:
REMARK  status: ('A' for Active; 'I' for Inactive)
REMARK    1  A    between atoms: C_9  and  C_10 
REMARK    2  A    between atoms: C_13  and  O_14 
REMARK    3  A    between atoms: O_14  and  C_15 
REMARK    4  A    between atoms: C_20  and  C_21 
REMARK       I    between atoms: C_21  and  N_22 
REMARK    5  A    between atoms: N_22  and  C_23 
ROOT
HETATM    1  C   UNL     1      44.204 -14.132   6.483  1.00  0.00     0.070 C 
HETATM    2  C   UNL     1      42.817 -13.822   5.971  1.00  0.00     0.037 C 
HETATM    3  N   UNL     1      42.373 -12.518   6.193  1.00  0.00    -0.192 N 
HETATM    4  C   UNL     1      41.081 -12.162   6.048  1.00  0.00     0.725 A 
HETATM    5  N   UNL     1      40.222 -13.025   5.428  1.00  0.00    -0.084 N 
HETATM    6  N   UNL     1      38.952 -12.570   5.457  1.00  0.00    -0.149 NA
HETATM    7  C   UNL     1      39.133 -11.391   6.066  1.00  0.00     0.275 A 
HETATM    8  N   UNL     1      40.421 -11.104   6.444  1.00  0.00    -0.054 NA
HETATM    9  C   UNL     1      40.635 -14.295   4.830  1.00  0.00     0.202 C 
HETATM   10  C   UNL     1      42.011 -14.718   5.342  1.00  0.00     0.062 C 
HETATM   11  H   UNL     1      42.963 -11.927   6.776  1.00  0.00     0.184 HD
ENDROOT
BRANCH   9  12
HETATM   12  C   UNL     1      40.570 -14.158   3.305  1.00  0.00    -0.028 A 
HETATM   13  C   UNL     1      40.090 -15.194   2.488  1.00  0.00     0.012 A 
HETATM   14  C   UNL     1      40.061 -15.050   1.099  1.00  0.00     0.037 A 
HETATM   15  C   UNL     1      40.520 -13.881   0.491  1.00  0.00     0.074 A 
HETATM   16  C   UNL     1      41.017 -12.852   1.291  1.00  0.00     0.037 A 
HETATM   17  C   UNL     1      41.041 -12.989   2.685  1.00  0.00     0.012 A 
BRANCH  15  18
HETATM   18  O   UNL     1      40.449 -13.889  -0.872  1.00  0.00    -0.290 OA
BRANCH  18  19
HETATM   19  C   UNL     1      39.275 -14.427  -1.456  1.00  0.00     0.505 C 
HETATM   20  F   UNL     1      38.281 -13.508  -1.398  1.00  0.00    -0.184 F 
HETATM   21  F   UNL     1      39.536 -14.636  -2.771  1.00  0.00    -0.184 F 
ENDBRANCH  18  19
ENDBRANCH  15  18
ENDBRANCH   9  12
BRANCH  10  22
HETATM   22  C   UNL     1      42.348 -16.176   5.340  1.00  0.00     0.256 C 
HETATM   23  N   UNL     1      42.995 -16.619   4.207  1.00  0.00    -0.323 N 
HETATM   24  H   UNL     1      43.262 -15.942   3.506  1.00  0.00     0.169 HD
HETATM   25  O   UNL     1      41.989 -16.871   6.284  1.00  0.00    -0.267 OA
BRANCH  23  26
HETATM   26  C   UNL     1      43.342 -17.953   3.891  1.00  0.00     0.035 A 
HETATM   27  C   UNL     1      43.940 -18.843   4.785  1.00  0.00     0.029 A 
HETATM   28  C   UNL     1      44.240 -20.151   4.392  1.00  0.00     0.002 A 
HETATM   29  C   UNL     1      43.935 -20.585   3.104  1.00  0.00     0.000 A 
HETATM   30  C   UNL     1      43.338 -19.706   2.204  1.00  0.00     0.002 A 
HETATM   31  C   UNL     1      43.050 -18.396   2.593  1.00  0.00     0.029 A 
ENDBRANCH  23  26
ENDBRANCH  10  22
TORSDOF 5
ENDMDL
MODEL 2
REMARK VINA RESULT:      -8.6      3.309      6.525
REMARK  5 active torsions:
REMARK  status: ('A' for Active; 'I' for Inactive)
REMARK    1  A    between atoms: C_9  and  C_10 
REMARK    2  A    between atoms: C_13  and  O_14 
REMARK    3  A    between atoms: O_14  and  C_15 
REMARK    4  A    between atoms: C_20  and  C_21 
REMARK       I    between atoms: C_21  and  N_22 
REMARK    5  A    between atoms: N_22  and  C_23 
ROOT
HETATM    1  C   UNL     1      38.715 -11.076   2.994  1.00  0.00     0.070 C 
HETATM    2  C   UNL     1      40.143 -11.556   3.104  1.00  0.00     0.037 C 
HETATM    3  N   UNL     1      40.754 -11.341   4.340  1.00  0.00    -0.192 N 
HETATM    4  C   UNL     1      42.085 -11.457   4.516  1.00  0.00     0.725 A 
HETATM    5  N   UNL     1      42.835 -12.041   3.534  1.00  0.00    -0.084 N 
HETATM    6  N   UNL     1      44.154 -11.986   3.814  1.00  0.00    -0.149 NA
HETATM    7  C   UNL     1      44.119 -11.399   5.018  1.00  0.00     0.275 A 
HETATM    8  N   UNL     1      42.873 -11.060   5.483  1.00  0.00    -0.054 NA
HETATM    9  C   UNL     1      42.268 -12.632   2.320  1.00  0.00     0.202 C 
HETATM   10  C   UNL     1      40.835 -12.150   2.096  1.00  0.00     0.062 C 
HETATM   11  H   UNL     1      40.235 -10.783   5.016  1.00  0.00     0.184 HD
ENDROOT
BRANCH   9  12
HETATM   12  C   UNL     1      42.388 -14.156   2.420  1.00  0.00    -0.028 A 
HETATM   13  C   UNL     1      43.311 -14.878   1.646  1.00  0.00     0.012 A 
HETATM   14  C   UNL     1      43.385 -16.269   1.742  1.00  0.00     0.037 A 
HETATM   15  C   UNL     1      42.537 -16.974   2.596  1.00  0.00     0.074 A 
HETATM   16  C   UNL     1      41.603 -16.270   3.356  1.00  0.00     0.037 A 
HETATM   17  C   UNL     1      41.530 -14.874   3.269  1.00  0.00     0.012 A 
BRANCH  15  18
HETATM   18  O   UNL     1      42.709 -18.328   2.571  1.00  0.00    -0.290 OA
BRANCH  18  19
HETATM   19  C   UNL     1      44.009 -18.820   2.847  1.00  0.00     0.505 C 
HETATM   20  F   UNL     1      44.353 -18.495   4.117  1.00  0.00    -0.184 F 
HETATM   21  F   UNL     1      43.948 -20.175   2.796  1.00  0.00    -0.184 F 
ENDBRANCH  18  19
ENDBRANCH  15  18
ENDBRANCH   9  12
BRANCH  10  22
HETATM   22  C   UNL     1      40.305 -12.139   0.698  1.00  0.00     0.256 C 
HETATM   23  N   UNL     1      39.457 -13.182   0.392  1.00  0.00    -0.323 N 
HETATM   24  H   UNL     1      39.194 -13.823   1.127  1.00  0.00     0.169 HD
HETATM   25  O   UNL     1      40.687 -11.270  -0.078  1.00  0.00    -0.267 OA
BRANCH  23  26
HETATM   26  C   UNL     1      38.891 -13.479  -0.869  1.00  0.00     0.035 A 
HETATM   27  C   UNL     1      37.899 -12.713  -1.486  1.00  0.00     0.029 A 
HETATM   28  C   UNL     1      37.402 -13.073  -2.742  1.00  0.00     0.002 A 
HETATM   29  C   UNL     1      37.900 -14.196  -3.400  1.00  0.00     0.000 A 
HETATM   30  C   UNL     1      38.890 -14.965  -2.796  1.00  0.00     0.002 A 
HETATM   31  C   UNL     1      39.377 -14.613  -1.534  1.00  0.00     0.029 A 
ENDBRANCH  23  26
ENDBRANCH  10  22
TORSDOF 5
ENDMDL
MODEL 3
REMARK VINA RESULT:      -8.5      4.237      5.933
REMARK  5 active torsions:
REMARK  status: ('A' for Active; 'I' for Inactive)
REMARK    1  A    between atoms: C_9  and  C_10 
REMARK    2  A    between atoms: C_13  and  O_14 
REMARK    3  A    between atoms: O_14  and  C_15 
REMARK    4  A    between atoms: C_20  and  C_21 
REMARK       I    between atoms: C_21  and  N_22 
REMARK    5  A    between atoms: N_22  and  C_23 
ROOT
HETATM    1  C   UNL     1      39.722 -15.568   2.245  1.00  0.00     0.070 C 
HETATM    2  C   UNL     1      40.551 -14.310   2.341  1.00  0.00     0.037 C 
HETATM    3  N   UNL     1      39.838 -13.114   2.251  1.00  0.00    -0.192 N 
HETATM    4  C   UNL     1      40.444 -11.928   2.046  1.00  0.00     0.725 A 
HETATM    5  N   UNL     1      41.802 -11.845   2.179  1.00  0.00    -0.084 N 
HETATM    6  N   UNL     1      42.262 -10.623   1.839  1.00  0.00    -0.149 NA
HETATM    7  C   UNL     1      41.109 -10.000   1.564  1.00  0.00     0.275 A 
HETATM    8  N   UNL     1      39.974 -10.762   1.678  1.00  0.00    -0.054 NA
HETATM    9  C   UNL     1      42.646 -12.959   2.615  1.00  0.00     0.202 C 
HETATM   10  C   UNL     1      41.902 -14.288   2.493  1.00  0.00     0.062 C 
HETATM   11  H   UNL     1      38.850 -13.186   2.014  1.00  0.00     0.184 HD
ENDROOT
BRANCH   9  12
HETATM   12  C   UNL     1      43.139 -12.667   4.036  1.00  0.00    -0.028 A 
HETATM   13  C   UNL     1      44.140 -11.716   4.291  1.00  0.00     0.012 A 
HETATM   14  C   UNL     1      44.586 -11.485   5.594  1.00  0.00     0.037 A 
HETATM   15  C   UNL     1      44.059 -12.201   6.669  1.00  0.00     0.074 A 
HETATM   16  C   UNL     1      43.077 -13.162   6.426  1.00  0.00     0.037 A 
HETATM   17  C   UNL     1      42.622 -13.392   5.121  1.00  0.00     0.012 A 
BRANCH  15  18
HETATM   18  O   UNL     1      44.603 -11.883   7.880  1.00  0.00    -0.290 OA
BRANCH  18  19
HETATM   19  C   UNL     1      45.187 -10.599   8.009  1.00  0.00     0.505 C 
HETATM   20  F   UNL     1      44.877 -10.083   9.224  1.00  0.00    -0.184 F 
HETATM   21  F   UNL     1      46.534 -10.763   7.989  1.00  0.00    -0.184 F 
ENDBRANCH  18  19
ENDBRANCH  15  18
ENDBRANCH   9  12
BRANCH  10  22
HETATM   22  C   UNL     1      42.709 -15.535   2.314  1.00  0.00     0.256 C 
HETATM   23  N   UNL     1      42.352 -16.579   3.139  1.00  0.00    -0.323 N 
HETATM   24  H   UNL     1      41.546 -16.468   3.739  1.00  0.00     0.169 HD
HETATM   25  O   UNL     1      43.640 -15.533   1.516  1.00  0.00    -0.267 OA
BRANCH  23  26
HETATM   26  C   UNL     1      42.999 -17.830   3.259  1.00  0.00     0.035 A 
HETATM   27  C   UNL     1      43.750 -18.224   4.369  1.00  0.00     0.029 A 
HETATM   28  C   UNL     1      44.348 -19.488   4.409  1.00  0.00     0.002 A 
HETATM   29  C   UNL     1      44.193 -20.373   3.345  1.00  0.00     0.000 A 
HETATM   30  C   UNL     1      43.447 -19.991   2.234  1.00  0.00     0.002 A 
HETATM   31  C   UNL     1      42.859 -18.725   2.188  1.00  0.00     0.029 A 
ENDBRANCH  23  26
ENDBRANCH  10  22
TORSDOF 5
ENDMDL
MODEL 4
REMARK VINA RESULT:      -7.8      4.520      7.507
REMARK  5 active torsions:
REMARK  status: ('A' for Active; 'I' for Inactive)
REMARK    1  A    between atoms: C_9  and  C_10 
REMARK    2  A    between atoms: C_13  and  O_14 
REMARK    3  A    between atoms: O_14  and  C_15 
REMARK    4  A    between atoms: C_20  and  C_21 
REMARK       I    between atoms: C_21  and  N_22 
REMARK    5  A    between atoms: N_22  and  C_23 
ROOT
HETATM    1  C   UNL     1      43.567 -15.361   1.629  1.00  0.00     0.070 C 
HETATM    2  C   UNL     1      43.086 -15.140   3.043  1.00  0.00     0.037 C 
HETATM    3  N   UNL     1      43.493 -16.098   3.972  1.00  0.00    -0.192 N 
HETATM    4  C   UNL     1      42.936 -16.198   5.195  1.00  0.00     0.725 A 
HETATM    5  N   UNL     1      42.132 -15.189   5.642  1.00  0.00    -0.084 N 
HETATM    6  N   UNL     1      41.572 -15.487   6.832  1.00  0.00    -0.149 NA
HETATM    7  C   UNL     1      42.133 -16.680   7.069  1.00  0.00     0.275 A 
HETATM    8  N   UNL     1      42.974 -17.151   6.093  1.00  0.00    -0.054 NA
HETATM    9  C   UNL     1      41.896 -13.948   4.901  1.00  0.00     0.202 C 
HETATM   10  C   UNL     1      42.300 -14.102   3.435  1.00  0.00     0.062 C 
HETATM   11  H   UNL     1      43.974 -16.917   3.603  1.00  0.00     0.184 HD
ENDROOT
BRANCH   9  12
HETATM   12  C   UNL     1      42.628 -12.808   5.617  1.00  0.00    -0.028 A 
HETATM   13  C   UNL     1      43.926 -12.967   6.126  1.00  0.00     0.012 A 
HETATM   14  C   UNL     1      44.561 -11.917   6.793  1.00  0.00     0.037 A 
HETATM   15  C   UNL     1      43.917 -10.693   6.980  1.00  0.00     0.074 A 
HETATM   16  C   UNL     1      42.620 -10.530   6.495  1.00  0.00     0.037 A 
HETATM   17  C   UNL     1      41.981 -11.578   5.820  1.00  0.00     0.012 A 
BRANCH  15  18
HETATM   18  O   UNL     1      44.652  -9.768   7.665  1.00  0.00    -0.290 OA
BRANCH  18  19
HETATM   19  C   UNL     1      45.805 -10.232   8.344  1.00  0.00     0.505 C 
HETATM   20  F   UNL     1      46.901  -9.609   7.846  1.00  0.00    -0.184 F 
HETATM   21  F   UNL     1      45.695  -9.846   9.640  1.00  0.00    -0.184 F 
ENDBRANCH  18  19
ENDBRANCH  15  18
ENDBRANCH   9  12
BRANCH  10  22
HETATM   22  C   UNL     1      41.630 -13.229   2.423  1.00  0.00     0.256 C 
HETATM   23  N   UNL     1      40.484 -13.758   1.870  1.00  0.00    -0.323 N 
HETATM   24  H   UNL     1      40.137 -14.638   2.225  1.00  0.00     0.169 HD
HETATM   25  O   UNL     1      42.152 -12.162   2.117  1.00  0.00    -0.267 OA
BRANCH  23  26
HETATM   26  C   UNL     1      39.708 -13.204   0.826  1.00  0.00     0.035 A 
HETATM   27  C   UNL     1      38.954 -12.034   0.942  1.00  0.00     0.029 A 
HETATM   28  C   UNL     1      38.222 -11.550  -0.147  1.00  0.00     0.002 A 
HETATM   29  C   UNL     1      38.244 -12.224  -1.365  1.00  0.00     0.000 A 
HETATM   30  C   UNL     1      38.992 -13.391  -1.492  1.00  0.00     0.002 A 
HETATM   31  C   UNL     1      39.714 -13.883  -0.401  1.00  0.00     0.029 A 
ENDBRANCH  23  26
ENDBRANCH  10  22
TORSDOF 5
ENDMDL
MODEL 5
REMARK VINA RESULT:      -7.8      7.689     10.397
REMARK  5 active torsions:
REMARK  status: ('A' for Active; 'I' for Inactive)
REMARK    1  A    between atoms: C_9  and  C_10 
REMARK    2  A    between atoms: C_13  and  O_14 
REMARK    3  A    between atoms: O_14  and  C_15 
REMARK    4  A    between atoms: C_20  and  C_21 
REMARK       I    between atoms: C_21  and  N_22 
REMARK    5  A    between atoms: N_22  and  C_23 
ROOT
HETATM    1  C   UNL     1      39.168 -10.880  12.418  1.00  0.00     0.070 C 
HETATM    2  C   UNL     1      40.227  -9.804  12.450  1.00  0.00     0.037 C 
HETATM    3  N   UNL     1      40.897  -9.658  13.665  1.00  0.00    -0.192 N 
HETATM    4  C   UNL     1      41.663  -8.583  13.941  1.00  0.00     0.725 A 
HETATM    5  N   UNL     1      42.003  -7.733  12.927  1.00  0.00    -0.084 N 
HETATM    6  N   UNL     1      42.678  -6.658  13.382  1.00  0.00    -0.149 NA
HETATM    7  C   UNL     1      42.757  -6.958  14.685  1.00  0.00     0.275 A 
HETATM    8  N   UNL     1      42.148  -8.127  15.068  1.00  0.00    -0.054 NA
HETATM    9  C   UNL     1      41.652  -7.961  11.524  1.00  0.00     0.202 C 
HETATM   10  C   UNL     1      40.538  -8.999  11.400  1.00  0.00     0.062 C 
HETATM   11  H   UNL     1      40.542 -10.199  14.452  1.00  0.00     0.184 HD
ENDROOT
BRANCH   9  12
HETATM   12  C   UNL     1      42.926  -8.342  10.761  1.00  0.00    -0.028 A 
HETATM   13  C   UNL     1      43.243  -7.770   9.519  1.00  0.00     0.012 A 
HETATM   14  C   UNL     1      44.400  -8.152   8.835  1.00  0.00     0.037 A 
HETATM   15  C   UNL     1      45.258  -9.117   9.363  1.00  0.00     0.074 A 
HETATM   16  C   UNL     1      44.943  -9.706  10.588  1.00  0.00     0.037 A 
HETATM   17  C   UNL     1      43.788  -9.321  11.280  1.00  0.00     0.012 A 
BRANCH  15  18
HETATM   18  O   UNL     1      46.337  -9.402   8.578  1.00  0.00    -0.290 OA
BRANCH  18  19
HETATM   19  C   UNL     1      46.151 -10.352   7.542  1.00  0.00     0.505 C 
HETATM   20  F   UNL     1      47.338 -10.936   7.248  1.00  0.00    -0.184 F 
HETATM   21  F   UNL     1      45.346 -11.329   8.028  1.00  0.00    -0.184 F 
ENDBRANCH  18  19
ENDBRANCH  15  18
ENDBRANCH   9  12
BRANCH  10  22
HETATM   22  C   UNL     1      39.657  -8.948  10.192  1.00  0.00     0.256 C 
HETATM   23  N   UNL     1      40.141  -9.625   9.093  1.00  0.00    -0.323 N 
HETATM   24  H   UNL     1      40.993 -10.159   9.191  1.00  0.00     0.169 HD
HETATM   25  O   UNL     1      38.626  -8.285  10.233  1.00  0.00    -0.267 OA
BRANCH  23  26
HETATM   26  C   UNL     1      39.575  -9.663   7.799  1.00  0.00     0.035 A 
HETATM   27  C   UNL     1      38.991 -10.797   7.229  1.00  0.00     0.029 A 
HETATM   28  C   UNL     1      38.444 -10.744   5.943  1.00  0.00     0.002 A 
HETATM   29  C   UNL     1      38.465  -9.555   5.219  1.00  0.00     0.000 A 
HETATM   30  C   UNL     1      39.044  -8.419   5.776  1.00  0.00     0.002 A 
HETATM   31  C   UNL     1      39.602  -8.474   7.056  1.00  0.00     0.029 A 
ENDBRANCH  23  26
ENDBRANCH  10  22
TORSDOF 5
ENDMDL
MODEL 6
REMARK VINA RESULT:      -7.5      3.972      6.736
REMARK  5 active torsions:
REMARK  status: ('A' for Active; 'I' for Inactive)
REMARK    1  A    between atoms: C_9  and  C_10 
REMARK    2  A    between atoms: C_13  and  O_14 
REMARK    3  A    between atoms: O_14  and  C_15 
REMARK    4  A    between atoms: C_20  and  C_21 
REMARK       I    between atoms: C_21  and  N_22 
REMARK    5  A    between atoms: N_22  and  C_23 
ROOT
HETATM    1  C   UNL     1      43.196 -16.362   1.583  1.00  0.00     0.070 C 
HETATM    2  C   UNL     1      42.801 -15.993   2.993  1.00  0.00     0.037 C 
HETATM    3  N   UNL     1      43.686 -16.404   3.991  1.00  0.00    -0.192 N 
HETATM    4  C   UNL     1      43.354 -16.397   5.297  1.00  0.00     0.725 A 
HETATM    5  N   UNL     1      42.222 -15.739   5.690  1.00  0.00    -0.084 N 
HETATM    6  N   UNL     1      41.975 -15.914   7.004  1.00  0.00    -0.149 NA
HETATM    7  C   UNL     1      43.039 -16.649   7.353  1.00  0.00     0.275 A 
HETATM    8  N   UNL     1      43.907 -16.966   6.339  1.00  0.00    -0.054 NA
HETATM    9  C   UNL     1      41.377 -14.962   4.782  1.00  0.00     0.202 C 
HETATM   10  C   UNL     1      41.668 -15.318   3.324  1.00  0.00     0.062 C 
HETATM   11  H   UNL     1      44.452 -17.011   3.702  1.00  0.00     0.184 HD
ENDROOT
BRANCH   9  12
HETATM   12  C   UNL     1      41.570 -13.474   5.094  1.00  0.00    -0.028 A 
HETATM   13  C   UNL     1      40.612 -12.737   5.808  1.00  0.00     0.012 A 
HETATM   14  C   UNL     1      40.803 -11.377   6.060  1.00  0.00     0.037 A 
HETATM   15  C   UNL     1      41.942 -10.716   5.598  1.00  0.00     0.074 A 
HETATM   16  C   UNL     1      42.892 -11.433   4.870  1.00  0.00     0.037 A 
HETATM   17  C   UNL     1      42.707 -12.799   4.621  1.00  0.00     0.012 A 
BRANCH  15  18
HETATM   18  O   UNL     1      41.985  -9.387   5.902  1.00  0.00    -0.290 OA
BRANCH  18  19
HETATM   19  C   UNL     1      41.353  -8.976   7.102  1.00  0.00     0.505 C 
HETATM   20  F   UNL     1      42.215  -9.125   8.138  1.00  0.00    -0.184 F 
HETATM   21  F   UNL     1      41.101  -7.648   6.994  1.00  0.00    -0.184 F 
ENDBRANCH  18  19
ENDBRANCH  15  18
ENDBRANCH   9  12
BRANCH  10  22
HETATM   22  C   UNL     1      40.582 -15.114   2.317  1.00  0.00     0.256 C 
HETATM   23  N   UNL     1      40.817 -14.105   1.407  1.00  0.00    -0.323 N 
HETATM   24  H   UNL     1      41.711 -13.634   1.428  1.00  0.00     0.169 HD
HETATM   25  O   UNL     1      39.562 -15.790   2.395  1.00  0.00    -0.267 OA
BRANCH  23  26
HETATM   26  C   UNL     1      39.930 -13.628   0.416  1.00  0.00     0.035 A 
HETATM   27  C   UNL     1      39.241 -12.416   0.495  1.00  0.00     0.029 A 
HETATM   28  C   UNL     1      38.390 -12.014  -0.540  1.00  0.00     0.002 A 
HETATM   29  C   UNL     1      38.227 -12.815  -1.667  1.00  0.00     0.000 A 
HETATM   30  C   UNL     1      38.909 -14.025  -1.757  1.00  0.00     0.002 A 
HETATM   31  C   UNL     1      39.750 -14.433  -0.718  1.00  0.00     0.029 A 
ENDBRANCH  23  26
ENDBRANCH  10  22
TORSDOF 5
ENDMDL
MODEL 7
REMARK VINA RESULT:      -7.3      4.107      6.543
REMARK  5 active torsions:
REMARK  status: ('A' for Active; 'I' for Inactive)
REMARK    1  A    between atoms: C_9  and  C_10 
REMARK    2  A    between atoms: C_13  and  O_14 
REMARK    3  A    between atoms: O_14  and  C_15 
REMARK    4  A    between atoms: C_20  and  C_21 
REMARK       I    between atoms: C_21  and  N_22 
REMARK    5  A    between atoms: N_22  and  C_23 
ROOT
HETATM    1  C   UNL     1      40.767 -16.291   2.030  1.00  0.00     0.070 C 
HETATM    2  C   UNL     1      40.600 -15.057   1.176  1.00  0.00     0.037 C 
HETATM    3  N   UNL     1      39.736 -15.194   0.088  1.00  0.00    -0.192 N 
HETATM    4  C   UNL     1      39.688 -14.292  -0.912  1.00  0.00     0.725 A 
HETATM    5  N   UNL     1      40.311 -13.087  -0.749  1.00  0.00    -0.084 N 
HETATM    6  N   UNL     1      40.262 -12.343  -1.873  1.00  0.00    -0.149 NA
HETATM    7  C   UNL     1      39.539 -13.149  -2.662  1.00  0.00     0.275 A 
HETATM    8  N   UNL     1      39.169 -14.351  -2.113  1.00  0.00    -0.054 NA
HETATM    9  C   UNL     1      40.967 -12.673   0.493  1.00  0.00     0.202 C 
HETATM   10  C   UNL     1      41.232 -13.874   1.398  1.00  0.00     0.062 C 
HETATM   11  H   UNL     1      39.387 -16.131  -0.104  1.00  0.00     0.184 HD
ENDROOT
BRANCH   9  12
HETATM   12  C   UNL     1      40.111 -11.588   1.156  1.00  0.00    -0.028 A 
HETATM   13  C   UNL     1      40.670 -10.391   1.629  1.00  0.00     0.012 A 
HETATM   14  C   UNL     1      39.870  -9.428   2.249  1.00  0.00     0.037 A 
HETATM   15  C   UNL     1      38.502  -9.640   2.424  1.00  0.00     0.074 A 
HETATM   16  C   UNL     1      37.938 -10.834   1.976  1.00  0.00     0.037 A 
HETATM   17  C   UNL     1      38.736 -11.799   1.347  1.00  0.00     0.012 A 
BRANCH  15  18
HETATM   18  O   UNL     1      37.851  -8.623   3.062  1.00  0.00    -0.290 OA
BRANCH  18  19
HETATM   19  C   UNL     1      38.030  -8.518   4.463  1.00  0.00     0.505 C 
HETATM   20  F   UNL     1      36.988  -7.840   5.001  1.00  0.00    -0.184 F 
HETATM   21  F   UNL     1      37.981  -9.775   4.973  1.00  0.00    -0.184 F 
ENDBRANCH  18  19
ENDBRANCH  15  18
ENDBRANCH   9  12
BRANCH  10  22
HETATM   22  C   UNL     1      42.359 -13.786   2.377  1.00  0.00     0.256 C 
HETATM   23  N   UNL     1      42.025 -13.242   3.598  1.00  0.00    -0.323 N 
HETATM   24  H   UNL     1      41.057 -13.015   3.778  1.00  0.00     0.169 HD
HETATM   25  O   UNL     1      43.481 -14.136   2.027  1.00  0.00    -0.267 OA
BRANCH  23  26
HETATM   26  C   UNL     1      42.900 -12.947   4.668  1.00  0.00     0.035 A 
HETATM   27  C   UNL     1      43.088 -13.771   5.780  1.00  0.00     0.029 A 
HETATM   28  C   UNL     1      43.985 -13.407   6.790  1.00  0.00     0.002 A 
HETATM   29  C   UNL     1      44.709 -12.221   6.694  1.00  0.00     0.000 A 
HETATM   30  C   UNL     1      44.529 -11.392   5.590  1.00  0.00     0.002 A 
HETATM   31  C   UNL     1      43.625 -11.749   4.587  1.00  0.00     0.029 A 
ENDBRANCH  23  26
ENDBRANCH  10  22
TORSDOF 5
ENDMDL
MODEL 8
REMARK VINA RESULT:      -7.3     15.656     17.475
REMARK  5 active torsions:
REMARK  status: ('A' for Active; 'I' for Inactive)
REMARK    1  A    between atoms: C_9  and  C_10 
REMARK    2  A    between atoms: C_13  and  O_14 
REMARK    3  A    between atoms: O_14  and  C_15 
REMARK    4  A    between atoms: C_20  and  C_21 
REMARK       I    between atoms: C_21  and  N_22 
REMARK    5  A    between atoms: N_22  and  C_23 
ROOT
HETATM    1  C   UNL     1      48.329 -32.585  -2.236  1.00  0.00     0.070 C 
HETATM    2  C   UNL     1      47.132 -31.681  -2.411  1.00  0.00     0.037 C 
HETATM    3  N   UNL     1      46.297 -31.994  -3.485  1.00  0.00    -0.192 N 
HETATM    4  C   UNL     1      45.357 -31.142  -3.939  1.00  0.00     0.725 A 
HETATM    5  N   UNL     1      45.032 -30.050  -3.185  1.00  0.00    -0.084 N 
HETATM    6  N   UNL     1      44.157 -29.246  -3.823  1.00  0.00    -0.149 NA
HETATM    7  C   UNL     1      43.955 -29.952  -4.943  1.00  0.00     0.275 A 
HETATM    8  N   UNL     1      44.669 -31.117  -5.053  1.00  0.00    -0.054 NA
HETATM    9  C   UNL     1      45.589 -29.784  -1.857  1.00  0.00     0.202 C 
HETATM   10  C   UNL     1      46.847 -30.616  -1.615  1.00  0.00     0.062 C 
HETATM   11  H   UNL     1      46.621 -32.721  -4.120  1.00  0.00     0.184 HD
ENDROOT
BRANCH   9  12
HETATM   12  C   UNL     1      44.492 -30.022  -0.814  1.00  0.00    -0.028 A 
HETATM   13  C   UNL     1      43.816 -28.959  -0.195  1.00  0.00     0.012 A 
HETATM   14  C   UNL     1      42.835 -29.205   0.768  1.00  0.00     0.037 A 
HETATM   15  C   UNL     1      42.514 -30.509   1.147  1.00  0.00     0.074 A 
HETATM   16  C   UNL     1      43.193 -31.573   0.554  1.00  0.00     0.037 A 
HETATM   17  C   UNL     1      44.173 -31.331  -0.418  1.00  0.00     0.012 A 
BRANCH  15  18
HETATM   18  O   UNL     1      41.552 -30.595   2.112  1.00  0.00    -0.290 OA
BRANCH  18  19
HETATM   19  C   UNL     1      40.690 -31.719   2.066  1.00  0.00     0.505 C 
HETATM   20  F   UNL     1      40.059 -31.851   3.259  1.00  0.00    -0.184 F 
HETATM   21  F   UNL     1      39.729 -31.456   1.146  1.00  0.00    -0.184 F 
ENDBRANCH  18  19
ENDBRANCH  15  18
ENDBRANCH   9  12
BRANCH  10  22
HETATM   22  C   UNL     1      47.860 -30.100  -0.644  1.00  0.00     0.256 C 
HETATM   23  N   UNL     1      47.730 -30.584   0.640  1.00  0.00    -0.323 N 
HETATM   24  H   UNL     1      47.032 -31.292   0.822  1.00  0.00     0.169 HD
HETATM   25  O   UNL     1      48.675 -29.265  -1.020  1.00  0.00    -0.267 OA
BRANCH  23  26
HETATM   26  C   UNL     1      48.477 -30.197   1.776  1.00  0.00     0.035 A 
HETATM   27  C   UNL     1      48.098 -29.181   2.657  1.00  0.00     0.029 A 
HETATM   28  C   UNL     1      48.892 -28.870   3.766  1.00  0.00     0.002 A 
HETATM   29  C   UNL     1      50.067 -29.578   4.010  1.00  0.00     0.000 A 
HETATM   30  C   UNL     1      50.454 -30.592   3.139  1.00  0.00     0.002 A 
HETATM   31  C   UNL     1      49.667 -30.895   2.025  1.00  0.00     0.029 A 
ENDBRANCH  23  26
ENDBRANCH  10  22
TORSDOF 5
ENDMDL
MODEL 9
REMARK VINA RESULT:      -7.3      3.781      6.905
REMARK  5 active torsions:
REMARK  status: ('A' for Active; 'I' for Inactive)
REMARK    1  A    between atoms: C_9  and  C_10 
REMARK    2  A    between atoms: C_13  and  O_14 
REMARK    3  A    between atoms: O_14  and  C_15 
REMARK    4  A    between atoms: C_20  and  C_21 
REMARK       I    between atoms: C_21  and  N_22 
REMARK    5  A    between atoms: N_22  and  C_23 
ROOT
HETATM    1  C   UNL     1      40.323  -9.532   7.119  1.00  0.00     0.070 C 
HETATM    2  C   UNL     1      41.618 -10.236   6.790  1.00  0.00     0.037 C 
HETATM    3  N   UNL     1      42.532 -10.333   7.839  1.00  0.00    -0.192 N 
HETATM    4  C   UNL     1      43.820 -10.680   7.644  1.00  0.00     0.725 A 
HETATM    5  N   UNL     1      44.192 -11.195   6.434  1.00  0.00    -0.084 N 
HETATM    6  N   UNL     1      45.524 -11.390   6.364  1.00  0.00    -0.149 NA
HETATM    7  C   UNL     1      45.887 -11.020   7.599  1.00  0.00     0.275 A 
HETATM    8  N   UNL     1      44.874 -10.579   8.413  1.00  0.00    -0.054 NA
HETATM    9  C   UNL     1      43.253 -11.474   5.346  1.00  0.00     0.202 C 
HETATM   10  C   UNL     1      41.927 -10.748   5.568  1.00  0.00     0.062 C 
HETATM   11  H   UNL     1      42.304  -9.826   8.693  1.00  0.00     0.184 HD
ENDROOT
BRANCH   9  12
HETATM   12  C   UNL     1      43.099 -12.994   5.216  1.00  0.00    -0.028 A 
HETATM   13  C   UNL     1      42.974 -13.824   6.341  1.00  0.00     0.012 A 
HETATM   14  C   UNL     1      42.857 -15.208   6.194  1.00  0.00     0.037 A 
HETATM   15  C   UNL     1      42.874 -15.798   4.929  1.00  0.00     0.074 A 
HETATM   16  C   UNL     1      43.017 -14.985   3.805  1.00  0.00     0.037 A 
HETATM   17  C   UNL     1      43.128 -13.595   3.947  1.00  0.00     0.012 A 
BRANCH  15  18
HETATM   18  O   UNL     1      42.769 -17.158   4.940  1.00  0.00    -0.290 OA
BRANCH  18  19
HETATM   19  C   UNL     1      43.970 -17.901   4.816  1.00  0.00     0.505 C 
HETATM   20  F   UNL     1      45.012 -17.147   5.244  1.00  0.00    -0.184 F 
HETATM   21  F   UNL     1      43.882 -18.958   5.661  1.00  0.00    -0.184 F 
ENDBRANCH  18  19
ENDBRANCH  15  18
ENDBRANCH   9  12
BRANCH  10  22
HETATM   22  C   UNL     1      41.094 -10.417   4.371  1.00  0.00     0.256 C 
HETATM   23  N   UNL     1      40.257 -11.427   3.950  1.00  0.00    -0.323 N 
HETATM   24  H   UNL     1      40.203 -12.272   4.502  1.00  0.00     0.169 HD
HETATM   25  O   UNL     1      41.243  -9.330   3.824  1.00  0.00    -0.267 OA
BRANCH  23  26
HETATM   26  C   UNL     1      39.438 -11.431   2.798  1.00  0.00     0.035 A 
HETATM   27  C   UNL     1      38.298 -10.639   2.640  1.00  0.00     0.029 A 
HETATM   28  C   UNL     1      37.551 -10.698   1.460  1.00  0.00     0.002 A 
HETATM   29  C   UNL     1      37.940 -11.540   0.422  1.00  0.00     0.000 A 
HETATM   30  C   UNL     1      39.075 -12.334   0.567  1.00  0.00     0.002 A 
HETATM   31  C   UNL     1      39.815 -12.285   1.751  1.00  0.00     0.029 A 
ENDBRANCH  23  26
ENDBRANCH  10  22
TORSDOF 5
ENDMDL
MODEL 10
REMARK VINA RESULT:      -7.2      3.792      6.527
REMARK  5 active torsions:
REMARK  status: ('A' for Active; 'I' for Inactive)
REMARK    1  A    between atoms: C_9  and  C_10 
REMARK    2  A    between atoms: C_13  and  O_14 
REMARK    3  A    between atoms: O_14  and  C_15 
REMARK    4  A    between atoms: C_20  and  C_21 
REMARK       I    between atoms: C_21  and  N_22 
REMARK    5  A    between atoms: N_22  and  C_23 
ROOT
HETATM    1  C   UNL     1      38.941 -10.059   4.283  1.00  0.00     0.070 C 
HETATM    2  C   UNL     1      40.275 -10.574   4.768  1.00  0.00     0.037 C 
HETATM    3  N   UNL     1      40.631 -10.191   6.062  1.00  0.00    -0.192 N 
HETATM    4  C   UNL     1      41.884 -10.332   6.536  1.00  0.00     0.725 A 
HETATM    5  N   UNL     1      42.776 -11.096   5.836  1.00  0.00    -0.084 N 
HETATM    6  N   UNL     1      44.008 -11.051   6.384  1.00  0.00    -0.149 NA
HETATM    7  C   UNL     1      43.768 -10.279   7.452  1.00  0.00     0.275 A 
HETATM    8  N   UNL     1      42.482  -9.819   7.581  1.00  0.00    -0.054 NA
HETATM    9  C   UNL     1      42.430 -11.848   4.629  1.00  0.00     0.202 C 
HETATM   10  C   UNL     1      41.115 -11.349   4.032  1.00  0.00     0.062 C 
HETATM   11  H   UNL     1      40.027  -9.511   6.521  1.00  0.00     0.184 HD
ENDROOT
BRANCH   9  12
HETATM   12  C   UNL     1      42.413 -13.341   4.975  1.00  0.00    -0.028 A 
HETATM   13  C   UNL     1      43.057 -14.294   4.170  1.00  0.00     0.012 A 
HETATM   14  C   UNL     1      43.008 -15.651   4.497  1.00  0.00     0.037 A 
HETATM   15  C   UNL     1      42.309 -16.091   5.622  1.00  0.00     0.074 A 
HETATM   16  C   UNL     1      41.650 -15.155   6.419  1.00  0.00     0.037 A 
HETATM   17  C   UNL     1      41.702 -13.793   6.098  1.00  0.00     0.012 A 
BRANCH  15  18
HETATM   18  O   UNL     1      42.332 -17.443   5.806  1.00  0.00    -0.290 OA
BRANCH  18  19
HETATM   19  C   UNL     1      43.514 -18.002   6.353  1.00  0.00     0.505 C 
HETATM   20  F   UNL     1      43.747 -17.458   7.572  1.00  0.00    -0.184 F 
HETATM   21  F   UNL     1      43.281 -19.324   6.554  1.00  0.00    -0.184 F 
ENDBRANCH  18  19
ENDBRANCH  15  18
ENDBRANCH   9  12
BRANCH  10  22
HETATM   22  C   UNL     1      40.888 -11.539   2.566  1.00  0.00     0.256 C 
HETATM   23  N   UNL     1      39.993 -12.537   2.243  1.00  0.00    -0.323 N 
HETATM   24  H   UNL     1      39.506 -13.010   2.991  1.00  0.00     0.169 HD
HETATM   25  O   UNL     1      41.529 -10.861   1.771  1.00  0.00    -0.267 OA
BRANCH  23  26
HETATM   26  C   UNL     1      39.665 -13.000   0.948  1.00  0.00     0.035 A 
HETATM   27  C   UNL     1      40.082 -14.225   0.423  1.00  0.00     0.029 A 
HETATM   28  C   UNL     1      39.701 -14.611  -0.866  1.00  0.00     0.002 A 
HETATM   29  C   UNL     1      38.891 -13.782  -1.638  1.00  0.00     0.000 A 
HETATM   30  C   UNL     1      38.468 -12.559  -1.124  1.00  0.00     0.002 A 
HETATM   31  C   UNL     1      38.859 -12.168   0.159  1.00  0.00     0.029 A 
ENDBRANCH  23  26
ENDBRANCH  10  22
TORSDOF 5
ENDMDL
