MODEL 1
REMARK VINA RESULT:      -8.2      0.000      0.000
REMARK  5 active torsions:
REMARK  status: ('A' for Active; 'I' for Inactive)
REMARK    1  A    between atoms: C_3  and  O_4 
REMARK    2  A    between atoms: O_4  and  C_5 
REMARK    3  A    between atoms: C_6  and  N_7 
REMARK       I    between atoms: N_7  and  C_8 
REMARK       I    between atoms: C_8  and  N_9 
REMARK    4  A    between atoms: N_9  and  C_10 
REMARK    5  A    between atoms: C_11  and  C_12 
ROOT
HETATM    1  C   UNL     1      42.667 -15.291   7.592  1.00  0.00     0.014 C 
HETATM    2  C   UNL     1      43.481 -15.992   7.057  1.00  0.00    -0.091 C 
HETATM    3  C   UNL     1      44.479 -16.850   6.407  1.00  0.00     0.268 C 
ENDROOT
BRANCH   3   4
HETATM    4  O   UNL     1      44.256 -16.839   4.992  1.00  0.00    -0.337 OA
BRANCH   4   5
HETATM    5  C   UNL     1      44.013 -18.084   4.474  1.00  0.00     0.099 A 
HETATM    6  C   UNL     1      43.765 -18.208   3.099  1.00  0.00     0.070 A 
HETATM    7  C   UNL     1      43.681 -19.493   2.540  1.00  0.00     0.035 A 
HETATM    8  C   UNL     1      43.739 -20.628   3.348  1.00  0.00     0.044 A 
HETATM    9  C   UNL     1      43.900 -20.479   4.718  1.00  0.00     0.119 A 
HETATM   10  F   UNL     1      43.937 -21.565   5.500  1.00  0.00    -0.206 F 
HETATM   11  C   UNL     1      44.041 -19.221   5.289  1.00  0.00     0.081 A 
BRANCH   6  12
HETATM   12  N   UNL     1      43.655 -17.137   2.194  1.00  0.00    -0.306 N 
HETATM   13  C   UNL     1      42.881 -16.012   2.173  1.00  0.00     0.325 C 
HETATM   14  N   UNL     1      41.979 -15.815   3.177  1.00  0.00    -0.305 N 
HETATM   15  O   UNL     1      42.974 -15.317   1.157  1.00  0.00    -0.247 OA
HETATM   16  H   UNL     1      42.179 -16.195   4.100  1.00  0.00     0.171 HD
HETATM   17  H   UNL     1      44.031 -17.286   1.265  1.00  0.00     0.171 HD
BRANCH  14  18
HETATM   18  C   UNL     1      40.884 -14.961   3.102  1.00  0.00     0.086 A 
HETATM   19  C   UNL     1      40.754 -13.629   3.623  1.00  0.00     0.133 A 
HETATM   20  N   UNL     1      39.519 -13.143   3.371  1.00  0.00    -0.171 NA
HETATM   21  N   UNL     1      38.893 -14.135   2.726  1.00  0.00    -0.286 N 
HETATM   22  H   UNL     1      37.931 -13.993   2.441  1.00  0.00     0.188 HD
HETATM   23  C   UNL     1      39.661 -15.238   2.540  1.00  0.00     0.141 A 
BRANCH  19  24
HETATM   24  C   UNL     1      41.761 -12.819   4.328  1.00  0.00     0.089 A 
HETATM   25  N   UNL     1      42.947 -12.616   3.696  1.00  0.00    -0.259 NA
HETATM   26  C   UNL     1      43.862 -11.854   4.335  1.00  0.00     0.117 A 
HETATM   27  C   UNL     1      43.665 -11.278   5.578  1.00  0.00     0.019 A 
HETATM   28  C   UNL     1      42.452 -11.499   6.215  1.00  0.00     0.004 A 
HETATM   29  C   UNL     1      41.487 -12.280   5.586  1.00  0.00     0.034 A 
ENDBRANCH  19  24
ENDBRANCH  14  18
ENDBRANCH   6  12
ENDBRANCH   4   5
ENDBRANCH   3   4
TORSDOF 5
ENDMDL
MODEL 2
REMARK VINA RESULT:      -8.2      3.122      6.081
REMARK  5 active torsions:
REMARK  status: ('A' for Active; 'I' for Inactive)
REMARK    1  A    between atoms: C_3  and  O_4 
REMARK    2  A    between atoms: O_4  and  C_5 
REMARK    3  A    between atoms: C_6  and  N_7 
REMARK       I    between atoms: N_7  and  C_8 
REMARK       I    between atoms: C_8  and  N_9 
REMARK    4  A    between atoms: N_9  and  C_10 
REMARK    5  A    between atoms: C_11  and  C_12 
ROOT
HETATM    1  C   UNL     1      43.089 -18.402   2.416  1.00  0.00     0.014 C 
HETATM    2  C   UNL     1      42.803 -17.282   2.739  1.00  0.00    -0.091 C 
HETATM    3  C   UNL     1      42.457 -15.912   3.137  1.00  0.00     0.268 C 
ENDROOT
BRANCH   3   4
HETATM    4  O   UNL     1      41.033 -15.795   3.228  1.00  0.00    -0.337 OA
BRANCH   4   5
HETATM    5  C   UNL     1      40.505 -14.907   2.330  1.00  0.00     0.099 A 
HETATM    6  C   UNL     1      39.809 -13.788   2.814  1.00  0.00     0.070 A 
HETATM    7  C   UNL     1      39.413 -12.794   1.905  1.00  0.00     0.035 A 
HETATM    8  C   UNL     1      39.612 -12.958   0.535  1.00  0.00     0.044 A 
HETATM    9  C   UNL     1      40.226 -14.113   0.071  1.00  0.00     0.119 A 
HETATM   10  F   UNL     1      40.403 -14.283  -1.245  1.00  0.00    -0.206 F 
HETATM   11  C   UNL     1      40.677 -15.086   0.952  1.00  0.00     0.081 A 
BRANCH   6  12
HETATM   12  N   UNL     1      39.522 -13.533   4.167  1.00  0.00    -0.306 N 
HETATM   13  C   UNL     1      40.228 -12.932   5.169  1.00  0.00     0.325 C 
HETATM   14  N   UNL     1      41.489 -12.483   4.910  1.00  0.00    -0.305 N 
HETATM   15  O   UNL     1      39.702 -12.963   6.286  1.00  0.00    -0.247 OA
HETATM   16  H   UNL     1      41.718 -12.178   3.966  1.00  0.00     0.171 HD
HETATM   17  H   UNL     1      38.765 -14.065   4.579  1.00  0.00     0.171 HD
BRANCH  14  18
HETATM   18  C   UNL     1      42.451 -12.218   5.878  1.00  0.00     0.086 A 
HETATM   19  C   UNL     1      43.209 -13.152   6.662  1.00  0.00     0.133 A 
HETATM   20  N   UNL     1      44.024 -12.496   7.519  1.00  0.00    -0.171 NA
HETATM   21  N   UNL     1      43.779 -11.200   7.288  1.00  0.00    -0.286 N 
HETATM   22  H   UNL     1      44.282 -10.511   7.835  1.00  0.00     0.188 HD
HETATM   23  C   UNL     1      42.853 -10.980   6.322  1.00  0.00     0.141 A 
BRANCH  19  24
HETATM   24  C   UNL     1      43.189 -14.622   6.608  1.00  0.00     0.089 A 
HETATM   25  N   UNL     1      41.993 -15.234   6.814  1.00  0.00    -0.259 NA
HETATM   26  C   UNL     1      41.972 -16.584   6.743  1.00  0.00     0.117 A 
HETATM   27  C   UNL     1      43.082 -17.367   6.478  1.00  0.00     0.019 A 
HETATM   28  C   UNL     1      44.298 -16.730   6.277  1.00  0.00     0.004 A 
HETATM   29  C   UNL     1      44.356 -15.341   6.345  1.00  0.00     0.034 A 
ENDBRANCH  19  24
ENDBRANCH  14  18
ENDBRANCH   6  12
ENDBRANCH   4   5
ENDBRANCH   3   4
TORSDOF 5
ENDMDL
MODEL 3
REMARK VINA RESULT:      -7.4      3.426      6.859
REMARK  5 active torsions:
REMARK  status: ('A' for Active; 'I' for Inactive)
REMARK    1  A    between atoms: C_3  and  O_4 
REMARK    2  A    between atoms: O_4  and  C_5 
REMARK    3  A    between atoms: C_6  and  N_7 
REMARK       I    between atoms: N_7  and  C_8 
REMARK       I    between atoms: C_8  and  N_9 
REMARK    4  A    between atoms: N_9  and  C_10 
REMARK    5  A    between atoms: C_11  and  C_12 
ROOT
HETATM    1  C   UNL     1      41.198  -8.093   5.025  1.00  0.00     0.014 C 
HETATM    2  C   UNL     1      41.322  -9.005   4.255  1.00  0.00    -0.091 C 
HETATM    3  C   UNL     1      41.475 -10.118   3.310  1.00  0.00     0.268 C 
ENDROOT
BRANCH   3   4
HETATM    4  O   UNL     1      40.784 -11.264   3.820  1.00  0.00    -0.337 OA
BRANCH   4   5
HETATM    5  C   UNL     1      40.678 -12.280   2.908  1.00  0.00     0.099 A 
HETATM    6  C   UNL     1      40.149 -13.512   3.325  1.00  0.00     0.070 A 
HETATM    7  C   UNL     1      39.885 -14.496   2.359  1.00  0.00     0.035 A 
HETATM    8  C   UNL     1      40.236 -14.298   1.024  1.00  0.00     0.044 A 
HETATM    9  C   UNL     1      40.836 -13.105   0.649  1.00  0.00     0.119 A 
HETATM   10  F   UNL     1      41.191 -12.918  -0.629  1.00  0.00    -0.206 F 
HETATM   11  C   UNL     1      41.057 -12.094   1.574  1.00  0.00     0.081 A 
BRANCH   6  12
HETATM   12  N   UNL     1      39.789 -13.836   4.645  1.00  0.00    -0.306 N 
HETATM   13  C   UNL     1      40.489 -14.344   5.702  1.00  0.00     0.325 C 
HETATM   14  N   UNL     1      41.803 -14.663   5.529  1.00  0.00    -0.305 N 
HETATM   15  O   UNL     1      39.824 -14.600   6.711  1.00  0.00    -0.247 OA
HETATM   16  H   UNL     1      42.352 -14.140   4.849  1.00  0.00     0.171 HD
HETATM   17  H   UNL     1      38.799 -13.940   4.834  1.00  0.00     0.171 HD
BRANCH  14  18
HETATM   18  C   UNL     1      42.525 -15.522   6.350  1.00  0.00     0.086 A 
HETATM   19  C   UNL     1      43.126 -16.783   6.013  1.00  0.00     0.133 A 
HETATM   20  N   UNL     1      43.716 -17.329   7.100  1.00  0.00    -0.171 NA
HETATM   21  N   UNL     1      43.486 -16.450   8.083  1.00  0.00    -0.286 N 
HETATM   22  H   UNL     1      43.837 -16.662   9.010  1.00  0.00     0.188 HD
HETATM   23  C   UNL     1      42.783 -15.359   7.690  1.00  0.00     0.141 A 
BRANCH  19  24
HETATM   24  C   UNL     1      43.164 -17.460   4.707  1.00  0.00     0.089 A 
HETATM   25  N   UNL     1      42.426 -16.915   3.704  1.00  0.00    -0.259 NA
HETATM   26  C   UNL     1      42.479 -17.525   2.499  1.00  0.00     0.117 A 
HETATM   27  C   UNL     1      43.229 -18.658   2.233  1.00  0.00     0.019 A 
HETATM   28  C   UNL     1      43.971 -19.208   3.268  1.00  0.00     0.004 A 
HETATM   29  C   UNL     1      43.939 -18.606   4.522  1.00  0.00     0.034 A 
ENDBRANCH  19  24
ENDBRANCH  14  18
ENDBRANCH   6  12
ENDBRANCH   4   5
ENDBRANCH   3   4
TORSDOF 5
ENDMDL
MODEL 4
REMARK VINA RESULT:      -7.4      3.304      4.771
REMARK  5 active torsions:
REMARK  status: ('A' for Active; 'I' for Inactive)
REMARK    1  A    between atoms: C_3  and  O_4 
REMARK    2  A    between atoms: O_4  and  C_5 
REMARK    3  A    between atoms: C_6  and  N_7 
REMARK       I    between atoms: N_7  and  C_8 
REMARK       I    between atoms: C_8  and  N_9 
REMARK    4  A    between atoms: N_9  and  C_10 
REMARK    5  A    between atoms: C_11  and  C_12 
ROOT
HETATM    1  C   UNL     1      39.850 -12.655   5.977  1.00  0.00     0.014 C 
HETATM    2  C   UNL     1      40.743 -13.453   6.059  1.00  0.00    -0.091 C 
HETATM    3  C   UNL     1      41.839 -14.424   6.158  1.00  0.00     0.268 C 
ENDROOT
BRANCH   3   4
HETATM    4  O   UNL     1      41.311 -15.746   5.991  1.00  0.00    -0.337 OA
BRANCH   4   5
HETATM    5  C   UNL     1      41.909 -16.442   4.975  1.00  0.00     0.099 A 
HETATM    6  C   UNL     1      41.445 -16.257   3.664  1.00  0.00     0.070 A 
HETATM    7  C   UNL     1      42.161 -16.838   2.605  1.00  0.00     0.035 A 
HETATM    8  C   UNL     1      43.252 -17.670   2.853  1.00  0.00     0.044 A 
HETATM    9  C   UNL     1      43.641 -17.908   4.163  1.00  0.00     0.119 A 
HETATM   10  F   UNL     1      44.677 -18.721   4.407  1.00  0.00    -0.206 F 
HETATM   11  C   UNL     1      42.985 -17.301   5.225  1.00  0.00     0.081 A 
BRANCH   6  12
HETATM   12  N   UNL     1      40.340 -15.468   3.297  1.00  0.00    -0.306 N 
HETATM   13  C   UNL     1      40.225 -14.273   2.645  1.00  0.00     0.325 C 
HETATM   14  N   UNL     1      41.358 -13.622   2.259  1.00  0.00    -0.305 N 
HETATM   15  O   UNL     1      39.082 -13.811   2.573  1.00  0.00    -0.247 OA
HETATM   16  H   UNL     1      42.188 -14.168   2.033  1.00  0.00     0.171 HD
HETATM   17  H   UNL     1      39.466 -15.662   3.771  1.00  0.00     0.171 HD
BRANCH  14  18
HETATM   18  C   UNL     1      41.430 -12.268   1.952  1.00  0.00     0.086 A 
HETATM   19  C   UNL     1      41.260 -11.632   0.675  1.00  0.00     0.133 A 
HETATM   20  N   UNL     1      41.436 -10.297   0.787  1.00  0.00    -0.171 NA
HETATM   21  N   UNL     1      41.716 -10.102   2.082  1.00  0.00    -0.286 N 
HETATM   22  H   UNL     1      41.898  -9.157   2.399  1.00  0.00     0.188 HD
HETATM   23  C   UNL     1      41.723 -11.242   2.818  1.00  0.00     0.141 A 
BRANCH  19  24
HETATM   24  C   UNL     1      40.927 -12.249  -0.618  1.00  0.00     0.089 A 
HETATM   25  N   UNL     1      40.235 -13.418  -0.588  1.00  0.00    -0.259 NA
HETATM   26  C   UNL     1      39.911 -13.973  -1.777  1.00  0.00     0.117 A 
HETATM   27  C   UNL     1      40.241 -13.428  -3.006  1.00  0.00     0.019 A 
HETATM   28  C   UNL     1      40.955 -12.238  -3.022  1.00  0.00     0.004 A 
HETATM   29  C   UNL     1      41.305 -11.640  -1.816  1.00  0.00     0.034 A 
ENDBRANCH  19  24
ENDBRANCH  14  18
ENDBRANCH   6  12
ENDBRANCH   4   5
ENDBRANCH   3   4
TORSDOF 5
ENDMDL
MODEL 5
REMARK VINA RESULT:      -7.4     14.041     16.679
REMARK  5 active torsions:
REMARK  status: ('A' for Active; 'I' for Inactive)
REMARK    1  A    between atoms: C_3  and  O_4 
REMARK    2  A    between atoms: O_4  and  C_5 
REMARK    3  A    between atoms: C_6  and  N_7 
REMARK       I    between atoms: N_7  and  C_8 
REMARK       I    between atoms: C_8  and  N_9 
REMARK    4  A    between atoms: N_9  and  C_10 
REMARK    5  A    between atoms: C_11  and  C_12 
ROOT
HETATM    1  C   UNL     1      41.619 -31.248   2.048  1.00  0.00     0.014 C 
HETATM    2  C   UNL     1      42.176 -30.332   1.506  1.00  0.00    -0.091 C 
HETATM    3  C   UNL     1      42.852 -29.211   0.844  1.00  0.00     0.268 C 
ENDROOT
BRANCH   3   4
HETATM    4  O   UNL     1      44.157 -29.630   0.427  1.00  0.00    -0.337 OA
BRANCH   4   5
HETATM    5  C   UNL     1      44.504 -29.163  -0.813  1.00  0.00     0.099 A 
HETATM    6  C   UNL     1      45.586 -28.278  -0.924  1.00  0.00     0.070 A 
HETATM    7  C   UNL     1      46.047 -27.930  -2.205  1.00  0.00     0.035 A 
HETATM    8  C   UNL     1      45.379 -28.371  -3.347  1.00  0.00     0.044 A 
HETATM    9  C   UNL     1      44.258 -29.177  -3.211  1.00  0.00     0.119 A 
HETATM   10  F   UNL     1      43.604 -29.588  -4.304  1.00  0.00    -0.206 F 
HETATM   11  C   UNL     1      43.816 -29.580  -1.958  1.00  0.00     0.081 A 
BRANCH   6  12
HETATM   12  N   UNL     1      46.314 -27.744   0.155  1.00  0.00    -0.306 N 
HETATM   13  C   UNL     1      47.340 -28.228   0.914  1.00  0.00     0.325 C 
HETATM   14  N   UNL     1      47.802 -29.487   0.671  1.00  0.00    -0.305 N 
HETATM   15  O   UNL     1      47.685 -27.517   1.863  1.00  0.00    -0.247 OA
HETATM   16  H   UNL     1      47.740 -29.861  -0.274  1.00  0.00     0.171 HD
HETATM   17  H   UNL     1      45.897 -26.958   0.639  1.00  0.00     0.171 HD
BRANCH  14  18
HETATM   18  C   UNL     1      48.540 -30.248   1.571  1.00  0.00     0.086 A 
HETATM   19  C   UNL     1      49.759 -30.973   1.337  1.00  0.00     0.133 A 
HETATM   20  N   UNL     1      50.149 -31.614   2.462  1.00  0.00    -0.171 NA
HETATM   21  N   UNL     1      49.206 -31.312   3.364  1.00  0.00    -0.286 N 
HETATM   22  H   UNL     1      49.291 -31.700   4.296  1.00  0.00     0.188 HD
HETATM   23  C   UNL     1      48.229 -30.503   2.885  1.00  0.00     0.141 A 
BRANCH  19  24
HETATM   24  C   UNL     1      50.552 -31.057   0.101  1.00  0.00     0.089 A 
HETATM   25  N   UNL     1      50.228 -30.200  -0.903  1.00  0.00    -0.259 NA
HETATM   26  C   UNL     1      50.972 -30.263  -2.030  1.00  0.00     0.117 A 
HETATM   27  C   UNL     1      52.027 -31.139  -2.219  1.00  0.00     0.019 A 
HETATM   28  C   UNL     1      52.341 -32.014  -1.189  1.00  0.00     0.004 A 
HETATM   29  C   UNL     1      51.596 -31.976  -0.014  1.00  0.00     0.034 A 
ENDBRANCH  19  24
ENDBRANCH  14  18
ENDBRANCH   6  12
ENDBRANCH   4   5
ENDBRANCH   3   4
TORSDOF 5
ENDMDL
MODEL 6
REMARK VINA RESULT:      -7.2      4.436      7.400
REMARK  5 active torsions:
REMARK  status: ('A' for Active; 'I' for Inactive)
REMARK    1  A    between atoms: C_3  and  O_4 
REMARK    2  A    between atoms: O_4  and  C_5 
REMARK    3  A    between atoms: C_6  and  N_7 
REMARK       I    between atoms: N_7  and  C_8 
REMARK       I    between atoms: C_8  and  N_9 
REMARK    4  A    between atoms: N_9  and  C_10 
REMARK    5  A    between atoms: C_11  and  C_12 
ROOT
HETATM    1  C   UNL     1      37.307  -8.831   1.345  1.00  0.00     0.014 C 
HETATM    2  C   UNL     1      38.169  -9.545   0.912  1.00  0.00    -0.091 C 
HETATM    3  C   UNL     1      39.224 -10.415   0.379  1.00  0.00     0.268 C 
ENDROOT
BRANCH   3   4
HETATM    4  O   UNL     1      38.862 -11.783   0.602  1.00  0.00    -0.337 OA
BRANCH   4   5
HETATM    5  C   UNL     1      38.894 -12.542  -0.536  1.00  0.00     0.099 A 
HETATM    6  C   UNL     1      40.026 -13.331  -0.793  1.00  0.00     0.070 A 
HETATM    7  C   UNL     1      39.991 -14.233  -1.868  1.00  0.00     0.035 A 
HETATM    8  C   UNL     1      38.896 -14.275  -2.730  1.00  0.00     0.044 A 
HETATM    9  C   UNL     1      37.823 -13.425  -2.507  1.00  0.00     0.119 A 
HETATM   10  F   UNL     1      36.776 -13.449  -3.343  1.00  0.00    -0.206 F 
HETATM   11  C   UNL     1      37.807 -12.563  -1.419  1.00  0.00     0.081 A 
BRANCH   6  12
HETATM   12  N   UNL     1      41.196 -13.349  -0.014  1.00  0.00    -0.306 N 
HETATM   13  C   UNL     1      41.452 -13.731   1.272  1.00  0.00     0.325 C 
HETATM   14  N   UNL     1      40.420 -14.170   2.046  1.00  0.00    -0.305 N 
HETATM   15  O   UNL     1      42.600 -13.520   1.674  1.00  0.00    -0.247 OA
HETATM   16  H   UNL     1      39.630 -14.632   1.598  1.00  0.00     0.171 HD
HETATM   17  H   UNL     1      41.969 -12.780  -0.341  1.00  0.00     0.171 HD
BRANCH  14  18
HETATM   18  C   UNL     1      40.435 -14.220   3.435  1.00  0.00     0.086 A 
HETATM   19  C   UNL     1      41.118 -15.153   4.288  1.00  0.00     0.133 A 
HETATM   20  N   UNL     1      40.858 -14.883   5.586  1.00  0.00    -0.171 NA
HETATM   21  N   UNL     1      40.035 -13.827   5.551  1.00  0.00    -0.286 N 
HETATM   22  H   UNL     1      39.696 -13.451   6.429  1.00  0.00     0.188 HD
HETATM   23  C   UNL     1      39.753 -13.394   4.297  1.00  0.00     0.141 A 
BRANCH  19  24
HETATM   24  C   UNL     1      42.006 -16.263   3.905  1.00  0.00     0.089 A 
HETATM   25  N   UNL     1      41.795 -16.836   2.691  1.00  0.00    -0.259 NA
HETATM   26  C   UNL     1      42.624 -17.840   2.332  1.00  0.00     0.117 A 
HETATM   27  C   UNL     1      43.659 -18.314   3.119  1.00  0.00     0.019 A 
HETATM   28  C   UNL     1      43.858 -17.726   4.360  1.00  0.00     0.004 A 
HETATM   29  C   UNL     1      43.022 -16.688   4.762  1.00  0.00     0.034 A 
ENDBRANCH  19  24
ENDBRANCH  14  18
ENDBRANCH   6  12
ENDBRANCH   4   5
ENDBRANCH   3   4
TORSDOF 5
ENDMDL
MODEL 7
REMARK VINA RESULT:      -7.2      3.006      4.824
REMARK  5 active torsions:
REMARK  status: ('A' for Active; 'I' for Inactive)
REMARK    1  A    between atoms: C_3  and  O_4 
REMARK    2  A    between atoms: O_4  and  C_5 
REMARK    3  A    between atoms: C_6  and  N_7 
REMARK       I    between atoms: N_7  and  C_8 
REMARK       I    between atoms: C_8  and  N_9 
REMARK    4  A    between atoms: N_9  and  C_10 
REMARK    5  A    between atoms: C_11  and  C_12 
ROOT
HETATM    1  C   UNL     1      43.197 -15.701   8.269  1.00  0.00     0.014 C 
HETATM    2  C   UNL     1      42.544 -15.503   7.281  1.00  0.00    -0.091 C 
HETATM    3  C   UNL     1      41.743 -15.265   6.075  1.00  0.00     0.268 C 
ENDROOT
BRANCH   3   4
HETATM    4  O   UNL     1      42.505 -14.475   5.154  1.00  0.00    -0.337 OA
BRANCH   4   5
HETATM    5  C   UNL     1      42.707 -15.094   3.950  1.00  0.00     0.099 A 
HETATM    6  C   UNL     1      42.972 -14.306   2.819  1.00  0.00     0.070 A 
HETATM    7  C   UNL     1      43.343 -14.942   1.624  1.00  0.00     0.035 A 
HETATM    8  C   UNL     1      43.348 -16.333   1.527  1.00  0.00     0.044 A 
HETATM    9  C   UNL     1      42.999 -17.093   2.634  1.00  0.00     0.119 A 
HETATM   10  F   UNL     1      42.985 -18.429   2.541  1.00  0.00    -0.206 F 
HETATM   11  C   UNL     1      42.683 -16.490   3.844  1.00  0.00     0.081 A 
BRANCH   6  12
HETATM   12  N   UNL     1      42.965 -12.900   2.790  1.00  0.00    -0.306 N 
HETATM   13  C   UNL     1      41.966 -11.974   2.874  1.00  0.00     0.325 C 
HETATM   14  N   UNL     1      40.677 -12.403   2.980  1.00  0.00    -0.305 N 
HETATM   15  O   UNL     1      42.311 -10.799   2.713  1.00  0.00    -0.247 OA
HETATM   16  H   UNL     1      40.490 -13.294   3.436  1.00  0.00     0.171 HD
HETATM   17  H   UNL     1      43.793 -12.449   2.418  1.00  0.00     0.171 HD
BRANCH  14  18
HETATM   18  C   UNL     1      39.557 -11.631   2.689  1.00  0.00     0.086 A 
HETATM   19  C   UNL     1      38.772 -11.615   1.486  1.00  0.00     0.133 A 
HETATM   20  N   UNL     1      37.781 -10.702   1.582  1.00  0.00    -0.171 NA
HETATM   21  N   UNL     1      37.943 -10.157   2.794  1.00  0.00    -0.286 N 
HETATM   22  H   UNL     1      37.303  -9.426   3.083  1.00  0.00     0.188 HD
HETATM   23  C   UNL     1      38.984 -10.675   3.493  1.00  0.00     0.141 A 
BRANCH  19  24
HETATM   24  C   UNL     1      38.930 -12.441   0.278  1.00  0.00     0.089 A 
HETATM   25  N   UNL     1      39.779 -13.499   0.356  1.00  0.00    -0.259 NA
HETATM   26  C   UNL     1      39.907 -14.269  -0.746  1.00  0.00     0.117 A 
HETATM   27  C   UNL     1      39.234 -14.044  -1.935  1.00  0.00     0.019 A 
HETATM   28  C   UNL     1      38.376 -12.956  -2.004  1.00  0.00     0.004 A 
HETATM   29  C   UNL     1      38.221 -12.141  -0.886  1.00  0.00     0.034 A 
ENDBRANCH  19  24
ENDBRANCH  14  18
ENDBRANCH   6  12
ENDBRANCH   4   5
ENDBRANCH   3   4
TORSDOF 5
ENDMDL
MODEL 8
REMARK VINA RESULT:      -7.2      3.822      7.048
REMARK  5 active torsions:
REMARK  status: ('A' for Active; 'I' for Inactive)
REMARK    1  A    between atoms: C_3  and  O_4 
REMARK    2  A    between atoms: O_4  and  C_5 
REMARK    3  A    between atoms: C_6  and  N_7 
REMARK       I    between atoms: N_7  and  C_8 
REMARK       I    between atoms: C_8  and  N_9 
REMARK    4  A    between atoms: N_9  and  C_10 
REMARK    5  A    between atoms: C_11  and  C_12 
ROOT
HETATM    1  C   UNL     1      35.767  -9.720   0.796  1.00  0.00     0.014 C 
HETATM    2  C   UNL     1      36.895 -10.126   0.733  1.00  0.00    -0.091 C 
HETATM    3  C   UNL     1      38.274 -10.622   0.651  1.00  0.00     0.268 C 
ENDROOT
BRANCH   3   4
HETATM    4  O   UNL     1      38.568 -11.389   1.824  1.00  0.00    -0.337 OA
BRANCH   4   5
HETATM    5  C   UNL     1      39.194 -12.576   1.551  1.00  0.00     0.099 A 
HETATM    6  C   UNL     1      39.430 -13.474   2.603  1.00  0.00     0.070 A 
HETATM    7  C   UNL     1      39.918 -14.756   2.300  1.00  0.00     0.035 A 
HETATM    8  C   UNL     1      40.262 -15.099   0.993  1.00  0.00     0.044 A 
HETATM    9  C   UNL     1      40.100 -14.164  -0.019  1.00  0.00     0.119 A 
HETATM   10  F   UNL     1      40.446 -14.483  -1.273  1.00  0.00    -0.206 F 
HETATM   11  C   UNL     1      39.567 -12.910   0.244  1.00  0.00     0.081 A 
BRANCH   6  12
HETATM   12  N   UNL     1      39.154 -13.227   3.959  1.00  0.00    -0.306 N 
HETATM   13  C   UNL     1      39.924 -12.795   5.001  1.00  0.00     0.325 C 
HETATM   14  N   UNL     1      41.248 -12.556   4.787  1.00  0.00    -0.305 N 
HETATM   15  O   UNL     1      39.370 -12.779   6.105  1.00  0.00    -0.247 OA
HETATM   16  H   UNL     1      41.552 -12.257   3.862  1.00  0.00     0.171 HD
HETATM   17  H   UNL     1      38.307 -13.639   4.333  1.00  0.00     0.171 HD
BRANCH  14  18
HETATM   18  C   UNL     1      42.215 -12.496   5.784  1.00  0.00     0.086 A 
HETATM   19  C   UNL     1      43.087 -13.540   6.247  1.00  0.00     0.133 A 
HETATM   20  N   UNL     1      43.866 -13.090   7.256  1.00  0.00    -0.171 NA
HETATM   21  N   UNL     1      43.490 -11.817   7.428  1.00  0.00    -0.286 N 
HETATM   22  H   UNL     1      43.944 -11.275   8.155  1.00  0.00     0.188 HD
HETATM   23  C   UNL     1      42.513 -11.414   6.578  1.00  0.00     0.141 A 
BRANCH  19  24
HETATM   24  C   UNL     1      43.206 -14.920   5.752  1.00  0.00     0.089 A 
HETATM   25  N   UNL     1      42.334 -15.310   4.785  1.00  0.00    -0.259 NA
HETATM   26  C   UNL     1      42.458 -16.571   4.316  1.00  0.00     0.117 A 
HETATM   27  C   UNL     1      43.406 -17.477   4.759  1.00  0.00     0.019 A 
HETATM   28  C   UNL     1      44.285 -17.069   5.753  1.00  0.00     0.004 A 
HETATM   29  C   UNL     1      44.185 -15.776   6.259  1.00  0.00     0.034 A 
ENDBRANCH  19  24
ENDBRANCH  14  18
ENDBRANCH   6  12
ENDBRANCH   4   5
ENDBRANCH   3   4
TORSDOF 5
ENDMDL
MODEL 9
REMARK VINA RESULT:      -7.1      3.697      7.000
REMARK  5 active torsions:
REMARK  status: ('A' for Active; 'I' for Inactive)
REMARK    1  A    between atoms: C_3  and  O_4 
REMARK    2  A    between atoms: O_4  and  C_5 
REMARK    3  A    between atoms: C_6  and  N_7 
REMARK       I    between atoms: N_7  and  C_8 
REMARK       I    between atoms: C_8  and  N_9 
REMARK    4  A    between atoms: N_9  and  C_10 
REMARK    5  A    between atoms: C_11  and  C_12 
ROOT
HETATM    1  C   UNL     1      39.252  -9.155   9.386  1.00  0.00     0.014 C 
HETATM    2  C   UNL     1      40.246  -9.035   8.725  1.00  0.00    -0.091 C 
HETATM    3  C   UNL     1      41.461  -8.884   7.916  1.00  0.00     0.268 C 
ENDROOT
BRANCH   3   4
HETATM    4  O   UNL     1      41.658 -10.070   7.137  1.00  0.00    -0.337 OA
BRANCH   4   5
HETATM    5  C   UNL     1      42.941 -10.546   7.193  1.00  0.00     0.099 A 
HETATM    6  C   UNL     1      43.178 -11.891   6.871  1.00  0.00     0.070 A 
HETATM    7  C   UNL     1      44.505 -12.337   6.766  1.00  0.00     0.035 A 
HETATM    8  C   UNL     1      45.569 -11.492   7.077  1.00  0.00     0.044 A 
HETATM    9  C   UNL     1      45.308 -10.189   7.477  1.00  0.00     0.119 A 
HETATM   10  F   UNL     1      46.325  -9.379   7.794  1.00  0.00    -0.206 F 
HETATM   11  C   UNL     1      44.007  -9.706   7.535  1.00  0.00     0.081 A 
BRANCH   6  12
HETATM   12  N   UNL     1      42.185 -12.841   6.571  1.00  0.00    -0.306 N 
HETATM   13  C   UNL     1      41.962 -13.641   5.487  1.00  0.00     0.325 C 
HETATM   14  N   UNL     1      42.800 -13.550   4.417  1.00  0.00    -0.305 N 
HETATM   15  O   UNL     1      40.919 -14.303   5.517  1.00  0.00    -0.247 OA
HETATM   16  H   UNL     1      43.770 -13.281   4.572  1.00  0.00     0.171 HD
HETATM   17  H   UNL     1      41.338 -12.804   7.125  1.00  0.00     0.171 HD
BRANCH  14  18
HETATM   18  C   UNL     1      42.496 -13.986   3.132  1.00  0.00     0.086 A 
HETATM   19  C   UNL     1      42.720 -15.282   2.553  1.00  0.00     0.133 A 
HETATM   20  N   UNL     1      42.312 -15.299   1.264  1.00  0.00    -0.171 NA
HETATM   21  N   UNL     1      41.860 -14.059   1.039  1.00  0.00    -0.286 N 
HETATM   22  H   UNL     1      41.505 -13.836   0.116  1.00  0.00     0.188 HD
HETATM   23  C   UNL     1      41.946 -13.240   2.117  1.00  0.00     0.141 A 
BRANCH  19  24
HETATM   24  C   UNL     1      43.287 -16.483   3.187  1.00  0.00     0.089 A 
HETATM   25  N   UNL     1      43.707 -16.366   4.474  1.00  0.00    -0.259 NA
HETATM   26  C   UNL     1      44.207 -17.474   5.062  1.00  0.00     0.117 A 
HETATM   27  C   UNL     1      44.317 -18.705   4.437  1.00  0.00     0.019 A 
HETATM   28  C   UNL     1      43.892 -18.809   3.120  1.00  0.00     0.004 A 
HETATM   29  C   UNL     1      43.372 -17.685   2.484  1.00  0.00     0.034 A 
ENDBRANCH  19  24
ENDBRANCH  14  18
ENDBRANCH   6  12
ENDBRANCH   4   5
ENDBRANCH   3   4
TORSDOF 5
ENDMDL
MODEL 10
REMARK VINA RESULT:      -7.1      2.522      4.605
REMARK  5 active torsions:
REMARK  status: ('A' for Active; 'I' for Inactive)
REMARK    1  A    between atoms: C_3  and  O_4 
REMARK    2  A    between atoms: O_4  and  C_5 
REMARK    3  A    between atoms: C_6  and  N_7 
REMARK       I    between atoms: N_7  and  C_8 
REMARK       I    between atoms: C_8  and  N_9 
REMARK    4  A    between atoms: N_9  and  C_10 
REMARK    5  A    between atoms: C_11  and  C_12 
ROOT
HETATM    1  C   UNL     1      39.824 -14.050   0.011  1.00  0.00     0.014 C 
HETATM    2  C   UNL     1      40.701 -14.570   0.644  1.00  0.00    -0.091 C 
HETATM    3  C   UNL     1      41.777 -15.204   1.415  1.00  0.00     0.268 C 
ENDROOT
BRANCH   3   4
HETATM    4  O   UNL     1      41.213 -16.193   2.284  1.00  0.00    -0.337 OA
BRANCH   4   5
HETATM    5  C   UNL     1      42.155 -16.909   2.973  1.00  0.00     0.099 A 
HETATM    6  C   UNL     1      42.256 -16.735   4.361  1.00  0.00     0.070 A 
HETATM    7  C   UNL     1      43.103 -17.585   5.090  1.00  0.00     0.035 A 
HETATM    8  C   UNL     1      43.911 -18.517   4.438  1.00  0.00     0.044 A 
HETATM    9  C   UNL     1      43.858 -18.613   3.055  1.00  0.00     0.119 A 
HETATM   10  F   UNL     1      44.645 -19.494   2.424  1.00  0.00    -0.206 F 
HETATM   11  C   UNL     1      42.988 -17.823   2.316  1.00  0.00     0.081 A 
BRANCH   6  12
HETATM   12  N   UNL     1      41.518 -15.808   5.119  1.00  0.00    -0.306 N 
HETATM   13  C   UNL     1      41.750 -14.514   5.489  1.00  0.00     0.325 C 
HETATM   14  N   UNL     1      42.922 -13.925   5.121  1.00  0.00    -0.305 N 
HETATM   15  O   UNL     1      40.916 -14.018   6.252  1.00  0.00    -0.247 OA
HETATM   16  H   UNL     1      43.375 -14.224   4.259  1.00  0.00     0.171 HD
HETATM   17  H   UNL     1      40.782 -16.184   5.705  1.00  0.00     0.171 HD
BRANCH  14  18
HETATM   18  C   UNL     1      43.466 -12.796   5.724  1.00  0.00     0.086 A 
HETATM   19  C   UNL     1      43.328 -11.421   5.334  1.00  0.00     0.133 A 
HETATM   20  N   UNL     1      44.037 -10.622   6.162  1.00  0.00    -0.171 NA
HETATM   21  N   UNL     1      44.607 -11.464   7.033  1.00  0.00    -0.286 N 
HETATM   22  H   UNL     1      45.205 -11.077   7.755  1.00  0.00     0.188 HD
HETATM   23  C   UNL     1      44.300 -12.767   6.817  1.00  0.00     0.141 A 
BRANCH  19  24
HETATM   24  C   UNL     1      42.542 -10.858   4.224  1.00  0.00     0.089 A 
HETATM   25  N   UNL     1      41.769  -9.775   4.497  1.00  0.00    -0.259 NA
HETATM   26  C   UNL     1      41.064  -9.246   3.473  1.00  0.00     0.117 A 
HETATM   27  C   UNL     1      41.082  -9.740   2.179  1.00  0.00     0.019 A 
HETATM   28  C   UNL     1      41.870 -10.851   1.915  1.00  0.00     0.004 A 
HETATM   29  C   UNL     1      42.608 -11.421   2.948  1.00  0.00     0.034 A 
ENDBRANCH  19  24
ENDBRANCH  14  18
ENDBRANCH   6  12
ENDBRANCH   4   5
ENDBRANCH   3   4
TORSDOF 5
ENDMDL
