MODEL 1
REMARK VINA RESULT:      -8.3      0.000      0.000
REMARK  8 active torsions:
REMARK  status: ('A' for Active; 'I' for Inactive)
REMARK    1  A    between atoms: C_9  and  S_10 
REMARK    2  A    between atoms: S_10  and  C_11 
REMARK    3  A    between atoms: C_11  and  C_12 
REMARK       I    between atoms: C_12  and  N_13 
REMARK    4  A    between atoms: N_13  and  C_14 
REMARK    5  A    between atoms: C_15  and  O_16 
REMARK    6  A    between atoms: C_20  and  O_21 
REMARK    7  A    between atoms: N_25  and  C_26 
REMARK    8  A    between atoms: C_33  and  N_34 
ROOT
HETATM    1  C   UNL     1      43.873 -18.804   5.331  1.00  0.00     0.073 C 
HETATM    2  C   UNL     1      43.178 -17.601   5.860  1.00  0.00     0.068 A 
HETATM    3  N   UNL     1      43.177 -17.378   7.181  1.00  0.00    -0.177 NA
HETATM    4  N   UNL     1      42.495 -16.232   7.328  1.00  0.00    -0.260 N 
HETATM    5  H   UNL     1      42.363 -15.842   8.258  1.00  0.00     0.191 HD
HETATM    6  C   UNL     1      42.029 -15.745   6.142  1.00  0.00     0.162 A 
HETATM    7  C   UNL     1      42.453 -16.597   5.148  1.00  0.00     0.081 A 
HETATM    8  N   UNL     1      41.281 -14.659   5.984  1.00  0.00    -0.204 NA
HETATM    9  C   UNL     1      40.941 -14.432   4.710  1.00  0.00     0.177 A 
HETATM   10  N   UNL     1      41.343 -15.201   3.656  1.00  0.00    -0.276 N 
HETATM   11  C   UNL     1      42.107 -16.322   3.813  1.00  0.00     0.124 A 
ENDROOT
BRANCH   9  12
HETATM   12  S   UNL     1      39.743 -13.097   4.509  1.00  0.00    -0.082 SA
BRANCH  12  13
HETATM   13  C   UNL     1      39.928 -12.137   6.063  1.00  0.00     0.185 C 
BRANCH  13  14
HETATM   14  C   UNL     1      41.248 -11.393   6.205  1.00  0.00     0.232 C 
HETATM   15  N   UNL     1      42.230 -12.074   6.916  1.00  0.00    -0.324 N 
HETATM   16  H   UNL     1      42.130 -13.077   6.938  1.00  0.00     0.169 HD
HETATM   17  O   UNL     1      41.392 -10.297   5.665  1.00  0.00    -0.272 OA
BRANCH  15  18
HETATM   18  C   UNL     1      43.547 -11.566   7.009  1.00  0.00     0.071 A 
HETATM   19  C   UNL     1      44.509 -11.790   6.004  1.00  0.00     0.095 A 
HETATM   20  C   UNL     1      45.802 -11.289   6.185  1.00  0.00     0.042 A 
HETATM   21  C   UNL     1      46.128 -10.577   7.343  1.00  0.00     0.039 A 
HETATM   22  C   UNL     1      45.170 -10.353   8.329  1.00  0.00     0.070 A 
HETATM   23  C   UNL     1      43.866 -10.806   8.143  1.00  0.00     0.069 A 
BRANCH  19  24
HETATM   24  O   UNL     1      44.070 -12.420   4.869  1.00  0.00    -0.354 OA
HETATM   25  C   UNL     1      43.954 -11.639   3.687  1.00  0.00     0.210 C 
ENDBRANCH  19  24
BRANCH  22  26
HETATM   26  O   UNL     1      45.581  -9.644   9.422  1.00  0.00    -0.356 OA
HETATM   27  C   UNL     1      44.688  -9.715  10.531  1.00  0.00     0.210 C 
ENDBRANCH  22  26
ENDBRANCH  15  18
ENDBRANCH  13  14
ENDBRANCH  12  13
ENDBRANCH   9  12
BRANCH  10  28
HETATM   28  C   UNL     1      40.988 -14.807   2.321  1.00  0.00     0.043 A 
HETATM   29  C   UNL     1      41.650 -13.715   1.752  1.00  0.00     0.031 A 
HETATM   30  C   UNL     1      41.341 -13.355   0.440  1.00  0.00     0.021 A 
HETATM   31  C   UNL     1      40.390 -14.086  -0.276  1.00  0.00     0.011 A 
HETATM   32 BR   UNL     1      39.976 -13.590  -2.052  1.00  0.00    -0.051 Br
HETATM   33  C   UNL     1      39.745 -15.185   0.301  1.00  0.00     0.021 A 
HETATM   34  C   UNL     1      40.050 -15.561   1.610  1.00  0.00     0.031 A 
ENDBRANCH  10  28
BRANCH  11  35
HETATM   35  N   UNL     1      42.483 -17.137   2.755  1.00  0.00    -0.384 N 
HETATM   36  H   UNL     1      43.237 -16.908   2.119  1.00  0.00     0.157 HD
HETATM   37  H   UNL     1      41.843 -17.848   2.419  1.00  0.00     0.157 HD
ENDBRANCH  11  35
TORSDOF 8
ENDMDL
MODEL 2
REMARK VINA RESULT:      -7.9      2.589      4.000
REMARK  8 active torsions:
REMARK  status: ('A' for Active; 'I' for Inactive)
REMARK    1  A    between atoms: C_9  and  S_10 
REMARK    2  A    between atoms: S_10  and  C_11 
REMARK    3  A    between atoms: C_11  and  C_12 
REMARK       I    between atoms: C_12  and  N_13 
REMARK    4  A    between atoms: N_13  and  C_14 
REMARK    5  A    between atoms: C_15  and  O_16 
REMARK    6  A    between atoms: C_20  and  O_21 
REMARK    7  A    between atoms: N_25  and  C_26 
REMARK    8  A    between atoms: C_33  and  N_34 
ROOT
HETATM    1  C   UNL     1      43.199 -19.157   2.150  1.00  0.00     0.073 C 
HETATM    2  C   UNL     1      43.523 -18.507   3.447  1.00  0.00     0.068 A 
HETATM    3  N   UNL     1      44.088 -19.237   4.418  1.00  0.00    -0.177 NA
HETATM    4  N   UNL     1      44.261 -18.373   5.430  1.00  0.00    -0.260 N 
HETATM    5  H   UNL     1      44.690 -18.693   6.295  1.00  0.00     0.191 HD
HETATM    6  C   UNL     1      43.785 -17.127   5.142  1.00  0.00     0.162 A 
HETATM    7  C   UNL     1      43.298 -17.156   3.855  1.00  0.00     0.081 A 
HETATM    8  N   UNL     1      43.774 -16.086   5.966  1.00  0.00    -0.204 NA
HETATM    9  C   UNL     1      43.218 -14.993   5.429  1.00  0.00     0.177 A 
HETATM   10  N   UNL     1      42.741 -14.919   4.153  1.00  0.00    -0.276 N 
HETATM   11  C   UNL     1      42.744 -15.987   3.303  1.00  0.00     0.124 A 
ENDROOT
BRANCH   9  12
HETATM   12  S   UNL     1      42.991 -13.646   6.609  1.00  0.00    -0.082 SA
BRANCH  12  13
HETATM   13  C   UNL     1      44.643 -12.846   6.648  1.00  0.00     0.185 C 
BRANCH  13  14
HETATM   14  C   UNL     1      44.676 -11.471   7.300  1.00  0.00     0.232 C 
HETATM   15  N   UNL     1      43.461 -11.043   7.823  1.00  0.00    -0.324 N 
HETATM   16  H   UNL     1      42.809 -11.776   8.059  1.00  0.00     0.169 HD
HETATM   17  O   UNL     1      45.739 -10.855   7.375  1.00  0.00    -0.272 OA
BRANCH  15  18
HETATM   18  C   UNL     1      43.372  -9.849   8.578  1.00  0.00     0.071 A 
HETATM   19  C   UNL     1      43.504  -9.839   9.981  1.00  0.00     0.095 A 
HETATM   20  C   UNL     1      43.366  -8.626  10.662  1.00  0.00     0.042 A 
HETATM   21  C   UNL     1      43.103  -7.447   9.958  1.00  0.00     0.039 A 
HETATM   22  C   UNL     1      42.980  -7.464   8.571  1.00  0.00     0.070 A 
HETATM   23  C   UNL     1      43.160  -8.656   7.874  1.00  0.00     0.069 A 
BRANCH  19  24
HETATM   24  O   UNL     1      43.850 -11.027  10.570  1.00  0.00    -0.354 OA
HETATM   25  C   UNL     1      43.591 -11.172  11.960  1.00  0.00     0.210 C 
ENDBRANCH  19  24
BRANCH  22  26
HETATM   26  O   UNL     1      42.726  -6.263   7.971  1.00  0.00    -0.356 OA
HETATM   27  C   UNL     1      41.600  -6.273   7.099  1.00  0.00     0.210 C 
ENDBRANCH  22  26
ENDBRANCH  15  18
ENDBRANCH  13  14
ENDBRANCH  12  13
ENDBRANCH   9  12
BRANCH  10  28
HETATM   28  C   UNL     1      42.247 -13.664   3.658  1.00  0.00     0.043 A 
HETATM   29  C   UNL     1      40.884 -13.387   3.793  1.00  0.00     0.031 A 
HETATM   30  C   UNL     1      40.405 -12.152   3.354  1.00  0.00     0.021 A 
HETATM   31  C   UNL     1      41.287 -11.223   2.796  1.00  0.00     0.011 A 
HETATM   32 BR   UNL     1      40.630  -9.554   2.202  1.00  0.00    -0.051 Br
HETATM   33  C   UNL     1      42.651 -11.508   2.679  1.00  0.00     0.021 A 
HETATM   34  C   UNL     1      43.145 -12.737   3.122  1.00  0.00     0.031 A 
ENDBRANCH  10  28
BRANCH  11  35
HETATM   35  N   UNL     1      42.220 -15.937   2.020  1.00  0.00    -0.384 N 
HETATM   36  H   UNL     1      42.795 -15.880   1.188  1.00  0.00     0.157 HD
HETATM   37  H   UNL     1      41.249 -15.678   1.885  1.00  0.00     0.157 HD
ENDBRANCH  11  35
TORSDOF 8
ENDMDL
MODEL 3
REMARK VINA RESULT:      -7.8      3.000      7.300
REMARK  8 active torsions:
REMARK  status: ('A' for Active; 'I' for Inactive)
REMARK    1  A    between atoms: C_9  and  S_10 
REMARK    2  A    between atoms: S_10  and  C_11 
REMARK    3  A    between atoms: C_11  and  C_12 
REMARK       I    between atoms: C_12  and  N_13 
REMARK    4  A    between atoms: N_13  and  C_14 
REMARK    5  A    between atoms: C_15  and  O_16 
REMARK    6  A    between atoms: C_20  and  O_21 
REMARK    7  A    between atoms: N_25  and  C_26 
REMARK    8  A    between atoms: C_33  and  N_34 
ROOT
HETATM    1  C   UNL     1      42.977  -7.013   9.937  1.00  0.00     0.073 C 
HETATM    2  C   UNL     1      43.546  -8.383   9.846  1.00  0.00     0.068 A 
HETATM    3  N   UNL     1      44.373  -8.809  10.809  1.00  0.00    -0.177 NA
HETATM    4  N   UNL     1      44.693 -10.062  10.447  1.00  0.00    -0.260 N 
HETATM    5  H   UNL     1      45.315 -10.611  11.035  1.00  0.00     0.191 HD
HETATM    6  C   UNL     1      44.124 -10.425   9.261  1.00  0.00     0.162 A 
HETATM    7  C   UNL     1      43.357  -9.367   8.828  1.00  0.00     0.081 A 
HETATM    8  N   UNL     1      44.302 -11.581   8.632  1.00  0.00    -0.204 NA
HETATM    9  C   UNL     1      43.644 -11.655   7.468  1.00  0.00     0.177 A 
HETATM   10  N   UNL     1      42.835 -10.673   6.976  1.00  0.00    -0.276 N 
HETATM   11  C   UNL     1      42.653  -9.480   7.615  1.00  0.00     0.124 A 
ENDROOT
BRANCH   9  12
HETATM   12  S   UNL     1      44.056 -13.121   6.499  1.00  0.00    -0.082 SA
BRANCH  12  13
HETATM   13  C   UNL     1      42.879 -14.380   7.132  1.00  0.00     0.185 C 
BRANCH  13  14
HETATM   14  C   UNL     1      42.651 -15.568   6.208  1.00  0.00     0.232 C 
HETATM   15  N   UNL     1      43.581 -15.698   5.183  1.00  0.00    -0.324 N 
HETATM   16  H   UNL     1      44.476 -15.265   5.352  1.00  0.00     0.169 HD
HETATM   17  O   UNL     1      41.727 -16.349   6.434  1.00  0.00    -0.272 OA
BRANCH  15  18
HETATM   18  C   UNL     1      43.575 -16.829   4.332  1.00  0.00     0.071 A 
HETATM   19  C   UNL     1      43.015 -16.791   3.040  1.00  0.00     0.095 A 
HETATM   20  C   UNL     1      43.011 -17.959   2.272  1.00  0.00     0.042 A 
HETATM   21  C   UNL     1      43.557 -19.141   2.781  1.00  0.00     0.039 A 
HETATM   22  C   UNL     1      44.116 -19.169   4.057  1.00  0.00     0.070 A 
HETATM   23  C   UNL     1      44.168 -18.003   4.817  1.00  0.00     0.069 A 
BRANCH  19  24
HETATM   24  O   UNL     1      42.586 -15.567   2.596  1.00  0.00    -0.354 OA
HETATM   25  C   UNL     1      41.204 -15.267   2.729  1.00  0.00     0.210 C 
ENDBRANCH  19  24
BRANCH  22  26
HETATM   26  O   UNL     1      44.629 -20.368   4.467  1.00  0.00    -0.356 OA
HETATM   27  C   UNL     1      43.949 -20.942   5.580  1.00  0.00     0.210 C 
ENDBRANCH  22  26
ENDBRANCH  15  18
ENDBRANCH  13  14
ENDBRANCH  12  13
ENDBRANCH   9  12
BRANCH  10  28
HETATM   28  C   UNL     1      42.110 -10.902   5.758  1.00  0.00     0.043 A 
HETATM   29  C   UNL     1      42.727 -10.580   4.546  1.00  0.00     0.031 A 
HETATM   30  C   UNL     1      42.046 -10.842   3.357  1.00  0.00     0.021 A 
HETATM   31  C   UNL     1      40.774 -11.418   3.397  1.00  0.00     0.011 A 
HETATM   32 BR   UNL     1      39.857 -11.766   1.781  1.00  0.00    -0.051 Br
HETATM   33  C   UNL     1      40.173 -11.747   4.615  1.00  0.00     0.021 A 
HETATM   34  C   UNL     1      40.847 -11.498   5.813  1.00  0.00     0.031 A 
ENDBRANCH  10  28
BRANCH  11  35
HETATM   35  N   UNL     1      41.871  -8.457   7.102  1.00  0.00    -0.384 N 
HETATM   36  H   UNL     1      42.209  -7.510   6.974  1.00  0.00     0.157 HD
HETATM   37  H   UNL     1      40.861  -8.552   7.097  1.00  0.00     0.157 HD
ENDBRANCH  11  35
TORSDOF 8
ENDMDL
MODEL 4
REMARK VINA RESULT:      -7.7      2.687      3.915
REMARK  8 active torsions:
REMARK  status: ('A' for Active; 'I' for Inactive)
REMARK    1  A    between atoms: C_9  and  S_10 
REMARK    2  A    between atoms: S_10  and  C_11 
REMARK    3  A    between atoms: C_11  and  C_12 
REMARK       I    between atoms: C_12  and  N_13 
REMARK    4  A    between atoms: N_13  and  C_14 
REMARK    5  A    between atoms: C_15  and  O_16 
REMARK    6  A    between atoms: C_20  and  O_21 
REMARK    7  A    between atoms: N_25  and  C_26 
REMARK    8  A    between atoms: C_33  and  N_34 
ROOT
HETATM    1  C   UNL     1      43.206 -18.548   2.617  1.00  0.00     0.073 C 
HETATM    2  C   UNL     1      43.522 -17.724   3.814  1.00  0.00     0.068 A 
HETATM    3  N   UNL     1      44.158 -18.293   4.846  1.00  0.00    -0.177 NA
HETATM    4  N   UNL     1      44.303 -17.302   5.739  1.00  0.00    -0.260 N 
HETATM    5  H   UNL     1      44.774 -17.486   6.621  1.00  0.00     0.191 HD
HETATM    6  C   UNL     1      43.740 -16.132   5.319  1.00  0.00     0.162 A 
HETATM    7  C   UNL     1      43.222 -16.350   4.062  1.00  0.00     0.081 A 
HETATM    8  N   UNL     1      43.684 -15.000   6.010  1.00  0.00    -0.204 NA
HETATM    9  C   UNL     1      43.044 -14.018   5.364  1.00  0.00     0.177 A 
HETATM   10  N   UNL     1      42.530 -14.130   4.105  1.00  0.00    -0.276 N 
HETATM   11  C   UNL     1      42.579 -15.293   3.391  1.00  0.00     0.124 A 
ENDROOT
BRANCH   9  12
HETATM   12  S   UNL     1      42.762 -12.551   6.379  1.00  0.00    -0.082 SA
BRANCH  12  13
HETATM   13  C   UNL     1      44.425 -12.202   7.074  1.00  0.00     0.185 C 
BRANCH  13  14
HETATM   14  C   UNL     1      44.461 -11.114   8.138  1.00  0.00     0.232 C 
HETATM   15  N   UNL     1      43.240 -10.494   8.381  1.00  0.00    -0.324 N 
HETATM   16  H   UNL     1      42.424 -11.035   8.140  1.00  0.00     0.169 HD
HETATM   17  O   UNL     1      45.509 -10.882   8.739  1.00  0.00    -0.272 OA
BRANCH  15  18
HETATM   18  C   UNL     1      43.093  -9.563   9.437  1.00  0.00     0.071 A 
HETATM   19  C   UNL     1      43.202  -8.174   9.229  1.00  0.00     0.095 A 
HETATM   20  C   UNL     1      43.083  -7.317  10.328  1.00  0.00     0.042 A 
HETATM   21  C   UNL     1      42.859  -7.835  11.607  1.00  0.00     0.039 A 
HETATM   22  C   UNL     1      42.746  -9.209  11.803  1.00  0.00     0.070 A 
HETATM   23  C   UNL     1      42.816 -10.073  10.712  1.00  0.00     0.069 A 
BRANCH  19  24
HETATM   24  O   UNL     1      43.332  -7.759   7.929  1.00  0.00    -0.354 OA
HETATM   25  C   UNL     1      42.206  -7.142   7.320  1.00  0.00     0.210 C 
ENDBRANCH  19  24
BRANCH  22  26
HETATM   26  O   UNL     1      42.523  -9.622  13.087  1.00  0.00    -0.356 OA
HETATM   27  C   UNL     1      41.198  -9.385  13.553  1.00  0.00     0.210 C 
ENDBRANCH  22  26
ENDBRANCH  15  18
ENDBRANCH  13  14
ENDBRANCH  12  13
ENDBRANCH   9  12
BRANCH  10  28
HETATM   28  C   UNL     1      41.943 -12.979   3.478  1.00  0.00     0.043 A 
HETATM   29  C   UNL     1      40.563 -12.787   3.598  1.00  0.00     0.031 A 
HETATM   30  C   UNL     1      39.994 -11.648   3.030  1.00  0.00     0.021 A 
HETATM   31  C   UNL     1      40.803 -10.726   2.360  1.00  0.00     0.011 A 
HETATM   32 BR   UNL     1      40.022  -9.187   1.590  1.00  0.00    -0.051 Br
HETATM   33  C   UNL     1      42.183 -10.924   2.259  1.00  0.00     0.021 A 
HETATM   34  C   UNL     1      42.768 -12.055   2.831  1.00  0.00     0.031 A 
ENDBRANCH  10  28
BRANCH  11  35
HETATM   35  N   UNL     1      42.019 -15.433   2.131  1.00  0.00    -0.384 N 
HETATM   36  H   UNL     1      41.694 -14.649   1.577  1.00  0.00     0.157 HD
HETATM   37  H   UNL     1      41.665 -16.337   1.837  1.00  0.00     0.157 HD
ENDBRANCH  11  35
TORSDOF 8
ENDMDL
MODEL 5
REMARK VINA RESULT:      -7.6      3.373      7.367
REMARK  8 active torsions:
REMARK  status: ('A' for Active; 'I' for Inactive)
REMARK    1  A    between atoms: C_9  and  S_10 
REMARK    2  A    between atoms: S_10  and  C_11 
REMARK    3  A    between atoms: C_11  and  C_12 
REMARK       I    between atoms: C_12  and  N_13 
REMARK    4  A    between atoms: N_13  and  C_14 
REMARK    5  A    between atoms: C_15  and  O_16 
REMARK    6  A    between atoms: C_20  and  O_21 
REMARK    7  A    between atoms: N_25  and  C_26 
REMARK    8  A    between atoms: C_33  and  N_34 
ROOT
HETATM    1  C   UNL     1      45.088 -10.582   8.214  1.00  0.00     0.073 C 
HETATM    2  C   UNL     1      43.797 -10.404   7.500  1.00  0.00     0.068 A 
HETATM    3  N   UNL     1      43.102  -9.273   7.682  1.00  0.00    -0.177 NA
HETATM    4  N   UNL     1      42.018  -9.416   6.904  1.00  0.00    -0.260 N 
HETATM    5  H   UNL     1      41.328  -8.670   6.863  1.00  0.00     0.191 HD
HETATM    6  C   UNL     1      41.987 -10.622   6.265  1.00  0.00     0.162 A 
HETATM    7  C   UNL     1      43.131 -11.305   6.613  1.00  0.00     0.081 A 
HETATM    8  N   UNL     1      41.016 -11.060   5.473  1.00  0.00    -0.204 NA
HETATM    9  C   UNL     1      41.233 -12.296   5.005  1.00  0.00     0.177 A 
HETATM   10  N   UNL     1      42.351 -13.033   5.267  1.00  0.00    -0.276 N 
HETATM   11  C   UNL     1      43.350 -12.590   6.086  1.00  0.00     0.124 A 
ENDROOT
BRANCH   9  12
HETATM   12  S   UNL     1      39.823 -12.989   4.117  1.00  0.00    -0.082 SA
BRANCH  12  13
HETATM   13  C   UNL     1      39.116 -11.529   3.257  1.00  0.00     0.185 C 
BRANCH  13  14
HETATM   14  C   UNL     1      39.165 -11.594   1.736  1.00  0.00     0.232 C 
HETATM   15  N   UNL     1      40.327 -12.148   1.212  1.00  0.00    -0.324 N 
HETATM   16  H   UNL     1      40.829 -12.767   1.830  1.00  0.00     0.169 HD
HETATM   17  O   UNL     1      38.196 -11.217   1.078  1.00  0.00    -0.272 OA
BRANCH  15  18
HETATM   18  C   UNL     1      40.455 -12.397  -0.175  1.00  0.00     0.071 A 
HETATM   19  C   UNL     1      41.120 -11.505  -1.038  1.00  0.00     0.095 A 
HETATM   20  C   UNL     1      41.172 -11.799  -2.404  1.00  0.00     0.042 A 
HETATM   21  C   UNL     1      40.574 -12.962  -2.898  1.00  0.00     0.039 A 
HETATM   22  C   UNL     1      39.924 -13.844  -2.038  1.00  0.00     0.070 A 
HETATM   23  C   UNL     1      39.903 -13.587  -0.669  1.00  0.00     0.069 A 
BRANCH  19  24
HETATM   24  O   UNL     1      41.751 -10.440  -0.448  1.00  0.00    -0.354 OA
HETATM   25  C   UNL     1      41.921  -9.263  -1.225  1.00  0.00     0.210 C 
ENDBRANCH  19  24
BRANCH  22  26
HETATM   26  O   UNL     1      39.373 -14.955  -2.612  1.00  0.00    -0.356 OA
HETATM   27  C   UNL     1      38.195 -14.696  -3.370  1.00  0.00     0.210 C 
ENDBRANCH  22  26
ENDBRANCH  15  18
ENDBRANCH  13  14
ENDBRANCH  12  13
ENDBRANCH   9  12
BRANCH  10  28
HETATM   28  C   UNL     1      42.514 -14.313   4.635  1.00  0.00     0.043 A 
HETATM   29  C   UNL     1      42.996 -14.350   3.323  1.00  0.00     0.031 A 
HETATM   30  C   UNL     1      43.199 -15.590   2.719  1.00  0.00     0.021 A 
HETATM   31  C   UNL     1      42.924 -16.763   3.429  1.00  0.00     0.011 A 
HETATM   32 BR   UNL     1      43.199 -18.439   2.602  1.00  0.00    -0.051 Br
HETATM   33  C   UNL     1      42.455 -16.711   4.745  1.00  0.00     0.021 A 
HETATM   34  C   UNL     1      42.255 -15.476   5.365  1.00  0.00     0.031 A 
ENDBRANCH  10  28
BRANCH  11  35
HETATM   35  N   UNL     1      44.468 -13.349   6.396  1.00  0.00    -0.384 N 
HETATM   36  H   UNL     1      44.430 -14.188   6.963  1.00  0.00     0.157 HD
HETATM   37  H   UNL     1      45.392 -12.943   6.300  1.00  0.00     0.157 HD
ENDBRANCH  11  35
TORSDOF 8
ENDMDL
MODEL 6
REMARK VINA RESULT:      -7.6      3.170      6.913
REMARK  8 active torsions:
REMARK  status: ('A' for Active; 'I' for Inactive)
REMARK    1  A    between atoms: C_9  and  S_10 
REMARK    2  A    between atoms: S_10  and  C_11 
REMARK    3  A    between atoms: C_11  and  C_12 
REMARK       I    between atoms: C_12  and  N_13 
REMARK    4  A    between atoms: N_13  and  C_14 
REMARK    5  A    between atoms: C_15  and  O_16 
REMARK    6  A    between atoms: C_20  and  O_21 
REMARK    7  A    between atoms: N_25  and  C_26 
REMARK    8  A    between atoms: C_33  and  N_34 
ROOT
HETATM    1  C   UNL     1      44.164  -9.001   8.810  1.00  0.00     0.073 C 
HETATM    2  C   UNL     1      44.105 -10.198   7.930  1.00  0.00     0.068 A 
HETATM    3  N   UNL     1      44.957 -11.209   8.148  1.00  0.00    -0.177 NA
HETATM    4  N   UNL     1      44.642 -12.121   7.214  1.00  0.00    -0.260 N 
HETATM    5  H   UNL     1      45.154 -12.999   7.179  1.00  0.00     0.191 HD
HETATM    6  C   UNL     1      43.643 -11.699   6.387  1.00  0.00     0.162 A 
HETATM    7  C   UNL     1      43.248 -10.451   6.815  1.00  0.00     0.081 A 
HETATM    8  N   UNL     1      43.159 -12.365   5.345  1.00  0.00    -0.204 NA
HETATM    9  C   UNL     1      42.200 -11.698   4.691  1.00  0.00     0.177 A 
HETATM   10  N   UNL     1      41.722 -10.475   5.061  1.00  0.00    -0.276 N 
HETATM   11  C   UNL     1      42.219  -9.782   6.128  1.00  0.00     0.124 A 
ENDROOT
BRANCH   9  12
HETATM   12  S   UNL     1      41.697 -12.488   3.148  1.00  0.00    -0.082 SA
BRANCH  12  13
HETATM   13  C   UNL     1      40.442 -13.710   3.698  1.00  0.00     0.185 C 
BRANCH  13  14
HETATM   14  C   UNL     1      40.948 -15.141   3.816  1.00  0.00     0.232 C 
HETATM   15  N   UNL     1      42.231 -15.267   4.338  1.00  0.00    -0.324 N 
HETATM   16  H   UNL     1      42.541 -14.498   4.912  1.00  0.00     0.169 HD
HETATM   17  O   UNL     1      40.212 -16.077   3.506  1.00  0.00    -0.272 OA
BRANCH  15  18
HETATM   18  C   UNL     1      42.777 -16.538   4.633  1.00  0.00     0.071 A 
HETATM   19  C   UNL     1      42.818 -17.049   5.945  1.00  0.00     0.095 A 
HETATM   20  C   UNL     1      43.408 -18.298   6.165  1.00  0.00     0.042 A 
HETATM   21  C   UNL     1      43.945 -19.022   5.097  1.00  0.00     0.039 A 
HETATM   22  C   UNL     1      43.895 -18.514   3.801  1.00  0.00     0.070 A 
HETATM   23  C   UNL     1      43.270 -17.293   3.559  1.00  0.00     0.069 A 
BRANCH  19  24
HETATM   24  O   UNL     1      42.186 -16.307   6.909  1.00  0.00    -0.354 OA
HETATM   25  C   UNL     1      43.001 -15.630   7.856  1.00  0.00     0.210 C 
ENDBRANCH  19  24
BRANCH  22  26
HETATM   26  O   UNL     1      44.442 -19.295   2.822  1.00  0.00    -0.356 OA
HETATM   27  C   UNL     1      43.504 -20.134   2.154  1.00  0.00     0.210 C 
ENDBRANCH  22  26
ENDBRANCH  15  18
ENDBRANCH  13  14
ENDBRANCH  12  13
ENDBRANCH   9  12
BRANCH  10  28
HETATM   28  C   UNL     1      40.627  -9.897   4.333  1.00  0.00     0.043 A 
HETATM   29  C   UNL     1      39.324 -10.199   4.740  1.00  0.00     0.031 A 
HETATM   30  C   UNL     1      38.257  -9.606   4.065  1.00  0.00     0.021 A 
HETATM   31  C   UNL     1      38.506  -8.727   3.007  1.00  0.00     0.011 A 
HETATM   32 BR   UNL     1      37.055  -7.930   2.097  1.00  0.00    -0.051 Br
HETATM   33  C   UNL     1      39.814  -8.423   2.619  1.00  0.00     0.021 A 
HETATM   34  C   UNL     1      40.892  -9.003   3.292  1.00  0.00     0.031 A 
ENDBRANCH  10  28
BRANCH  11  35
HETATM   35  N   UNL     1      41.773  -8.520   6.487  1.00  0.00    -0.384 N 
HETATM   36  H   UNL     1      41.651  -7.765   5.822  1.00  0.00     0.157 HD
HETATM   37  H   UNL     1      41.817  -8.229   7.457  1.00  0.00     0.157 HD
ENDBRANCH  11  35
TORSDOF 8
ENDMDL
MODEL 7
REMARK VINA RESULT:      -7.5      1.595      2.444
REMARK  8 active torsions:
REMARK  status: ('A' for Active; 'I' for Inactive)
REMARK    1  A    between atoms: C_9  and  S_10 
REMARK    2  A    between atoms: S_10  and  C_11 
REMARK    3  A    between atoms: C_11  and  C_12 
REMARK       I    between atoms: C_12  and  N_13 
REMARK    4  A    between atoms: N_13  and  C_14 
REMARK    5  A    between atoms: C_15  and  O_16 
REMARK    6  A    between atoms: C_20  and  O_21 
REMARK    7  A    between atoms: N_25  and  C_26 
REMARK    8  A    between atoms: C_33  and  N_34 
ROOT
HETATM    1  C   UNL     1      43.764 -19.071   5.585  1.00  0.00     0.073 C 
HETATM    2  C   UNL     1      43.427 -17.794   6.269  1.00  0.00     0.068 A 
HETATM    3  N   UNL     1      43.667 -17.675   7.581  1.00  0.00    -0.177 NA
HETATM    4  N   UNL     1      43.274 -16.428   7.883  1.00  0.00    -0.260 N 
HETATM    5  H   UNL     1      43.367 -16.090   8.837  1.00  0.00     0.191 HD
HETATM    6  C   UNL     1      42.755 -15.768   6.807  1.00  0.00     0.162 A 
HETATM    7  C   UNL     1      42.838 -16.613   5.723  1.00  0.00     0.081 A 
HETATM    8  N   UNL     1      42.242 -14.544   6.816  1.00  0.00    -0.204 NA
HETATM    9  C   UNL     1      41.775 -14.158   5.622  1.00  0.00     0.177 A 
HETATM   10  N   UNL     1      41.846 -14.912   4.487  1.00  0.00    -0.276 N 
HETATM   11  C   UNL     1      42.367 -16.174   4.472  1.00  0.00     0.124 A 
ENDROOT
BRANCH   9  12
HETATM   12  S   UNL     1      40.874 -12.595   5.670  1.00  0.00    -0.082 SA
BRANCH  12  13
HETATM   13  C   UNL     1      42.193 -11.347   5.401  1.00  0.00     0.185 C 
BRANCH  13  14
HETATM   14  C   UNL     1      42.459 -10.427   6.585  1.00  0.00     0.232 C 
HETATM   15  N   UNL     1      42.905 -11.068   7.735  1.00  0.00    -0.324 N 
HETATM   16  H   UNL     1      43.354 -11.959   7.588  1.00  0.00     0.169 HD
HETATM   17  O   UNL     1      42.321  -9.211   6.456  1.00  0.00    -0.272 OA
BRANCH  15  18
HETATM   18  C   UNL     1      43.321 -10.329   8.867  1.00  0.00     0.071 A 
HETATM   19  C   UNL     1      44.656 -10.342   9.320  1.00  0.00     0.095 A 
HETATM   20  C   UNL     1      44.985  -9.616  10.469  1.00  0.00     0.042 A 
HETATM   21  C   UNL     1      44.004  -8.891  11.152  1.00  0.00     0.039 A 
HETATM   22  C   UNL     1      42.689  -8.877  10.694  1.00  0.00     0.070 A 
HETATM   23  C   UNL     1      42.354  -9.557   9.525  1.00  0.00     0.069 A 
BRANCH  19  24
HETATM   24  O   UNL     1      45.560 -11.008   8.534  1.00  0.00    -0.354 OA
HETATM   25  C   UNL     1      46.373 -10.232   7.665  1.00  0.00     0.210 C 
ENDBRANCH  19  24
BRANCH  22  26
HETATM   26  O   UNL     1      41.801  -8.137  11.424  1.00  0.00    -0.356 OA
HETATM   27  C   UNL     1      41.252  -8.826  12.544  1.00  0.00     0.210 C 
ENDBRANCH  22  26
ENDBRANCH  15  18
ENDBRANCH  13  14
ENDBRANCH  12  13
ENDBRANCH   9  12
BRANCH  10  28
HETATM   28  C   UNL     1      41.392 -14.356   3.242  1.00  0.00     0.043 A 
HETATM   29  C   UNL     1      42.293 -13.606   2.482  1.00  0.00     0.031 A 
HETATM   30  C   UNL     1      41.872 -13.100   1.252  1.00  0.00     0.021 A 
HETATM   31  C   UNL     1      40.572 -13.351   0.804  1.00  0.00     0.011 A 
HETATM   32 BR   UNL     1      40.010 -12.660  -0.862  1.00  0.00    -0.051 Br
HETATM   33  C   UNL     1      39.685 -14.114   1.570  1.00  0.00     0.021 A 
HETATM   34  C   UNL     1      40.096 -14.633   2.799  1.00  0.00     0.031 A 
ENDBRANCH  10  28
BRANCH  11  35
HETATM   35  N   UNL     1      42.401 -16.967   3.335  1.00  0.00    -0.384 N 
HETATM   36  H   UNL     1      43.200 -17.535   3.079  1.00  0.00     0.157 HD
HETATM   37  H   UNL     1      41.743 -16.794   2.584  1.00  0.00     0.157 HD
ENDBRANCH  11  35
TORSDOF 8
ENDMDL
MODEL 8
REMARK VINA RESULT:      -7.5      3.001      5.072
REMARK  8 active torsions:
REMARK  status: ('A' for Active; 'I' for Inactive)
REMARK    1  A    between atoms: C_9  and  S_10 
REMARK    2  A    between atoms: S_10  and  C_11 
REMARK    3  A    between atoms: C_11  and  C_12 
REMARK       I    between atoms: C_12  and  N_13 
REMARK    4  A    between atoms: N_13  and  C_14 
REMARK    5  A    between atoms: C_15  and  O_16 
REMARK    6  A    between atoms: C_20  and  O_21 
REMARK    7  A    between atoms: N_25  and  C_26 
REMARK    8  A    between atoms: C_33  and  N_34 
ROOT
HETATM    1  C   UNL     1      37.721 -12.281  -1.947  1.00  0.00     0.073 C 
HETATM    2  C   UNL     1      38.197 -11.684  -0.672  1.00  0.00     0.068 A 
HETATM    3  N   UNL     1      37.796 -10.450  -0.341  1.00  0.00    -0.177 NA
HETATM    4  N   UNL     1      38.377 -10.214   0.846  1.00  0.00    -0.260 N 
HETATM    5  H   UNL     1      38.214  -9.328   1.317  1.00  0.00     0.191 HD
HETATM    6  C   UNL     1      39.167 -11.248   1.255  1.00  0.00     0.162 A 
HETATM    7  C   UNL     1      39.080 -12.239   0.304  1.00  0.00     0.081 A 
HETATM    8  N   UNL     1      39.904 -11.278   2.360  1.00  0.00    -0.204 NA
HETATM    9  C   UNL     1      40.607 -12.409   2.497  1.00  0.00     0.177 A 
HETATM   10  N   UNL     1      40.557 -13.457   1.625  1.00  0.00    -0.276 N 
HETATM   11  C   UNL     1      39.806 -13.431   0.484  1.00  0.00     0.124 A 
ENDROOT
BRANCH   9  12
HETATM   12  S   UNL     1      41.780 -12.368   3.868  1.00  0.00    -0.082 SA
BRANCH  12  13
HETATM   13  C   UNL     1      40.927 -11.321   5.112  1.00  0.00     0.185 C 
BRANCH  13  14
HETATM   14  C   UNL     1      41.850 -10.500   6.002  1.00  0.00     0.232 C 
HETATM   15  N   UNL     1      42.285 -11.152   7.151  1.00  0.00    -0.324 N 
HETATM   16  H   UNL     1      42.274 -12.159   7.107  1.00  0.00     0.169 HD
HETATM   17  O   UNL     1      42.191  -9.371   5.652  1.00  0.00    -0.272 OA
BRANCH  15  18
HETATM   18  C   UNL     1      43.253 -10.564   7.999  1.00  0.00     0.071 A 
HETATM   19  C   UNL     1      44.603 -10.969   7.988  1.00  0.00     0.095 A 
HETATM   20  C   UNL     1      45.494 -10.370   8.883  1.00  0.00     0.042 A 
HETATM   21  C   UNL     1      45.049  -9.385   9.770  1.00  0.00     0.039 A 
HETATM   22  C   UNL     1      43.715  -8.985   9.771  1.00  0.00     0.070 A 
HETATM   23  C   UNL     1      42.824  -9.540   8.854  1.00  0.00     0.069 A 
BRANCH  19  24
HETATM   24  O   UNL     1      44.960 -11.875   7.023  1.00  0.00    -0.354 OA
HETATM   25  C   UNL     1      45.560 -11.371   5.838  1.00  0.00     0.210 C 
ENDBRANCH  19  24
BRANCH  22  26
HETATM   26  O   UNL     1      43.374  -8.014  10.670  1.00  0.00    -0.356 OA
HETATM   27  C   UNL     1      43.456  -8.426  12.032  1.00  0.00     0.210 C 
ENDBRANCH  22  26
ENDBRANCH  15  18
ENDBRANCH  13  14
ENDBRANCH  12  13
ENDBRANCH   9  12
BRANCH  10  28
HETATM   28  C   UNL     1      41.288 -14.657   1.923  1.00  0.00     0.043 A 
HETATM   29  C   UNL     1      42.597 -14.773   1.446  1.00  0.00     0.031 A 
HETATM   30  C   UNL     1      43.328 -15.917   1.769  1.00  0.00     0.021 A 
HETATM   31  C   UNL     1      42.747 -16.913   2.559  1.00  0.00     0.011 A 
HETATM   32 BR   UNL     1      43.744 -18.460   2.989  1.00  0.00    -0.051 Br
HETATM   33  C   UNL     1      41.442 -16.778   3.040  1.00  0.00     0.021 A 
HETATM   34  C   UNL     1      40.702 -15.635   2.731  1.00  0.00     0.031 A 
ENDBRANCH  10  28
BRANCH  11  35
HETATM   35  N   UNL     1      39.784 -14.470  -0.433  1.00  0.00    -0.384 N 
HETATM   36  H   UNL     1      39.319 -15.354  -0.259  1.00  0.00     0.157 HD
HETATM   37  H   UNL     1      40.460 -14.487  -1.189  1.00  0.00     0.157 HD
ENDBRANCH  11  35
TORSDOF 8
ENDMDL
MODEL 9
REMARK VINA RESULT:      -7.4      3.737      7.594
REMARK  8 active torsions:
REMARK  status: ('A' for Active; 'I' for Inactive)
REMARK    1  A    between atoms: C_9  and  S_10 
REMARK    2  A    between atoms: S_10  and  C_11 
REMARK    3  A    between atoms: C_11  and  C_12 
REMARK       I    between atoms: C_12  and  N_13 
REMARK    4  A    between atoms: N_13  and  C_14 
REMARK    5  A    between atoms: C_15  and  O_16 
REMARK    6  A    between atoms: C_20  and  O_21 
REMARK    7  A    between atoms: N_25  and  C_26 
REMARK    8  A    between atoms: C_33  and  N_34 
ROOT
HETATM    1  C   UNL     1      40.438  -9.628  -0.188  1.00  0.00     0.073 C 
HETATM    2  C   UNL     1      40.046 -10.813   0.620  1.00  0.00     0.068 A 
HETATM    3  N   UNL     1      39.377 -11.811   0.029  1.00  0.00    -0.177 NA
HETATM    4  N   UNL     1      39.191 -12.715   1.005  1.00  0.00    -0.260 N 
HETATM    5  H   UNL     1      38.704 -13.583   0.798  1.00  0.00     0.191 HD
HETATM    6  C   UNL     1      39.687 -12.298   2.205  1.00  0.00     0.162 A 
HETATM    7  C   UNL     1      40.265 -11.063   2.010  1.00  0.00     0.081 A 
HETATM    8  N   UNL     1      39.603 -12.956   3.356  1.00  0.00    -0.204 NA
HETATM    9  C   UNL     1      40.151 -12.296   4.383  1.00  0.00     0.177 A 
HETATM   10  N   UNL     1      40.776 -11.088   4.278  1.00  0.00    -0.276 N 
HETATM   11  C   UNL     1      40.860 -10.402   3.100  1.00  0.00     0.124 A 
ENDROOT
BRANCH   9  12
HETATM   12  S   UNL     1      39.844 -13.072   5.984  1.00  0.00    -0.082 SA
BRANCH  12  13
HETATM   13  C   UNL     1      41.387 -14.020   6.288  1.00  0.00     0.185 C 
BRANCH  13  14
HETATM   14  C   UNL     1      41.513 -15.312   5.493  1.00  0.00     0.232 C 
HETATM   15  N   UNL     1      42.691 -15.437   4.765  1.00  0.00    -0.324 N 
HETATM   16  H   UNL     1      43.469 -14.891   5.103  1.00  0.00     0.169 HD
HETATM   17  O   UNL     1      40.631 -16.166   5.571  1.00  0.00    -0.272 OA
BRANCH  15  18
HETATM   18  C   UNL     1      43.007 -16.640   4.091  1.00  0.00     0.071 A 
HETATM   19  C   UNL     1      42.605 -16.881   2.762  1.00  0.00     0.095 A 
HETATM   20  C   UNL     1      42.921 -18.110   2.174  1.00  0.00     0.042 A 
HETATM   21  C   UNL     1      43.625 -19.078   2.896  1.00  0.00     0.039 A 
HETATM   22  C   UNL     1      44.025 -18.830   4.207  1.00  0.00     0.070 A 
HETATM   23  C   UNL     1      43.758 -17.594   4.791  1.00  0.00     0.069 A 
BRANCH  19  24
HETATM   24  O   UNL     1      42.000 -15.839   2.109  1.00  0.00    -0.354 OA
HETATM   25  C   UNL     1      40.637 -15.997   1.739  1.00  0.00     0.210 C 
ENDBRANCH  19  24
BRANCH  22  26
HETATM   26  O   UNL     1      44.711 -19.834   4.831  1.00  0.00    -0.356 OA
HETATM   27  C   UNL     1      43.929 -20.995   5.098  1.00  0.00     0.210 C 
ENDBRANCH  22  26
ENDBRANCH  15  18
ENDBRANCH  13  14
ENDBRANCH  12  13
ENDBRANCH   9  12
BRANCH  10  28
HETATM   28  C   UNL     1      41.406 -10.517   5.436  1.00  0.00     0.043 A 
HETATM   29  C   UNL     1      40.647  -9.684   6.263  1.00  0.00     0.031 A 
HETATM   30  C   UNL     1      41.240  -9.163   7.413  1.00  0.00     0.021 A 
HETATM   31  C   UNL     1      42.567  -9.481   7.717  1.00  0.00     0.011 A 
HETATM   32 BR   UNL     1      43.363  -8.767   9.275  1.00  0.00    -0.051 Br
HETATM   33  C   UNL     1      43.310 -10.325   6.887  1.00  0.00     0.021 A 
HETATM   34  C   UNL     1      42.726 -10.861   5.738  1.00  0.00     0.031 A 
ENDBRANCH  10  28
BRANCH  11  35
HETATM   35  N   UNL     1      41.450  -9.153   2.990  1.00  0.00    -0.384 N 
HETATM   36  H   UNL     1      41.232  -8.499   2.247  1.00  0.00     0.157 HD
HETATM   37  H   UNL     1      42.314  -8.962   3.485  1.00  0.00     0.157 HD
ENDBRANCH  11  35
TORSDOF 8
ENDMDL
MODEL 10
REMARK VINA RESULT:      -7.3      3.402      7.346
REMARK  8 active torsions:
REMARK  status: ('A' for Active; 'I' for Inactive)
REMARK    1  A    between atoms: C_9  and  S_10 
REMARK    2  A    between atoms: S_10  and  C_11 
REMARK    3  A    between atoms: C_11  and  C_12 
REMARK       I    between atoms: C_12  and  N_13 
REMARK    4  A    between atoms: N_13  and  C_14 
REMARK    5  A    between atoms: C_15  and  O_16 
REMARK    6  A    between atoms: C_20  and  O_21 
REMARK    7  A    between atoms: N_25  and  C_26 
REMARK    8  A    between atoms: C_33  and  N_34 
ROOT
HETATM    1  C   UNL     1      45.297  -9.930   8.814  1.00  0.00     0.073 C 
HETATM    2  C   UNL     1      43.930  -9.785   8.247  1.00  0.00     0.068 A 
HETATM    3  N   UNL     1      43.168  -8.756   8.642  1.00  0.00    -0.177 NA
HETATM    4  N   UNL     1      42.027  -8.899   7.950  1.00  0.00    -0.260 N 
HETATM    5  H   UNL     1      41.278  -8.222   8.072  1.00  0.00     0.191 HD
HETATM    6  C   UNL     1      42.030 -10.011   7.159  1.00  0.00     0.162 A 
HETATM    7  C   UNL     1      43.254 -10.623   7.309  1.00  0.00     0.081 A 
HETATM    8  N   UNL     1      41.023 -10.435   6.404  1.00  0.00    -0.204 NA
HETATM    9  C   UNL     1      41.292 -11.575   5.755  1.00  0.00     0.177 A 
HETATM   10  N   UNL     1      42.487 -12.232   5.815  1.00  0.00    -0.276 N 
HETATM   11  C   UNL     1      43.524 -11.805   6.595  1.00  0.00     0.124 A 
ENDROOT
BRANCH   9  12
HETATM   12  S   UNL     1      39.861 -12.278   4.910  1.00  0.00    -0.082 SA
BRANCH  12  13
HETATM   13  C   UNL     1      39.434 -10.988   3.675  1.00  0.00     0.185 C 
BRANCH  13  14
HETATM   14  C   UNL     1      39.202 -11.503   2.261  1.00  0.00     0.232 C 
HETATM   15  N   UNL     1      40.345 -11.953   1.609  1.00  0.00    -0.324 N 
HETATM   16  H   UNL     1      41.101 -12.243   2.210  1.00  0.00     0.169 HD
HETATM   17  O   UNL     1      38.061 -11.543   1.805  1.00  0.00    -0.272 OA
BRANCH  15  18
HETATM   18  C   UNL     1      40.262 -12.584   0.346  1.00  0.00     0.071 A 
HETATM   19  C   UNL     1      40.075 -13.975   0.215  1.00  0.00     0.095 A 
HETATM   20  C   UNL     1      40.042 -14.533  -1.067  1.00  0.00     0.042 A 
HETATM   21  C   UNL     1      40.190 -13.721  -2.195  1.00  0.00     0.039 A 
HETATM   22  C   UNL     1      40.367 -12.346  -2.058  1.00  0.00     0.070 A 
HETATM   23  C   UNL     1      40.357 -11.769  -0.790  1.00  0.00     0.069 A 
BRANCH  19  24
HETATM   24  O   UNL     1      39.851 -14.672   1.373  1.00  0.00    -0.354 OA
HETATM   25  C   UNL     1      39.819 -16.090   1.291  1.00  0.00     0.210 C 
ENDBRANCH  19  24
BRANCH  22  26
HETATM   26  O   UNL     1      40.498 -11.634  -3.217  1.00  0.00    -0.356 OA
HETATM   27  C   UNL     1      39.817 -10.382  -3.212  1.00  0.00     0.210 C 
ENDBRANCH  22  26
ENDBRANCH  15  18
ENDBRANCH  13  14
ENDBRANCH  12  13
ENDBRANCH   9  12
BRANCH  10  28
HETATM   28  C   UNL     1      42.689 -13.400   5.004  1.00  0.00     0.043 A 
HETATM   29  C   UNL     1      42.512 -14.656   5.591  1.00  0.00     0.031 A 
HETATM   30  C   UNL     1      42.664 -15.793   4.798  1.00  0.00     0.021 A 
HETATM   31  C   UNL     1      42.984 -15.659   3.444  1.00  0.00     0.011 A 
HETATM   32 BR   UNL     1      43.191 -17.205   2.378  1.00  0.00    -0.051 Br
HETATM   33  C   UNL     1      43.146 -14.396   2.867  1.00  0.00     0.021 A 
HETATM   34  C   UNL     1      42.989 -13.249   3.647  1.00  0.00     0.031 A 
ENDBRANCH  10  28
BRANCH  11  35
HETATM   35  N   UNL     1      44.725 -12.489   6.700  1.00  0.00    -0.384 N 
HETATM   36  H   UNL     1      45.324 -12.437   7.515  1.00  0.00     0.157 HD
HETATM   37  H   UNL     1      45.175 -12.843   5.863  1.00  0.00     0.157 HD
ENDBRANCH  11  35
TORSDOF 8
ENDMDL
