MODEL 1
REMARK VINA RESULT:      -9.4      0.000      0.000
REMARK  3 active torsions:
REMARK  status: ('A' for Active; 'I' for Inactive)
REMARK    1  A    between atoms: C_8  and  C_9 
REMARK    2  A    between atoms: C_14  and  C_15 
REMARK    3  A    between atoms: C_17  and  O_18 
ROOT
HETATM    1  C   UNL     1      40.703 -13.338   0.227  1.00  0.00     0.143 A 
HETATM    2  N   UNL     1      39.862 -13.094   1.210  1.00  0.00    -0.223 NA
HETATM    3  C   UNL     1      40.491 -13.477   2.377  1.00  0.00     0.149 A 
HETATM    4  C   UNL     1      41.748 -13.977   2.081  1.00  0.00     0.046 A 
HETATM    5  C   UNL     1      42.843 -14.419   2.986  1.00  0.00     0.070 C 
HETATM    6  C   UNL     1      42.425 -15.467   4.043  1.00  0.00     0.042 C 
HETATM    7  C   UNL     1      40.929 -15.491   4.419  1.00  0.00     0.132 C 
HETATM    8  N   UNL     1      40.357 -14.186   4.698  1.00  0.00    -0.355 N 
HETATM    9  C   UNL     1      39.905 -13.329   3.711  1.00  0.00     0.272 C 
HETATM   10  O   UNL     1      39.049 -12.493   3.993  1.00  0.00    -0.266 OA
HETATM   11  N   UNL     1      41.860 -13.888   0.717  1.00  0.00    -0.341 N 
HETATM   12  H   UNL     1      42.668 -14.133   0.165  1.00  0.00     0.167 HD
HETATM   13  H   UNL     1      39.821 -14.074   5.549  1.00  0.00     0.162 HD
ENDROOT
BRANCH   1  14
HETATM   14  C   UNL     1      40.414 -13.032  -1.200  1.00  0.00     0.059 A 
HETATM   15  C   UNL     1      40.762 -11.904  -1.919  1.00  0.00     0.040 A 
HETATM   16  C   UNL     1      41.494 -10.660  -1.591  1.00  0.00     0.071 C 
HETATM   17  N   UNL     1      40.256 -12.114  -3.176  1.00  0.00    -0.281 N 
HETATM   18  H   UNL     1      40.309 -11.501  -3.982  1.00  0.00     0.189 HD
HETATM   19  N   UNL     1      39.620 -13.282  -3.324  1.00  0.00    -0.179 NA
HETATM   20  C   UNL     1      39.703 -13.853  -2.115  1.00  0.00     0.067 A 
HETATM   21  C   UNL     1      39.085 -15.182  -1.874  1.00  0.00     0.073 C 
ENDBRANCH   1  14
BRANCH   6  22
HETATM   22  C   UNL     1      42.885 -16.873   3.667  1.00  0.00    -0.049 A 
HETATM   23  C   UNL     1      43.599 -17.681   4.573  1.00  0.00     0.044 A 
HETATM   24  C   UNL     1      44.023 -18.960   4.206  1.00  0.00     0.068 A 
HETATM   25  C   UNL     1      43.734 -19.437   2.926  1.00  0.00     0.037 A 
HETATM   26  C   UNL     1      43.033 -18.646   2.016  1.00  0.00     0.003 A 
HETATM   27  C   UNL     1      42.611 -17.371   2.385  1.00  0.00     0.007 A 
BRANCH  24  28
HETATM   28  O   UNL     1      44.717 -19.836   4.994  1.00  0.00    -0.356 OA
HETATM   29  C   UNL     1      44.015 -20.983   5.461  1.00  0.00     0.210 C 
ENDBRANCH  24  28
ENDBRANCH   6  22
TORSDOF 3
ENDMDL
MODEL 2
REMARK VINA RESULT:      -9.1      0.328      1.628
REMARK  3 active torsions:
REMARK  status: ('A' for Active; 'I' for Inactive)
REMARK    1  A    between atoms: C_8  and  C_9 
REMARK    2  A    between atoms: C_14  and  C_15 
REMARK    3  A    between atoms: C_17  and  O_18 
ROOT
HETATM    1  C   UNL     1      40.568 -13.681   0.089  1.00  0.00     0.143 A 
HETATM    2  N   UNL     1      39.793 -13.380   1.111  1.00  0.00    -0.223 NA
HETATM    3  C   UNL     1      40.496 -13.705   2.253  1.00  0.00     0.149 A 
HETATM    4  C   UNL     1      41.729 -14.229   1.904  1.00  0.00     0.046 A 
HETATM    5  C   UNL     1      42.879 -14.630   2.758  1.00  0.00     0.070 C 
HETATM    6  C   UNL     1      42.527 -15.618   3.894  1.00  0.00     0.042 C 
HETATM    7  C   UNL     1      41.058 -15.611   4.366  1.00  0.00     0.132 C 
HETATM    8  N   UNL     1      40.510 -14.289   4.612  1.00  0.00    -0.355 N 
HETATM    9  C   UNL     1      39.998 -13.482   3.613  1.00  0.00     0.272 C 
HETATM   10  O   UNL     1      39.166 -12.627   3.905  1.00  0.00    -0.266 OA
HETATM   11  N   UNL     1      41.752 -14.212   0.532  1.00  0.00    -0.341 N 
HETATM   12  H   UNL     1      42.522 -14.492  -0.056  1.00  0.00     0.167 HD
HETATM   13  H   UNL     1      40.031 -14.129   5.490  1.00  0.00     0.162 HD
ENDROOT
BRANCH   1  14
HETATM   14  C   UNL     1      40.189 -13.448  -1.330  1.00  0.00     0.059 A 
HETATM   15  C   UNL     1      39.469 -14.278  -2.169  1.00  0.00     0.040 A 
HETATM   16  C   UNL     1      38.845 -15.610  -2.010  1.00  0.00     0.071 C 
HETATM   17  N   UNL     1      39.402 -13.606  -3.362  1.00  0.00    -0.281 N 
HETATM   18  H   UNL     1      38.956 -13.902  -4.223  1.00  0.00     0.189 HD
HETATM   19  N   UNL     1      40.012 -12.414  -3.356  1.00  0.00    -0.179 NA
HETATM   20  C   UNL     1      40.506 -12.308  -2.115  1.00  0.00     0.067 A 
HETATM   21  C   UNL     1      41.280 -11.103  -1.721  1.00  0.00     0.073 C 
ENDBRANCH   1  14
BRANCH   6  22
HETATM   22  C   UNL     1      42.956 -17.045   3.565  1.00  0.00    -0.049 A 
HETATM   23  C   UNL     1      43.663 -17.834   4.492  1.00  0.00     0.044 A 
HETATM   24  C   UNL     1      44.059 -19.134   4.167  1.00  0.00     0.068 A 
HETATM   25  C   UNL     1      43.749 -19.649   2.907  1.00  0.00     0.037 A 
HETATM   26  C   UNL     1      43.056 -18.878   1.976  1.00  0.00     0.003 A 
HETATM   27  C   UNL     1      42.661 -17.582   2.303  1.00  0.00     0.007 A 
BRANCH  24  28
HETATM   28  O   UNL     1      44.742 -19.995   4.980  1.00  0.00    -0.356 OA
HETATM   29  C   UNL     1      43.986 -21.009   5.631  1.00  0.00     0.210 C 
ENDBRANCH  24  28
ENDBRANCH   6  22
TORSDOF 3
ENDMDL
MODEL 3
REMARK VINA RESULT:      -8.8      3.994      6.648
REMARK  3 active torsions:
REMARK  status: ('A' for Active; 'I' for Inactive)
REMARK    1  A    between atoms: C_8  and  C_9 
REMARK    2  A    between atoms: C_14  and  C_15 
REMARK    3  A    between atoms: C_17  and  O_18 
ROOT
HETATM    1  C   UNL     1      43.474 -12.100   6.889  1.00  0.00     0.143 A 
HETATM    2  N   UNL     1      42.379 -11.605   6.351  1.00  0.00    -0.223 NA
HETATM    3  C   UNL     1      41.558 -12.676   6.062  1.00  0.00     0.149 A 
HETATM    4  C   UNL     1      42.187 -13.854   6.429  1.00  0.00     0.046 A 
HETATM    5  C   UNL     1      41.685 -15.254   6.419  1.00  0.00     0.070 C 
HETATM    6  C   UNL     1      41.102 -15.722   5.066  1.00  0.00     0.042 C 
HETATM    7  C   UNL     1      40.583 -14.610   4.131  1.00  0.00     0.132 C 
HETATM    8  N   UNL     1      39.728 -13.630   4.777  1.00  0.00    -0.355 N 
HETATM    9  C   UNL     1      40.216 -12.549   5.488  1.00  0.00     0.272 C 
HETATM   10  O   UNL     1      39.513 -11.548   5.607  1.00  0.00    -0.266 OA
HETATM   11  N   UNL     1      43.399 -13.469   6.943  1.00  0.00    -0.341 N 
HETATM   12  H   UNL     1      44.100 -14.075   7.341  1.00  0.00     0.167 HD
HETATM   13  H   UNL     1      38.845 -13.407   4.337  1.00  0.00     0.162 HD
ENDROOT
BRANCH   1  14
HETATM   14  C   UNL     1      44.604 -11.265   7.375  1.00  0.00     0.059 A 
HETATM   15  C   UNL     1      45.814 -11.018   6.753  1.00  0.00     0.040 A 
HETATM   16  C   UNL     1      46.418 -11.447   5.472  1.00  0.00     0.071 C 
HETATM   17  N   UNL     1      46.496 -10.199   7.616  1.00  0.00    -0.281 N 
HETATM   18  H   UNL     1      47.426  -9.810   7.504  1.00  0.00     0.189 HD
HETATM   19  N   UNL     1      45.825  -9.896   8.733  1.00  0.00    -0.179 NA
HETATM   20  C   UNL     1      44.662 -10.550   8.601  1.00  0.00     0.067 A 
HETATM   21  C   UNL     1      43.637 -10.471   9.673  1.00  0.00     0.073 C 
ENDBRANCH   1  14
BRANCH   6  22
HETATM   22  C   UNL     1      42.071 -16.624   4.307  1.00  0.00    -0.049 A 
HETATM   23  C   UNL     1      42.926 -17.519   4.979  1.00  0.00     0.044 A 
HETATM   24  C   UNL     1      43.815 -18.327   4.267  1.00  0.00     0.068 A 
HETATM   25  C   UNL     1      43.854 -18.241   2.874  1.00  0.00     0.037 A 
HETATM   26  C   UNL     1      43.018 -17.355   2.195  1.00  0.00     0.003 A 
HETATM   27  C   UNL     1      42.132 -16.551   2.907  1.00  0.00     0.007 A 
BRANCH  24  28
HETATM   28  O   UNL     1      44.687 -19.233   4.804  1.00  0.00    -0.356 OA
HETATM   29  C   UNL     1      44.145 -20.474   5.239  1.00  0.00     0.210 C 
ENDBRANCH  24  28
ENDBRANCH   6  22
TORSDOF 3
ENDMDL
MODEL 4
REMARK VINA RESULT:      -8.7      2.678      5.504
REMARK  3 active torsions:
REMARK  status: ('A' for Active; 'I' for Inactive)
REMARK    1  A    between atoms: C_8  and  C_9 
REMARK    2  A    between atoms: C_14  and  C_15 
REMARK    3  A    between atoms: C_17  and  O_18 
ROOT
HETATM    1  C   UNL     1      41.277 -12.408   4.684  1.00  0.00     0.143 A 
HETATM    2  N   UNL     1      41.466 -12.078   3.424  1.00  0.00    -0.223 NA
HETATM    3  C   UNL     1      41.287 -13.227   2.680  1.00  0.00     0.149 A 
HETATM    4  C   UNL     1      40.993 -14.283   3.525  1.00  0.00     0.046 A 
HETATM    5  C   UNL     1      40.620 -15.688   3.211  1.00  0.00     0.070 C 
HETATM    6  C   UNL     1      41.599 -16.421   2.265  1.00  0.00     0.042 C 
HETATM    7  C   UNL     1      42.446 -15.524   1.340  1.00  0.00     0.132 C 
HETATM    8  N   UNL     1      41.695 -14.493   0.646  1.00  0.00    -0.355 N 
HETATM    9  C   UNL     1      41.368 -13.277   1.218  1.00  0.00     0.272 C 
HETATM   10  O   UNL     1      41.160 -12.311   0.487  1.00  0.00    -0.266 OA
HETATM   11  N   UNL     1      40.999 -13.747   4.788  1.00  0.00    -0.341 N 
HETATM   12  H   UNL     1      40.786 -14.233   5.645  1.00  0.00     0.167 HD
HETATM   13  H   UNL     1      41.826 -14.401  -0.353  1.00  0.00     0.162 HD
ENDROOT
BRANCH   1  14
HETATM   14  C   UNL     1      41.347 -11.438   5.809  1.00  0.00     0.059 A 
HETATM   15  C   UNL     1      40.301 -10.834   6.483  1.00  0.00     0.040 A 
HETATM   16  C   UNL     1      38.828 -10.900   6.365  1.00  0.00     0.071 C 
HETATM   17  N   UNL     1      40.899 -10.029   7.418  1.00  0.00    -0.281 N 
HETATM   18  H   UNL     1      40.453  -9.423   8.099  1.00  0.00     0.189 HD
HETATM   19  N   UNL     1      42.236 -10.072   7.406  1.00  0.00    -0.179 NA
HETATM   20  C   UNL     1      42.525 -10.929   6.417  1.00  0.00     0.067 A 
HETATM   21  C   UNL     1      43.940 -11.229   6.080  1.00  0.00     0.073 C 
ENDBRANCH   1  14
BRANCH   6  22
HETATM   22  C   UNL     1      42.507 -17.389   3.019  1.00  0.00    -0.049 A 
HETATM   23  C   UNL     1      42.774 -17.231   4.392  1.00  0.00     0.044 A 
HETATM   24  C   UNL     1      43.618 -18.120   5.062  1.00  0.00     0.068 A 
HETATM   25  C   UNL     1      44.202 -19.173   4.356  1.00  0.00     0.037 A 
HETATM   26  C   UNL     1      43.952 -19.339   2.994  1.00  0.00     0.003 A 
HETATM   27  C   UNL     1      43.109 -18.452   2.329  1.00  0.00     0.007 A 
BRANCH  24  28
HETATM   28  O   UNL     1      43.949 -18.073   6.387  1.00  0.00    -0.356 OA
HETATM   29  C   UNL     1      43.551 -16.917   7.114  1.00  0.00     0.210 C 
ENDBRANCH  24  28
ENDBRANCH   6  22
TORSDOF 3
ENDMDL
MODEL 5
REMARK VINA RESULT:      -8.6      1.832      2.127
REMARK  3 active torsions:
REMARK  status: ('A' for Active; 'I' for Inactive)
REMARK    1  A    between atoms: C_8  and  C_9 
REMARK    2  A    between atoms: C_14  and  C_15 
REMARK    3  A    between atoms: C_17  and  O_18 
ROOT
HETATM    1  C   UNL     1      39.865 -12.754   2.296  1.00  0.00     0.143 A 
HETATM    2  N   UNL     1      39.306 -12.747   3.488  1.00  0.00    -0.223 NA
HETATM    3  C   UNL     1      40.242 -13.248   4.370  1.00  0.00     0.149 A 
HETATM    4  C   UNL     1      41.397 -13.577   3.681  1.00  0.00     0.046 A 
HETATM    5  C   UNL     1      42.713 -14.052   4.185  1.00  0.00     0.070 C 
HETATM    6  C   UNL     1      42.643 -15.287   5.112  1.00  0.00     0.042 C 
HETATM    7  C   UNL     1      41.304 -15.508   5.846  1.00  0.00     0.132 C 
HETATM    8  N   UNL     1      40.765 -14.322   6.486  1.00  0.00    -0.355 N 
HETATM    9  C   UNL     1      40.026 -13.366   5.814  1.00  0.00     0.272 C 
HETATM   10  O   UNL     1      39.237 -12.668   6.447  1.00  0.00    -0.266 OA
HETATM   11  N   UNL     1      41.136 -13.264   2.371  1.00  0.00    -0.341 N 
HETATM   12  H   UNL     1      41.779 -13.344   1.598  1.00  0.00     0.167 HD
HETATM   13  H   UNL     1      40.471 -14.395   7.452  1.00  0.00     0.162 HD
ENDROOT
BRANCH   1  14
HETATM   14  C   UNL     1      39.193 -12.255   1.067  1.00  0.00     0.059 A 
HETATM   15  C   UNL     1      38.446 -11.102   0.909  1.00  0.00     0.040 A 
HETATM   16  C   UNL     1      38.050 -10.002   1.815  1.00  0.00     0.071 C 
HETATM   17  N   UNL     1      38.048 -11.113  -0.403  1.00  0.00    -0.281 N 
HETATM   18  H   UNL     1      37.480 -10.430  -0.890  1.00  0.00     0.189 HD
HETATM   19  N   UNL     1      38.482 -12.171  -1.100  1.00  0.00    -0.179 NA
HETATM   20  C   UNL     1      39.181 -12.885  -0.206  1.00  0.00     0.067 A 
HETATM   21  C   UNL     1      39.816 -14.165  -0.608  1.00  0.00     0.073 C 
ENDBRANCH   1  14
BRANCH   6  22
HETATM   22  C   UNL     1      43.053 -16.568   4.390  1.00  0.00    -0.049 A 
HETATM   23  C   UNL     1      43.693 -17.623   5.068  1.00  0.00     0.044 A 
HETATM   24  C   UNL     1      44.073 -18.782   4.388  1.00  0.00     0.068 A 
HETATM   25  C   UNL     1      43.814 -18.889   3.020  1.00  0.00     0.037 A 
HETATM   26  C   UNL     1      43.186 -17.850   2.333  1.00  0.00     0.003 A 
HETATM   27  C   UNL     1      42.808 -16.696   3.015  1.00  0.00     0.007 A 
BRANCH  24  28
HETATM   28  O   UNL     1      44.694 -19.871   4.934  1.00  0.00    -0.356 OA
HETATM   29  C   UNL     1      43.871 -20.976   5.286  1.00  0.00     0.210 C 
ENDBRANCH  24  28
ENDBRANCH   6  22
TORSDOF 3
ENDMDL
MODEL 6
REMARK VINA RESULT:      -8.6      3.838      6.464
REMARK  3 active torsions:
REMARK  status: ('A' for Active; 'I' for Inactive)
REMARK    1  A    between atoms: C_8  and  C_9 
REMARK    2  A    between atoms: C_14  and  C_15 
REMARK    3  A    between atoms: C_17  and  O_18 
ROOT
HETATM    1  C   UNL     1      42.723 -11.626   6.630  1.00  0.00     0.143 A 
HETATM    2  N   UNL     1      41.776 -11.137   5.858  1.00  0.00    -0.223 NA
HETATM    3  C   UNL     1      41.001 -12.205   5.453  1.00  0.00     0.149 A 
HETATM    4  C   UNL     1      41.508 -13.374   5.992  1.00  0.00     0.046 A 
HETATM    5  C   UNL     1      40.980 -14.764   5.939  1.00  0.00     0.070 C 
HETATM    6  C   UNL     1      40.672 -15.285   4.517  1.00  0.00     0.042 C 
HETATM    7  C   UNL     1      40.386 -14.210   3.449  1.00  0.00     0.132 C 
HETATM    8  N   UNL     1      39.446 -13.184   3.863  1.00  0.00    -0.355 N 
HETATM    9  C   UNL     1      39.809 -12.079   4.611  1.00  0.00     0.272 C 
HETATM   10  O   UNL     1      39.125 -11.061   4.540  1.00  0.00    -0.266 OA
HETATM   11  N   UNL     1      42.601 -12.988   6.726  1.00  0.00    -0.341 N 
HETATM   12  H   UNL     1      43.188 -13.588   7.285  1.00  0.00     0.167 HD
HETATM   13  H   UNL     1      38.677 -12.965   3.241  1.00  0.00     0.162 HD
ENDROOT
BRANCH   1  14
HETATM   14  C   UNL     1      43.754 -10.789   7.301  1.00  0.00     0.059 A 
HETATM   15  C   UNL     1      43.578  -9.870   8.318  1.00  0.00     0.040 A 
HETATM   16  C   UNL     1      42.403  -9.389   9.079  1.00  0.00     0.071 C 
HETATM   17  N   UNL     1      44.831  -9.373   8.568  1.00  0.00    -0.281 N 
HETATM   18  H   UNL     1      45.102  -8.671   9.248  1.00  0.00     0.189 HD
HETATM   19  N   UNL     1      45.794  -9.901   7.803  1.00  0.00    -0.179 NA
HETATM   20  C   UNL     1      45.144 -10.768   7.014  1.00  0.00     0.067 A 
HETATM   21  C   UNL     1      45.889 -11.551   5.996  1.00  0.00     0.073 C 
ENDBRANCH   1  14
BRANCH   6  22
HETATM   22  C   UNL     1      41.750 -16.241   4.012  1.00  0.00    -0.049 A 
HETATM   23  C   UNL     1      42.535 -17.001   4.899  1.00  0.00     0.044 A 
HETATM   24  C   UNL     1      43.526 -17.861   4.418  1.00  0.00     0.068 A 
HETATM   25  C   UNL     1      43.736 -17.961   3.042  1.00  0.00     0.037 A 
HETATM   26  C   UNL     1      42.970 -17.210   2.151  1.00  0.00     0.003 A 
HETATM   27  C   UNL     1      41.982 -16.354   2.633  1.00  0.00     0.007 A 
BRANCH  24  28
HETATM   28  O   UNL     1      44.345 -18.650   5.176  1.00  0.00    -0.356 OA
HETATM   29  C   UNL     1      44.303 -20.050   4.932  1.00  0.00     0.210 C 
ENDBRANCH  24  28
ENDBRANCH   6  22
TORSDOF 3
ENDMDL
MODEL 7
REMARK VINA RESULT:      -8.5      3.736      6.460
REMARK  3 active torsions:
REMARK  status: ('A' for Active; 'I' for Inactive)
REMARK    1  A    between atoms: C_8  and  C_9 
REMARK    2  A    between atoms: C_14  and  C_15 
REMARK    3  A    between atoms: C_17  and  O_18 
ROOT
HETATM    1  C   UNL     1      42.443 -11.647   6.500  1.00  0.00     0.143 A 
HETATM    2  N   UNL     1      41.667 -11.357   5.477  1.00  0.00    -0.223 NA
HETATM    3  C   UNL     1      41.017 -12.523   5.127  1.00  0.00     0.149 A 
HETATM    4  C   UNL     1      41.426 -13.549   5.962  1.00  0.00     0.046 A 
HETATM    5  C   UNL     1      40.951 -14.955   6.060  1.00  0.00     0.070 C 
HETATM    6  C   UNL     1      40.959 -15.734   4.725  1.00  0.00     0.042 C 
HETATM    7  C   UNL     1      40.879 -14.881   3.442  1.00  0.00     0.132 C 
HETATM    8  N   UNL     1      39.850 -13.856   3.463  1.00  0.00    -0.355 N 
HETATM    9  C   UNL     1      40.025 -12.618   4.054  1.00  0.00     0.272 C 
HETATM   10  O   UNL     1      39.349 -11.670   3.661  1.00  0.00    -0.266 OA
HETATM   11  N   UNL     1      42.333 -12.976   6.818  1.00  0.00    -0.341 N 
HETATM   12  H   UNL     1      42.803 -13.433   7.584  1.00  0.00     0.167 HD
HETATM   13  H   UNL     1      39.224 -13.796   2.670  1.00  0.00     0.162 HD
ENDROOT
BRANCH   1  14
HETATM   14  C   UNL     1      43.292 -10.646   7.200  1.00  0.00     0.059 A 
HETATM   15  C   UNL     1      42.890  -9.604   8.015  1.00  0.00     0.040 A 
HETATM   16  C   UNL     1      41.574  -9.108   8.475  1.00  0.00     0.071 C 
HETATM   17  N   UNL     1      44.051  -8.983   8.397  1.00  0.00    -0.281 N 
HETATM   18  H   UNL     1      44.158  -8.172   8.995  1.00  0.00     0.189 HD
HETATM   19  N   UNL     1      45.162  -9.542   7.903  1.00  0.00    -0.179 NA
HETATM   20  C   UNL     1      44.709 -10.562   7.159  1.00  0.00     0.067 A 
HETATM   21  C   UNL     1      45.664 -11.427   6.421  1.00  0.00     0.073 C 
ENDBRANCH   1  14
BRANCH   6  22
HETATM   22  C   UNL     1      42.139 -16.698   4.631  1.00  0.00    -0.049 A 
HETATM   23  C   UNL     1      42.462 -17.352   3.427  1.00  0.00     0.044 A 
HETATM   24  C   UNL     1      43.538 -18.240   3.365  1.00  0.00     0.068 A 
HETATM   25  C   UNL     1      44.296 -18.479   4.512  1.00  0.00     0.037 A 
HETATM   26  C   UNL     1      43.985 -17.844   5.714  1.00  0.00     0.003 A 
HETATM   27  C   UNL     1      42.911 -16.958   5.773  1.00  0.00     0.007 A 
BRANCH  24  28
HETATM   28  O   UNL     1      43.951 -18.929   2.258  1.00  0.00    -0.356 OA
HETATM   29  C   UNL     1      43.310 -20.170   1.992  1.00  0.00     0.210 C 
ENDBRANCH  24  28
ENDBRANCH   6  22
TORSDOF 3
ENDMDL
MODEL 8
REMARK VINA RESULT:      -8.4      3.720      7.353
REMARK  3 active torsions:
REMARK  status: ('A' for Active; 'I' for Inactive)
REMARK    1  A    between atoms: C_8  and  C_9 
REMARK    2  A    between atoms: C_14  and  C_15 
REMARK    3  A    between atoms: C_17  and  O_18 
ROOT
HETATM    1  C   UNL     1      42.941 -17.315   3.358  1.00  0.00     0.143 A 
HETATM    2  N   UNL     1      41.765 -17.171   2.785  1.00  0.00    -0.223 NA
HETATM    3  C   UNL     1      41.669 -15.850   2.398  1.00  0.00     0.149 A 
HETATM    4  C   UNL     1      42.822 -15.177   2.761  1.00  0.00     0.046 A 
HETATM    5  C   UNL     1      43.247 -13.779   2.482  1.00  0.00     0.070 C 
HETATM    6  C   UNL     1      42.218 -12.698   2.884  1.00  0.00     0.042 C 
HETATM    7  C   UNL     1      40.747 -13.157   2.958  1.00  0.00     0.132 C 
HETATM    8  N   UNL     1      40.298 -13.930   1.814  1.00  0.00    -0.355 N 
HETATM    9  C   UNL     1      40.522 -15.288   1.680  1.00  0.00     0.272 C 
HETATM   10  O   UNL     1      39.764 -15.950   0.975  1.00  0.00    -0.266 OA
HETATM   11  N   UNL     1      43.611 -16.118   3.374  1.00  0.00    -0.341 N 
HETATM   12  H   UNL     1      44.543 -15.976   3.731  1.00  0.00     0.167 HD
HETATM   13  H   UNL     1      39.430 -13.659   1.368  1.00  0.00     0.162 HD
ENDROOT
BRANCH   1  14
HETATM   14  C   UNL     1      43.448 -18.609   3.887  1.00  0.00     0.059 A 
HETATM   15  C   UNL     1      43.720 -19.770   3.189  1.00  0.00     0.040 A 
HETATM   16  C   UNL     1      43.623 -20.160   1.764  1.00  0.00     0.071 C 
HETATM   17  N   UNL     1      44.152 -20.662   4.136  1.00  0.00    -0.281 N 
HETATM   18  H   UNL     1      44.440 -21.625   4.003  1.00  0.00     0.189 HD
HETATM   19  N   UNL     1      44.187 -20.169   5.380  1.00  0.00    -0.179 NA
HETATM   20  C   UNL     1      43.750 -18.909   5.242  1.00  0.00     0.067 A 
HETATM   21  C   UNL     1      43.630 -18.028   6.432  1.00  0.00     0.073 C 
ENDBRANCH   1  14
BRANCH   6  22
HETATM   22  C   UNL     1      42.604 -11.994   4.182  1.00  0.00    -0.049 A 
HETATM   23  C   UNL     1      43.948 -11.881   4.586  1.00  0.00     0.044 A 
HETATM   24  C   UNL     1      44.281 -11.244   5.785  1.00  0.00     0.068 A 
HETATM   25  C   UNL     1      43.266 -10.719   6.586  1.00  0.00     0.037 A 
HETATM   26  C   UNL     1      41.930 -10.829   6.202  1.00  0.00     0.003 A 
HETATM   27  C   UNL     1      41.601 -11.463   5.006  1.00  0.00     0.007 A 
BRANCH  24  28
HETATM   28  O   UNL     1      45.544 -11.069   6.280  1.00  0.00    -0.356 OA
HETATM   29  C   UNL     1      45.661 -10.785   7.669  1.00  0.00     0.210 C 
ENDBRANCH  24  28
ENDBRANCH   6  22
TORSDOF 3
ENDMDL
MODEL 9
REMARK VINA RESULT:      -8.2      3.769      6.375
REMARK  3 active torsions:
REMARK  status: ('A' for Active; 'I' for Inactive)
REMARK    1  A    between atoms: C_8  and  C_9 
REMARK    2  A    between atoms: C_14  and  C_15 
REMARK    3  A    between atoms: C_17  and  O_18 
ROOT
HETATM    1  C   UNL     1      42.786 -11.366   5.698  1.00  0.00     0.143 A 
HETATM    2  N   UNL     1      42.862 -10.921   4.461  1.00  0.00    -0.223 NA
HETATM    3  C   UNL     1      42.300 -11.890   3.654  1.00  0.00     0.149 A 
HETATM    4  C   UNL     1      41.884 -12.956   4.433  1.00  0.00     0.046 A 
HETATM    5  C   UNL     1      41.135 -14.185   4.057  1.00  0.00     0.070 C 
HETATM    6  C   UNL     1      41.754 -14.986   2.888  1.00  0.00     0.042 C 
HETATM    7  C   UNL     1      42.650 -14.188   1.919  1.00  0.00     0.132 C 
HETATM    8  N   UNL     1      42.081 -12.930   1.469  1.00  0.00    -0.355 N 
HETATM    9  C   UNL     1      42.150 -11.760   2.203  1.00  0.00     0.272 C 
HETATM   10  O   UNL     1      42.080 -10.683   1.615  1.00  0.00    -0.266 OA
HETATM   11  N   UNL     1      42.206 -12.609   5.720  1.00  0.00    -0.341 N 
HETATM   12  H   UNL     1      42.009 -13.145   6.552  1.00  0.00     0.167 HD
HETATM   13  H   UNL     1      42.082 -12.737   0.475  1.00  0.00     0.162 HD
ENDROOT
BRANCH   1  14
HETATM   14  C   UNL     1      43.256 -10.597   6.881  1.00  0.00     0.059 A 
HETATM   15  C   UNL     1      44.536 -10.521   7.397  1.00  0.00     0.040 A 
HETATM   16  C   UNL     1      45.835 -11.119   7.017  1.00  0.00     0.071 C 
HETATM   17  N   UNL     1      44.432  -9.693   8.485  1.00  0.00    -0.281 N 
HETATM   18  H   UNL     1      45.165  -9.402   9.123  1.00  0.00     0.189 HD
HETATM   19  N   UNL     1      43.196  -9.229   8.706  1.00  0.00    -0.179 NA
HETATM   20  C   UNL     1      42.462  -9.783   7.731  1.00  0.00     0.067 A 
HETATM   21  C   UNL     1      41.004  -9.512   7.651  1.00  0.00     0.073 C 
ENDBRANCH   1  14
BRANCH   6  22
HETATM   22  C   UNL     1      42.498 -16.227   3.376  1.00  0.00    -0.049 A 
HETATM   23  C   UNL     1      42.668 -16.492   4.748  1.00  0.00     0.044 A 
HETATM   24  C   UNL     1      43.363 -17.626   5.174  1.00  0.00     0.068 A 
HETATM   25  C   UNL     1      43.894 -18.501   4.225  1.00  0.00     0.037 A 
HETATM   26  C   UNL     1      43.739 -18.249   2.862  1.00  0.00     0.003 A 
HETATM   27  C   UNL     1      43.045 -17.117   2.440  1.00  0.00     0.007 A 
BRANCH  24  28
HETATM   28  O   UNL     1      43.589 -17.992   6.472  1.00  0.00    -0.356 OA
HETATM   29  C   UNL     1      43.828 -16.947   7.407  1.00  0.00     0.210 C 
ENDBRANCH  24  28
ENDBRANCH   6  22
TORSDOF 3
ENDMDL
MODEL 10
REMARK VINA RESULT:      -8.1      3.204      7.379
REMARK  3 active torsions:
REMARK  status: ('A' for Active; 'I' for Inactive)
REMARK    1  A    between atoms: C_8  and  C_9 
REMARK    2  A    between atoms: C_14  and  C_15 
REMARK    3  A    between atoms: C_17  and  O_18 
ROOT
HETATM    1  C   UNL     1      42.417 -14.898   4.379  1.00  0.00     0.143 A 
HETATM    2  N   UNL     1      43.021 -13.761   4.650  1.00  0.00    -0.223 NA
HETATM    3  C   UNL     1      42.301 -12.766   4.020  1.00  0.00     0.149 A 
HETATM    4  C   UNL     1      41.235 -13.329   3.339  1.00  0.00     0.046 A 
HETATM    5  C   UNL     1      40.120 -12.681   2.598  1.00  0.00     0.070 C 
HETATM    6  C   UNL     1      40.563 -11.662   1.524  1.00  0.00     0.042 C 
HETATM    7  C   UNL     1      41.952 -11.023   1.728  1.00  0.00     0.132 C 
HETATM    8  N   UNL     1      42.197 -10.531   3.072  1.00  0.00    -0.355 N 
HETATM    9  C   UNL     1      42.621 -11.340   4.110  1.00  0.00     0.272 C 
HETATM   10  O   UNL     1      43.235 -10.834   5.048  1.00  0.00    -0.266 OA
HETATM   11  N   UNL     1      41.330 -14.677   3.571  1.00  0.00    -0.341 N 
HETATM   12  H   UNL     1      40.688 -15.386   3.251  1.00  0.00     0.167 HD
HETATM   13  H   UNL     1      42.555  -9.589   3.175  1.00  0.00     0.162 HD
ENDROOT
BRANCH   1  14
HETATM   14  C   UNL     1      42.865 -16.216   4.903  1.00  0.00     0.059 A 
HETATM   15  C   UNL     1      43.293 -17.319   4.189  1.00  0.00     0.040 A 
HETATM   16  C   UNL     1      43.461 -17.609   2.748  1.00  0.00     0.071 C 
HETATM   17  N   UNL     1      43.581 -18.267   5.137  1.00  0.00    -0.281 N 
HETATM   18  H   UNL     1      43.920 -19.212   4.995  1.00  0.00     0.189 HD
HETATM   19  N   UNL     1      43.381 -17.862   6.397  1.00  0.00    -0.179 NA
HETATM   20  C   UNL     1      42.934 -16.605   6.267  1.00  0.00     0.067 A 
HETATM   21  C   UNL     1      42.578 -15.812   7.472  1.00  0.00     0.073 C 
ENDBRANCH   1  14
BRANCH   6  22
HETATM   22  C   UNL     1      40.461 -12.236   0.114  1.00  0.00    -0.049 A 
HETATM   23  C   UNL     1      39.737 -13.414  -0.152  1.00  0.00     0.044 A 
HETATM   24  C   UNL     1      39.667 -13.932  -1.447  1.00  0.00     0.068 A 
HETATM   25  C   UNL     1      40.326 -13.271  -2.486  1.00  0.00     0.037 A 
HETATM   26  C   UNL     1      41.052 -12.107  -2.237  1.00  0.00     0.003 A 
HETATM   27  C   UNL     1      41.120 -11.592  -0.944  1.00  0.00     0.007 A 
BRANCH  24  28
HETATM   28  O   UNL     1      38.995 -15.060  -1.829  1.00  0.00    -0.356 OA
HETATM   29  C   UNL     1      38.413 -15.059  -3.127  1.00  0.00     0.210 C 
ENDBRANCH  24  28
ENDBRANCH   6  22
TORSDOF 3
ENDMDL
