MODEL 1
REMARK VINA RESULT:      -9.1      0.000      0.000
REMARK  3 active torsions:
REMARK  status: ('A' for Active; 'I' for Inactive)
REMARK    1  A    between atoms: C_2  and  C_3 
REMARK    2  A    between atoms: C_9  and  N_10 
REMARK    3  A    between atoms: C_12  and  C_13 
ROOT
HETATM    1  C   UNL     1      42.734 -14.895   5.028  1.00  0.00    -0.006 A 
HETATM    2  C   UNL     1      41.656 -14.398   4.223  1.00  0.00     0.063 A 
HETATM    3  C   UNL     1      41.450 -13.015   4.208  1.00  0.00     0.165 A 
HETATM    4  N   UNL     1      40.504 -12.435   3.485  1.00  0.00    -0.222 NA
HETATM    5  C   UNL     1      39.719 -13.216   2.751  1.00  0.00     0.237 A 
HETATM    6  N   UNL     1      39.784 -14.543   2.688  1.00  0.00    -0.229 NA
HETATM    7  C   UNL     1      40.738 -15.118   3.428  1.00  0.00     0.117 A 
HETATM    8  N   UNL     1      42.191 -12.179   4.928  1.00  0.00    -0.228 NA
HETATM    9  C   UNL     1      43.186 -12.636   5.717  1.00  0.00     0.070 A 
HETATM   10  C   UNL     1      43.491 -13.983   5.774  1.00  0.00     0.046 A 
ENDROOT
BRANCH   9  11
HETATM   11  C   UNL     1      43.906 -11.610   6.499  1.00  0.00    -0.004 A 
HETATM   12  C   UNL     1      43.234 -10.517   7.083  1.00  0.00     0.053 A 
HETATM   13  C   UNL     1      43.968  -9.581   7.786  1.00  0.00     0.106 A 
HETATM   14  C   UNL     1      45.329  -9.683   7.932  1.00  0.00     0.105 A 
HETATM   15  O   UNL     1      43.462  -8.473   8.392  1.00  0.00    -0.323 OA
HETATM   16  O   UNL     1      45.853  -8.656   8.652  1.00  0.00    -0.323 OA
HETATM   17  C   UNL     1      46.035 -10.726   7.382  1.00  0.00     0.040 A 
HETATM   18  C   UNL     1      44.666  -7.882   8.924  1.00  0.00     0.352 A 
HETATM   19  C   UNL     1      45.315 -11.687   6.660  1.00  0.00     0.017 A 
ENDBRANCH   9  11
BRANCH   1  20
HETATM   20  C   UNL     1      43.114 -16.315   5.117  1.00  0.00    -0.025 A 
HETATM   21  C   UNL     1      43.788 -16.950   4.061  1.00  0.00     0.014 A 
HETATM   22  C   UNL     1      44.165 -18.293   4.156  1.00  0.00     0.024 A 
HETATM   23  C   UNL     1      43.884 -19.009   5.315  1.00  0.00     0.034 A 
HETATM   24  C   UNL     1      43.227 -18.397   6.380  1.00  0.00     0.024 A 
HETATM   25 CL   UNL     1      44.350 -20.661   5.435  1.00  0.00    -0.084 Cl
HETATM   26  C   UNL     1      42.845 -17.056   6.280  1.00  0.00     0.014 A 
ENDBRANCH   1  20
BRANCH   7  27
HETATM   27  N   UNL     1      40.753 -16.507   3.305  1.00  0.00    -0.286 NA
HETATM   28  H   UNL     1      41.480 -16.751   2.638  1.00  0.00     0.125 HD
HETATM   29  H   UNL     1      39.851 -16.884   3.036  1.00  0.00     0.125 HD
ENDBRANCH   7  27
TORSDOF 3
ENDMDL
MODEL 2
REMARK VINA RESULT:      -9.1      4.363      7.467
REMARK  3 active torsions:
REMARK  status: ('A' for Active; 'I' for Inactive)
REMARK    1  A    between atoms: C_2  and  C_3 
REMARK    2  A    between atoms: C_9  and  N_10 
REMARK    3  A    between atoms: C_12  and  C_13 
ROOT
HETATM    1  C   UNL     1      43.153 -12.930   4.300  1.00  0.00    -0.006 A 
HETATM    2  C   UNL     1      42.494 -12.431   3.127  1.00  0.00     0.063 A 
HETATM    3  C   UNL     1      42.079 -13.367   2.175  1.00  0.00     0.165 A 
HETATM    4  N   UNL     1      41.439 -13.033   1.066  1.00  0.00    -0.222 NA
HETATM    5  C   UNL     1      41.194 -11.743   0.858  1.00  0.00     0.237 A 
HETATM    6  N   UNL     1      41.550 -10.745   1.661  1.00  0.00    -0.229 NA
HETATM    7  C   UNL     1      42.202 -11.095   2.775  1.00  0.00     0.117 A 
HETATM    8  N   UNL     1      42.303 -14.670   2.316  1.00  0.00    -0.228 NA
HETATM    9  C   UNL     1      42.952 -15.151   3.397  1.00  0.00     0.070 A 
HETATM   10  C   UNL     1      43.373 -14.309   4.410  1.00  0.00     0.046 A 
ENDROOT
BRANCH   9  11
HETATM   11  C   UNL     1      43.177 -16.610   3.413  1.00  0.00    -0.004 A 
HETATM   12  C   UNL     1      43.555 -17.290   4.589  1.00  0.00     0.053 A 
HETATM   13  C   UNL     1      43.768 -18.654   4.532  1.00  0.00     0.106 A 
HETATM   14  C   UNL     1      43.624 -19.366   3.367  1.00  0.00     0.105 A 
HETATM   15  O   UNL     1      44.146 -19.438   5.577  1.00  0.00    -0.323 OA
HETATM   16  O   UNL     1      43.887 -20.689   3.531  1.00  0.00    -0.323 OA
HETATM   17  C   UNL     1      43.259 -18.755   2.191  1.00  0.00     0.040 A 
HETATM   18  C   UNL     1      44.236 -20.725   4.930  1.00  0.00     0.352 A 
HETATM   19  C   UNL     1      43.041 -17.371   2.220  1.00  0.00     0.017 A 
ENDBRANCH   9  11
BRANCH   1  20
HETATM   20  C   UNL     1      43.609 -12.085   5.415  1.00  0.00    -0.025 A 
HETATM   21  C   UNL     1      42.712 -11.647   6.403  1.00  0.00     0.014 A 
HETATM   22  C   UNL     1      43.151 -10.861   7.473  1.00  0.00     0.024 A 
HETATM   23  C   UNL     1      44.496 -10.518   7.571  1.00  0.00     0.034 A 
HETATM   24  C   UNL     1      45.406 -10.952   6.610  1.00  0.00     0.024 A 
HETATM   25 CL   UNL     1      45.039  -9.553   8.888  1.00  0.00    -0.084 Cl
HETATM   26  C   UNL     1      44.963 -11.732   5.539  1.00  0.00     0.014 A 
ENDBRANCH   1  20
BRANCH   7  27
HETATM   27  N   UNL     1      42.536 -10.001   3.572  1.00  0.00    -0.286 NA
HETATM   28  H   UNL     1      42.753 -10.350   4.502  1.00  0.00     0.125 HD
HETATM   29  H   UNL     1      41.807  -9.298   3.593  1.00  0.00     0.125 HD
ENDBRANCH   7  27
TORSDOF 3
ENDMDL
MODEL 3
REMARK VINA RESULT:      -8.7      2.136      2.530
REMARK  3 active torsions:
REMARK  status: ('A' for Active; 'I' for Inactive)
REMARK    1  A    between atoms: C_2  and  C_3 
REMARK    2  A    between atoms: C_9  and  N_10 
REMARK    3  A    between atoms: C_12  and  C_13 
ROOT
HETATM    1  C   UNL     1      42.775 -13.465   3.226  1.00  0.00    -0.006 A 
HETATM    2  C   UNL     1      42.244 -12.461   2.349  1.00  0.00     0.063 A 
HETATM    3  C   UNL     1      42.396 -11.125   2.735  1.00  0.00     0.165 A 
HETATM    4  N   UNL     1      41.972 -10.110   2.000  1.00  0.00    -0.222 NA
HETATM    5  C   UNL     1      41.370 -10.388   0.848  1.00  0.00     0.237 A 
HETATM    6  N   UNL     1      41.136 -11.607   0.369  1.00  0.00    -0.229 NA
HETATM    7  C   UNL     1      41.563 -12.625   1.124  1.00  0.00     0.117 A 
HETATM    8  N   UNL     1      42.978 -10.778   3.879  1.00  0.00    -0.228 NA
HETATM    9  C   UNL     1      43.451 -11.714   4.730  1.00  0.00     0.070 A 
HETATM   10  C   UNL     1      43.379 -13.060   4.424  1.00  0.00     0.046 A 
ENDROOT
BRANCH   9  11
HETATM   11  C   UNL     1      44.034 -11.200   5.986  1.00  0.00    -0.004 A 
HETATM   12  C   UNL     1      43.237 -10.603   6.983  1.00  0.00     0.053 A 
HETATM   13  C   UNL     1      43.847 -10.125   8.127  1.00  0.00     0.106 A 
HETATM   14  C   UNL     1      45.203 -10.214   8.321  1.00  0.00     0.105 A 
HETATM   15  O   UNL     1      43.212  -9.517   9.166  1.00  0.00    -0.323 OA
HETATM   16  O   UNL     1      45.594  -9.678   9.507  1.00  0.00    -0.323 OA
HETATM   17  C   UNL     1      46.028 -10.784   7.381  1.00  0.00     0.040 A 
HETATM   18  C   UNL     1      44.330  -9.220  10.029  1.00  0.00     0.352 A 
HETATM   19  C   UNL     1      45.435 -11.273   6.209  1.00  0.00     0.017 A 
ENDBRANCH   9  11
BRANCH   1  20
HETATM   20  C   UNL     1      42.741 -14.910   2.946  1.00  0.00    -0.025 A 
HETATM   21  C   UNL     1      43.520 -15.465   1.918  1.00  0.00     0.014 A 
HETATM   22  C   UNL     1      43.501 -16.840   1.667  1.00  0.00     0.024 A 
HETATM   23  C   UNL     1      42.711 -17.675   2.453  1.00  0.00     0.034 A 
HETATM   24  C   UNL     1      41.940 -17.148   3.485  1.00  0.00     0.024 A 
HETATM   25 CL   UNL     1      42.688 -19.368   2.147  1.00  0.00    -0.084 Cl
HETATM   26  C   UNL     1      41.956 -15.772   3.731  1.00  0.00     0.014 A 
ENDBRANCH   1  20
BRANCH   7  27
HETATM   27  N   UNL     1      41.292 -13.869   0.556  1.00  0.00    -0.286 NA
HETATM   28  H   UNL     1      42.074 -14.110  -0.047  1.00  0.00     0.125 HD
HETATM   29  H   UNL     1      40.411 -13.885   0.056  1.00  0.00     0.125 HD
ENDBRANCH   7  27
TORSDOF 3
ENDMDL
MODEL 4
REMARK VINA RESULT:      -8.5      2.586      4.055
REMARK  3 active torsions:
REMARK  status: ('A' for Active; 'I' for Inactive)
REMARK    1  A    between atoms: C_2  and  C_3 
REMARK    2  A    between atoms: C_9  and  N_10 
REMARK    3  A    between atoms: C_12  and  C_13 
ROOT
HETATM    1  C   UNL     1      42.604 -14.162   4.698  1.00  0.00    -0.006 A 
HETATM    2  C   UNL     1      42.917 -15.334   5.464  1.00  0.00     0.063 A 
HETATM    3  C   UNL     1      43.553 -15.146   6.695  1.00  0.00     0.165 A 
HETATM    4  N   UNL     1      43.870 -16.146   7.503  1.00  0.00    -0.222 NA
HETATM    5  C   UNL     1      43.570 -17.379   7.109  1.00  0.00     0.237 A 
HETATM    6  N   UNL     1      42.989 -17.707   5.957  1.00  0.00    -0.229 NA
HETATM    7  C   UNL     1      42.681 -16.689   5.147  1.00  0.00     0.117 A 
HETATM    8  N   UNL     1      43.892 -13.941   7.143  1.00  0.00    -0.228 NA
HETATM    9  C   UNL     1      43.635 -12.833   6.417  1.00  0.00     0.070 A 
HETATM   10  C   UNL     1      42.980 -12.910   5.202  1.00  0.00     0.046 A 
ENDROOT
BRANCH   9  11
HETATM   11  C   UNL     1      44.101 -11.560   7.005  1.00  0.00    -0.004 A 
HETATM   12  C   UNL     1      43.197 -10.569   7.438  1.00  0.00     0.053 A 
HETATM   13  C   UNL     1      43.697  -9.393   7.962  1.00  0.00     0.106 A 
HETATM   14  C   UNL     1      45.046  -9.160   8.073  1.00  0.00     0.105 A 
HETATM   15  O   UNL     1      42.952  -8.347   8.408  1.00  0.00    -0.323 OA
HETATM   16  O   UNL     1      45.321  -7.941   8.607  1.00  0.00    -0.323 OA
HETATM   17  C   UNL     1      45.972 -10.091   7.665  1.00  0.00     0.040 A 
HETATM   18  C   UNL     1      43.989  -7.422   8.799  1.00  0.00     0.352 A 
HETATM   19  C   UNL     1      45.491 -11.291   7.126  1.00  0.00     0.017 A 
ENDBRANCH   9  11
BRANCH   1  20
HETATM   20  C   UNL     1      41.896 -14.182   3.408  1.00  0.00    -0.025 A 
HETATM   21  C   UNL     1      42.601 -14.292   2.198  1.00  0.00     0.014 A 
HETATM   22  C   UNL     1      41.925 -14.331   0.975  1.00  0.00     0.024 A 
HETATM   23  C   UNL     1      40.535 -14.274   0.951  1.00  0.00     0.034 A 
HETATM   24  C   UNL     1      39.814 -14.178   2.139  1.00  0.00     0.024 A 
HETATM   25 CL   UNL     1      39.701 -14.325  -0.553  1.00  0.00    -0.084 Cl
HETATM   26  C   UNL     1      40.492 -14.133   3.361  1.00  0.00     0.014 A 
ENDBRANCH   1  20
BRANCH   7  27
HETATM   27  N   UNL     1      42.069 -17.106   3.966  1.00  0.00    -0.286 NA
HETATM   28  H   UNL     1      42.054 -16.314   3.329  1.00  0.00     0.125 HD
HETATM   29  H   UNL     1      41.141 -17.484   4.120  1.00  0.00     0.125 HD
ENDBRANCH   7  27
TORSDOF 3
ENDMDL
MODEL 5
REMARK VINA RESULT:      -8.4      4.569      7.288
REMARK  3 active torsions:
REMARK  status: ('A' for Active; 'I' for Inactive)
REMARK    1  A    between atoms: C_2  and  C_3 
REMARK    2  A    between atoms: C_9  and  N_10 
REMARK    3  A    between atoms: C_12  and  C_13 
ROOT
HETATM    1  C   UNL     1      42.232 -14.377   3.471  1.00  0.00    -0.006 A 
HETATM    2  C   UNL     1      42.501 -13.060   3.972  1.00  0.00     0.063 A 
HETATM    3  C   UNL     1      42.110 -11.978   3.177  1.00  0.00     0.165 A 
HETATM    4  N   UNL     1      42.281 -10.717   3.541  1.00  0.00    -0.222 NA
HETATM    5  C   UNL     1      42.859 -10.485   4.715  1.00  0.00     0.237 A 
HETATM    6  N   UNL     1      43.302 -11.412   5.560  1.00  0.00    -0.229 NA
HETATM    7  C   UNL     1      43.130 -12.682   5.178  1.00  0.00     0.117 A 
HETATM    8  N   UNL     1      41.538 -12.140   1.988  1.00  0.00    -0.228 NA
HETATM    9  C   UNL     1      41.310 -13.373   1.489  1.00  0.00     0.070 A 
HETATM   10  C   UNL     1      41.630 -14.507   2.213  1.00  0.00     0.046 A 
ENDROOT
BRANCH   9  11
HETATM   11  C   UNL     1      40.710 -13.417   0.140  1.00  0.00    -0.004 A 
HETATM   12  C   UNL     1      39.927 -14.509  -0.287  1.00  0.00     0.053 A 
HETATM   13  C   UNL     1      39.410 -14.498  -1.569  1.00  0.00     0.106 A 
HETATM   14  C   UNL     1      39.635 -13.457  -2.435  1.00  0.00     0.105 A 
HETATM   15  O   UNL     1      38.650 -15.480  -2.123  1.00  0.00    -0.323 OA
HETATM   16  O   UNL     1      39.042 -13.650  -3.643  1.00  0.00    -0.323 OA
HETATM   17  C   UNL     1      40.391 -12.368  -2.072  1.00  0.00     0.040 A 
HETATM   18  C   UNL     1      38.436 -14.943  -3.445  1.00  0.00     0.352 A 
HETATM   19  C   UNL     1      40.932 -12.357  -0.779  1.00  0.00     0.017 A 
ENDBRANCH   9  11
BRANCH   1  20
HETATM   20  C   UNL     1      42.536 -15.618   4.202  1.00  0.00    -0.025 A 
HETATM   21  C   UNL     1      43.605 -16.442   3.812  1.00  0.00     0.014 A 
HETATM   22  C   UNL     1      43.905 -17.610   4.520  1.00  0.00     0.024 A 
HETATM   23  C   UNL     1      43.146 -17.957   5.634  1.00  0.00     0.034 A 
HETATM   24  C   UNL     1      42.090 -17.148   6.046  1.00  0.00     0.024 A 
HETATM   25 CL   UNL     1      43.515 -19.392   6.508  1.00  0.00    -0.084 Cl
HETATM   26  C   UNL     1      41.788 -15.985   5.333  1.00  0.00     0.014 A 
ENDBRANCH   1  20
BRANCH   7  27
HETATM   27  N   UNL     1      43.609 -13.597   6.114  1.00  0.00    -0.286 NA
HETATM   28  H   UNL     1      42.924 -14.343   6.196  1.00  0.00     0.125 HD
HETATM   29  H   UNL     1      43.809 -13.169   7.010  1.00  0.00     0.125 HD
ENDBRANCH   7  27
TORSDOF 3
ENDMDL
MODEL 6
REMARK VINA RESULT:      -8.3     16.640     18.623
REMARK  3 active torsions:
REMARK  status: ('A' for Active; 'I' for Inactive)
REMARK    1  A    between atoms: C_2  and  C_3 
REMARK    2  A    between atoms: C_9  and  N_10 
REMARK    3  A    between atoms: C_12  and  C_13 
ROOT
HETATM    1  C   UNL     1      44.535 -30.048  -1.076  1.00  0.00    -0.006 A 
HETATM    2  C   UNL     1      45.585 -29.299  -0.448  1.00  0.00     0.063 A 
HETATM    3  C   UNL     1      45.530 -29.155   0.942  1.00  0.00     0.165 A 
HETATM    4  N   UNL     1      46.452 -28.508   1.637  1.00  0.00    -0.222 NA
HETATM    5  C   UNL     1      47.467 -27.971   0.969  1.00  0.00     0.237 A 
HETATM    6  N   UNL     1      47.636 -28.008  -0.350  1.00  0.00    -0.229 NA
HETATM    7  C   UNL     1      46.694 -28.658  -1.042  1.00  0.00     0.117 A 
HETATM    8  N   UNL     1      44.536 -29.657   1.669  1.00  0.00    -0.228 NA
HETATM    9  C   UNL     1      43.523 -30.334   1.088  1.00  0.00     0.070 A 
HETATM   10  C   UNL     1      43.504 -30.559  -0.276  1.00  0.00     0.046 A 
ENDROOT
BRANCH   9  11
HETATM   11  C   UNL     1      42.460 -30.802   2.000  1.00  0.00    -0.004 A 
HETATM   12  C   UNL     1      42.578 -30.683   3.399  1.00  0.00     0.053 A 
HETATM   13  C   UNL     1      41.556 -31.159   4.198  1.00  0.00     0.106 A 
HETATM   14  C   UNL     1      40.431 -31.741   3.671  1.00  0.00     0.105 A 
HETATM   15  O   UNL     1      41.535 -31.124   5.558  1.00  0.00    -0.323 OA
HETATM   16  O   UNL     1      39.556 -32.144   4.631  1.00  0.00    -0.323 OA
HETATM   17  C   UNL     1      40.263 -31.885   2.315  1.00  0.00     0.040 A 
HETATM   18  C   UNL     1      40.271 -31.767   5.825  1.00  0.00     0.352 A 
HETATM   19  C   UNL     1      41.287 -31.415   1.481  1.00  0.00     0.017 A 
ENDBRANCH   9  11
BRANCH   1  20
HETATM   20  C   UNL     1      44.470 -30.332  -2.519  1.00  0.00    -0.025 A 
HETATM   21  C   UNL     1      44.976 -31.533  -3.042  1.00  0.00     0.014 A 
HETATM   22  C   UNL     1      44.895 -31.809  -4.411  1.00  0.00     0.024 A 
HETATM   23  C   UNL     1      44.293 -30.891  -5.266  1.00  0.00     0.034 A 
HETATM   24  C   UNL     1      43.772 -29.700  -4.767  1.00  0.00     0.024 A 
HETATM   25 CL   UNL     1      44.189 -31.230  -6.950  1.00  0.00    -0.084 Cl
HETATM   26  C   UNL     1      43.860 -29.423  -3.400  1.00  0.00     0.014 A 
ENDBRANCH   1  20
BRANCH   7  27
HETATM   27  N   UNL     1      46.939 -28.664  -2.414  1.00  0.00    -0.286 NA
HETATM   28  H   UNL     1      46.806 -29.615  -2.748  1.00  0.00     0.125 HD
HETATM   29  H   UNL     1      47.859 -28.308  -2.647  1.00  0.00     0.125 HD
ENDBRANCH   7  27
TORSDOF 3
ENDMDL
MODEL 7
REMARK VINA RESULT:      -8.3      4.588      7.713
REMARK  3 active torsions:
REMARK  status: ('A' for Active; 'I' for Inactive)
REMARK    1  A    between atoms: C_2  and  C_3 
REMARK    2  A    between atoms: C_9  and  N_10 
REMARK    3  A    between atoms: C_12  and  C_13 
ROOT
HETATM    1  C   UNL     1      42.123 -13.287   4.371  1.00  0.00    -0.006 A 
HETATM    2  C   UNL     1      42.714 -12.557   5.455  1.00  0.00     0.063 A 
HETATM    3  C   UNL     1      43.497 -13.277   6.363  1.00  0.00     0.165 A 
HETATM    4  N   UNL     1      44.115 -12.712   7.389  1.00  0.00    -0.222 NA
HETATM    5  C   UNL     1      43.970 -11.401   7.553  1.00  0.00     0.237 A 
HETATM    6  N   UNL     1      43.240 -10.598   6.784  1.00  0.00    -0.229 NA
HETATM    7  C   UNL     1      42.614 -11.181   5.756  1.00  0.00     0.117 A 
HETATM    8  N   UNL     1      43.672 -14.591   6.264  1.00  0.00    -0.228 NA
HETATM    9  C   UNL     1      43.093 -15.296   5.270  1.00  0.00     0.070 A 
HETATM   10  C   UNL     1      42.329 -14.671   4.302  1.00  0.00     0.046 A 
ENDROOT
BRANCH   9  11
HETATM   11  C   UNL     1      43.331 -16.754   5.297  1.00  0.00    -0.004 A 
HETATM   12  C   UNL     1      43.581 -17.486   4.119  1.00  0.00     0.053 A 
HETATM   13  C   UNL     1      43.776 -18.851   4.210  1.00  0.00     0.106 A 
HETATM   14  C   UNL     1      43.734 -19.514   5.411  1.00  0.00     0.105 A 
HETATM   15  O   UNL     1      44.015 -19.686   3.163  1.00  0.00    -0.323 OA
HETATM   16  O   UNL     1      43.944 -20.850   5.275  1.00  0.00    -0.323 OA
HETATM   17  C   UNL     1      43.491 -18.851   6.590  1.00  0.00     0.040 A 
HETATM   18  C   UNL     1      44.103 -20.955   3.845  1.00  0.00     0.352 A 
HETATM   19  C   UNL     1      43.286 -17.466   6.526  1.00  0.00     0.017 A 
ENDBRANCH   9  11
BRANCH   1  20
HETATM   20  C   UNL     1      41.313 -12.675   3.305  1.00  0.00    -0.025 A 
HETATM   21  C   UNL     1      41.917 -12.149   2.151  1.00  0.00     0.014 A 
HETATM   22  C   UNL     1      41.144 -11.585   1.131  1.00  0.00     0.024 A 
HETATM   23  C   UNL     1      39.758 -11.556   1.250  1.00  0.00     0.034 A 
HETATM   24  C   UNL     1      39.137 -12.082   2.380  1.00  0.00     0.024 A 
HETATM   25 CL   UNL     1      38.805 -10.866  -0.005  1.00  0.00    -0.084 Cl
HETATM   26  C   UNL     1      39.912 -12.640   3.401  1.00  0.00     0.014 A 
ENDBRANCH   1  20
BRANCH   7  27
HETATM   27  N   UNL     1      41.877 -10.280   4.990  1.00  0.00    -0.286 NA
HETATM   28  H   UNL     1      42.421  -9.424   4.911  1.00  0.00     0.125 HD
HETATM   29  H   UNL     1      40.955 -10.106   5.374  1.00  0.00     0.125 HD
ENDBRANCH   7  27
TORSDOF 3
ENDMDL
MODEL 8
REMARK VINA RESULT:      -8.3      4.742      7.984
REMARK  3 active torsions:
REMARK  status: ('A' for Active; 'I' for Inactive)
REMARK    1  A    between atoms: C_2  and  C_3 
REMARK    2  A    between atoms: C_9  and  N_10 
REMARK    3  A    between atoms: C_12  and  C_13 
ROOT
HETATM    1  C   UNL     1      41.541 -13.055   1.965  1.00  0.00    -0.006 A 
HETATM    2  C   UNL     1      42.022 -12.217   3.025  1.00  0.00     0.063 A 
HETATM    3  C   UNL     1      42.808 -12.818   4.014  1.00  0.00     0.165 A 
HETATM    4  N   UNL     1      43.330 -12.146   5.028  1.00  0.00    -0.222 NA
HETATM    5  C   UNL     1      43.081 -10.842   5.100  1.00  0.00     0.237 A 
HETATM    6  N   UNL     1      42.334 -10.145   4.248  1.00  0.00    -0.229 NA
HETATM    7  C   UNL     1      41.806 -10.837   3.232  1.00  0.00     0.117 A 
HETATM    8  N   UNL     1      43.084 -14.118   4.008  1.00  0.00    -0.228 NA
HETATM    9  C   UNL     1      42.610 -14.925   3.035  1.00  0.00     0.070 A 
HETATM   10  C   UNL     1      41.852 -14.420   1.995  1.00  0.00     0.046 A 
ENDROOT
BRANCH   9  11
HETATM   11  C   UNL     1      42.952 -16.356   3.167  1.00  0.00    -0.004 A 
HETATM   12  C   UNL     1      43.372 -16.907   4.394  1.00  0.00     0.053 A 
HETATM   13  C   UNL     1      43.696 -18.249   4.447  1.00  0.00     0.106 A 
HETATM   14  C   UNL     1      43.621 -19.060   3.342  1.00  0.00     0.105 A 
HETATM   15  O   UNL     1      44.126 -18.916   5.552  1.00  0.00    -0.323 OA
HETATM   16  O   UNL     1      43.989 -20.341   3.611  1.00  0.00    -0.323 OA
HETATM   17  C   UNL     1      43.219 -18.576   2.120  1.00  0.00     0.040 A 
HETATM   18  C   UNL     1      44.327 -20.238   5.009  1.00  0.00     0.352 A 
HETATM   19  C   UNL     1      42.889 -17.216   2.038  1.00  0.00     0.017 A 
ENDBRANCH   9  11
BRANCH   1  20
HETATM   20  C   UNL     1      40.744 -12.572   0.826  1.00  0.00    -0.025 A 
HETATM   21  C   UNL     1      41.362 -12.172  -0.371  1.00  0.00     0.014 A 
HETATM   22  C   UNL     1      40.601 -11.733  -1.459  1.00  0.00     0.024 A 
HETATM   23  C   UNL     1      39.213 -11.703  -1.364  1.00  0.00     0.034 A 
HETATM   24  C   UNL     1      38.578 -12.106  -0.191  1.00  0.00     0.024 A 
HETATM   25 CL   UNL     1      38.275 -11.165  -2.702  1.00  0.00    -0.084 Cl
HETATM   26  C   UNL     1      39.341 -12.539   0.897  1.00  0.00     0.014 A 
ENDBRANCH   1  20
BRANCH   7  27
HETATM   27  N   UNL     1      41.044 -10.042   2.377  1.00  0.00    -0.286 NA
HETATM   28  H   UNL     1      41.292  -9.072   2.553  1.00  0.00     0.125 HD
HETATM   29  H   UNL     1      40.048 -10.202   2.481  1.00  0.00     0.125 HD
ENDBRANCH   7  27
TORSDOF 3
ENDMDL
MODEL 9
REMARK VINA RESULT:      -8.1      5.077      7.899
REMARK  3 active torsions:
REMARK  status: ('A' for Active; 'I' for Inactive)
REMARK    1  A    between atoms: C_2  and  C_3 
REMARK    2  A    between atoms: C_9  and  N_10 
REMARK    3  A    between atoms: C_12  and  C_13 
ROOT
HETATM    1  C   UNL     1      40.940 -13.034   2.743  1.00  0.00    -0.006 A 
HETATM    2  C   UNL     1      40.352 -13.141   1.439  1.00  0.00     0.063 A 
HETATM    3  C   UNL     1      40.477 -14.366   0.776  1.00  0.00     0.165 A 
HETATM    4  N   UNL     1      39.957 -14.596  -0.419  1.00  0.00    -0.222 NA
HETATM    5  C   UNL     1      39.293 -13.605  -1.006  1.00  0.00     0.237 A 
HETATM    6  N   UNL     1      39.116 -12.385  -0.506  1.00  0.00    -0.229 NA
HETATM    7  C   UNL     1      39.653 -12.163   0.698  1.00  0.00     0.117 A 
HETATM    8  N   UNL     1      41.138 -15.393   1.301  1.00  0.00    -0.228 NA
HETATM    9  C   UNL     1      41.726 -15.295   2.512  1.00  0.00     0.070 A 
HETATM   10  C   UNL     1      41.630 -14.137   3.261  1.00  0.00     0.046 A 
ENDROOT
BRANCH   9  11
HETATM   11  C   UNL     1      42.466 -16.491   2.963  1.00  0.00    -0.004 A 
HETATM   12  C   UNL     1      42.393 -17.714   2.267  1.00  0.00     0.053 A 
HETATM   13  C   UNL     1      43.095 -18.801   2.752  1.00  0.00     0.106 A 
HETATM   14  C   UNL     1      43.859 -18.726   3.889  1.00  0.00     0.105 A 
HETATM   15  O   UNL     1      43.111 -20.042   2.196  1.00  0.00    -0.323 OA
HETATM   16  O   UNL     1      44.457 -19.908   4.192  1.00  0.00    -0.323 OA
HETATM   17  C   UNL     1      43.965 -17.560   4.609  1.00  0.00     0.040 A 
HETATM   18  C   UNL     1      43.964 -20.744   3.126  1.00  0.00     0.352 A 
HETATM   19  C   UNL     1      43.260 -16.442   4.141  1.00  0.00     0.017 A 
ENDBRANCH   9  11
BRANCH   1  20
HETATM   20  C   UNL     1      40.857 -11.833   3.591  1.00  0.00    -0.025 A 
HETATM   21  C   UNL     1      39.788 -11.651   4.483  1.00  0.00     0.014 A 
HETATM   22  C   UNL     1      39.722 -10.520   5.303  1.00  0.00     0.024 A 
HETATM   23  C   UNL     1      40.734  -9.567   5.247  1.00  0.00     0.034 A 
HETATM   24  C   UNL     1      41.811  -9.733   4.379  1.00  0.00     0.024 A 
HETATM   25 CL   UNL     1      40.657  -8.176   6.256  1.00  0.00    -0.084 Cl
HETATM   26  C   UNL     1      41.871 -10.861   3.557  1.00  0.00     0.014 A 
ENDBRANCH   1  20
BRANCH   7  27
HETATM   27  N   UNL     1      39.421 -10.869   1.162  1.00  0.00    -0.286 NA
HETATM   28  H   UNL     1      39.542 -10.233   0.378  1.00  0.00     0.125 HD
HETATM   29  H   UNL     1      40.018 -10.622   1.944  1.00  0.00     0.125 HD
ENDBRANCH   7  27
TORSDOF 3
ENDMDL
MODEL 10
REMARK VINA RESULT:      -7.9      5.637      8.529
REMARK  3 active torsions:
REMARK  status: ('A' for Active; 'I' for Inactive)
REMARK    1  A    between atoms: C_2  and  C_3 
REMARK    2  A    between atoms: C_9  and  N_10 
REMARK    3  A    between atoms: C_12  and  C_13 
ROOT
HETATM    1  C   UNL     1      40.238 -12.365  -0.484  1.00  0.00    -0.006 A 
HETATM    2  C   UNL     1      39.648 -13.209  -1.483  1.00  0.00     0.063 A 
HETATM    3  C   UNL     1      39.471 -14.558  -1.161  1.00  0.00     0.165 A 
HETATM    4  N   UNL     1      38.916 -15.430  -1.988  1.00  0.00    -0.222 NA
HETATM    5  C   UNL     1      38.520 -14.989  -3.178  1.00  0.00     0.237 A 
HETATM    6  N   UNL     1      38.647 -13.743  -3.626  1.00  0.00    -0.229 NA
HETATM    7  C   UNL     1      39.216 -12.873  -2.785  1.00  0.00     0.117 A 
HETATM    8  N   UNL     1      39.855 -15.066   0.006  1.00  0.00    -0.228 NA
HETATM    9  C   UNL     1      40.443 -14.291   0.941  1.00  0.00     0.070 A 
HETATM   10  C   UNL     1      40.632 -12.938   0.732  1.00  0.00     0.046 A 
ENDROOT
BRANCH   9  11
HETATM   11  C   UNL     1      40.863 -14.985   2.176  1.00  0.00    -0.004 A 
HETATM   12  C   UNL     1      40.484 -14.522   3.452  1.00  0.00     0.053 A 
HETATM   13  C   UNL     1      40.925 -15.205   4.569  1.00  0.00     0.106 A 
HETATM   14  C   UNL     1      41.721 -16.319   4.473  1.00  0.00     0.105 A 
HETATM   15  O   UNL     1      40.652 -14.872   5.858  1.00  0.00    -0.323 OA
HETATM   16  O   UNL     1      42.046 -16.832   5.689  1.00  0.00    -0.323 OA
HETATM   17  C   UNL     1      42.123 -16.814   3.255  1.00  0.00     0.040 A 
HETATM   18  C   UNL     1      41.381 -15.898   6.564  1.00  0.00     0.352 A 
HETATM   19  C   UNL     1      41.692 -16.137   2.106  1.00  0.00     0.017 A 
ENDBRANCH   9  11
BRANCH   1  20
HETATM   20  C   UNL     1      40.450 -10.917  -0.645  1.00  0.00    -0.025 A 
HETATM   21  C   UNL     1      39.461  -9.995  -0.265  1.00  0.00     0.014 A 
HETATM   22  C   UNL     1      39.673  -8.620  -0.400  1.00  0.00     0.024 A 
HETATM   23  C   UNL     1      40.883  -8.153  -0.904  1.00  0.00     0.034 A 
HETATM   24  C   UNL     1      41.883  -9.048  -1.276  1.00  0.00     0.024 A 
HETATM   25 CL   UNL     1      41.147  -6.461  -1.068  1.00  0.00    -0.084 Cl
HETATM   26  C   UNL     1      41.667 -10.423  -1.146  1.00  0.00     0.014 A 
ENDBRANCH   1  20
BRANCH   7  27
HETATM   27  N   UNL     1      39.308 -11.588  -3.317  1.00  0.00    -0.286 NA
HETATM   28  H   UNL     1      39.155 -10.928  -2.559  1.00  0.00     0.125 HD
HETATM   29  H   UNL     1      38.664 -11.438  -4.084  1.00  0.00     0.125 HD
ENDBRANCH   7  27
TORSDOF 3
ENDMDL
