MODEL 1
REMARK VINA RESULT:      -9.8      0.000      0.000
REMARK  3 active torsions:
REMARK  status: ('A' for Active; 'I' for Inactive)
REMARK    1  A    between atoms: C_2  and  N_3 
REMARK    2  A    between atoms: C_8  and  C_9 
REMARK       I    between atoms: C_9  and  N_10 
REMARK    3  A    between atoms: N_10  and  C_11 
ROOT
HETATM    1  C   UNL     1      43.360 -13.385   6.530  1.00  0.00     0.036 A 
HETATM    2  C   UNL     1      42.901 -13.093   5.246  1.00  0.00     0.049 A 
HETATM    3  C   UNL     1      42.813 -14.088   4.254  1.00  0.00     0.061 A 
HETATM    4  C   UNL     1      43.166 -15.408   4.561  1.00  0.00     0.050 A 
HETATM    5  N   UNL     1      43.015 -16.522   3.717  1.00  0.00    -0.324 N 
HETATM    6  C   UNL     1      42.072 -16.727   2.743  1.00  0.00     0.245 C 
HETATM    7  O   UNL     1      41.987 -17.854   2.248  1.00  0.00    -0.271 OA
HETATM    8  C   UNL     1      41.055 -15.620   2.468  1.00  0.00     0.180 C 
HETATM    9  N   UNL     1      41.733 -14.399   2.067  1.00  0.00    -0.334 N 
HETATM   10  C   UNL     1      42.489 -13.602   2.890  1.00  0.00     0.256 C 
HETATM   11  O   UNL     1      42.903 -12.500   2.536  1.00  0.00    -0.267 OA
HETATM   12  C   UNL     1      40.126 -15.942   1.289  1.00  0.00     0.037 C 
HETATM   13  C   UNL     1      39.903 -14.588   0.629  1.00  0.00     0.022 C 
HETATM   14  C   UNL     1      41.258 -13.918   0.783  1.00  0.00     0.127 C 
HETATM   15  C   UNL     1      43.717 -15.677   5.824  1.00  0.00     0.033 A 
HETATM   16  C   UNL     1      43.814 -14.676   6.798  1.00  0.00     0.032 A 
HETATM   17  H   UNL     1      43.496 -17.380   3.961  1.00  0.00     0.169 HD
ENDROOT
BRANCH   1  18
HETATM   18  N   UNL     1      43.414 -12.434   7.571  1.00  0.00    -0.323 N 
HETATM   19  C   UNL     1      44.357 -11.425   7.696  1.00  0.00     0.256 C 
HETATM   20  O   UNL     1      45.240 -11.172   6.884  1.00  0.00    -0.267 OA
HETATM   21  H   UNL     1      42.670 -12.479   8.253  1.00  0.00     0.169 HD
BRANCH  19  22
HETATM   22  C   UNL     1      44.278 -10.575   8.923  1.00  0.00     0.034 A 
HETATM   23  C   UNL     1      45.388  -9.957   9.503  1.00  0.00     0.018 A 
HETATM   24  C   UNL     1      45.242  -9.170  10.657  1.00  0.00     0.015 A 
HETATM   25  C   UNL     1      43.970  -9.013  11.243  1.00  0.00    -0.008 A 
HETATM   26  C   UNL     1      42.873  -9.656  10.666  1.00  0.00     0.045 A 
HETATM   27  C   UNL     1      43.491  -8.300  12.373  1.00  0.00     0.031 A 
HETATM   28  N   UNL     1      41.763  -9.349  11.436  1.00  0.00    -0.352 N 
HETATM   29  C   UNL     1      43.007 -10.439   9.508  1.00  0.00     0.047 A 
HETATM   30  C   UNL     1      42.133  -8.510  12.458  1.00  0.00     0.092 A 
BRANCH  28  31
HETATM   31  C   UNL     1      40.399  -9.803  11.158  1.00  0.00     0.081 C 
HETATM   32  C   UNL     1      39.618  -8.727  10.407  1.00  0.00     0.032 C 
HETATM   33  C   UNL     1      39.645 -10.264  12.409  1.00  0.00     0.032 C 
ENDBRANCH  28  31
ENDBRANCH  19  22
ENDBRANCH   1  18
TORSDOF 3
ENDMDL
MODEL 2
REMARK VINA RESULT:      -9.2      4.874      8.781
REMARK  3 active torsions:
REMARK  status: ('A' for Active; 'I' for Inactive)
REMARK    1  A    between atoms: C_2  and  N_3 
REMARK    2  A    between atoms: C_8  and  C_9 
REMARK       I    between atoms: C_9  and  N_10 
REMARK    3  A    between atoms: N_10  and  C_11 
ROOT
HETATM    1  C   UNL     1      40.149 -14.164  -0.468  1.00  0.00     0.036 A 
HETATM    2  C   UNL     1      40.021 -12.781  -0.353  1.00  0.00     0.049 A 
HETATM    3  C   UNL     1      39.141 -12.054  -1.177  1.00  0.00     0.061 A 
HETATM    4  C   UNL     1      38.354 -12.728  -2.118  1.00  0.00     0.050 A 
HETATM    5  N   UNL     1      37.349 -12.155  -2.918  1.00  0.00    -0.324 N 
HETATM    6  C   UNL     1      36.548 -11.080  -2.634  1.00  0.00     0.245 C 
HETATM    7  O   UNL     1      35.593 -10.857  -3.383  1.00  0.00    -0.271 OA
HETATM    8  C   UNL     1      36.755 -10.345  -1.310  1.00  0.00     0.180 C 
HETATM    9  N   UNL     1      38.108  -9.822  -1.229  1.00  0.00    -0.334 N 
HETATM   10  C   UNL     1      39.244 -10.576  -1.073  1.00  0.00     0.256 C 
HETATM   11  O   UNL     1      40.341 -10.070  -0.849  1.00  0.00    -0.267 OA
HETATM   12  C   UNL     1      35.860  -9.107  -1.168  1.00  0.00     0.037 C 
HETATM   13  C   UNL     1      36.737  -8.116  -0.414  1.00  0.00     0.022 C 
HETATM   14  C   UNL     1      38.117  -8.391  -0.990  1.00  0.00     0.127 C 
HETATM   15  C   UNL     1      38.556 -14.105  -2.295  1.00  0.00     0.033 A 
HETATM   16  C   UNL     1      39.445 -14.817  -1.480  1.00  0.00     0.032 A 
HETATM   17  H   UNL     1      36.997 -12.689  -3.705  1.00  0.00     0.169 HD
ENDROOT
BRANCH   1  18
HETATM   18  N   UNL     1      40.976 -14.941   0.371  1.00  0.00    -0.323 N 
HETATM   19  C   UNL     1      40.605 -15.484   1.592  1.00  0.00     0.256 C 
HETATM   20  O   UNL     1      39.485 -15.423   2.087  1.00  0.00    -0.267 OA
HETATM   21  H   UNL     1      41.899 -15.147   0.018  1.00  0.00     0.169 HD
BRANCH  19  22
HETATM   22  C   UNL     1      41.664 -16.208   2.358  1.00  0.00     0.034 A 
HETATM   23  C   UNL     1      42.371 -17.301   1.849  1.00  0.00     0.018 A 
HETATM   24  C   UNL     1      43.354 -17.935   2.624  1.00  0.00     0.015 A 
HETATM   25  C   UNL     1      43.624 -17.477   3.929  1.00  0.00    -0.008 A 
HETATM   26  C   UNL     1      42.895 -16.399   4.433  1.00  0.00     0.045 A 
HETATM   27  C   UNL     1      44.534 -17.878   4.942  1.00  0.00     0.031 A 
HETATM   28  N   UNL     1      43.344 -16.164   5.722  1.00  0.00    -0.352 N 
HETATM   29  C   UNL     1      41.914 -15.753   3.664  1.00  0.00     0.047 A 
HETATM   30  C   UNL     1      44.352 -17.047   6.023  1.00  0.00     0.092 A 
BRANCH  28  31
HETATM   31  C   UNL     1      42.856 -15.096   6.599  1.00  0.00     0.081 C 
HETATM   32  C   UNL     1      43.553 -13.777   6.276  1.00  0.00     0.032 C 
HETATM   33  C   UNL     1      42.970 -15.434   8.088  1.00  0.00     0.032 C 
ENDBRANCH  28  31
ENDBRANCH  19  22
ENDBRANCH   1  18
TORSDOF 3
ENDMDL
MODEL 3
REMARK VINA RESULT:      -9.2      2.681      9.700
REMARK  3 active torsions:
REMARK  status: ('A' for Active; 'I' for Inactive)
REMARK    1  A    between atoms: C_2  and  N_3 
REMARK    2  A    between atoms: C_8  and  C_9 
REMARK       I    between atoms: C_9  and  N_10 
REMARK    3  A    between atoms: N_10  and  C_11 
ROOT
HETATM    1  C   UNL     1      42.912 -11.926   5.350  1.00  0.00     0.036 A 
HETATM    2  C   UNL     1      43.507 -11.794   6.604  1.00  0.00     0.049 A 
HETATM    3  C   UNL     1      43.362 -10.620   7.366  1.00  0.00     0.061 A 
HETATM    4  C   UNL     1      42.584  -9.564   6.875  1.00  0.00     0.050 A 
HETATM    5  N   UNL     1      42.250  -8.389   7.570  1.00  0.00    -0.324 N 
HETATM    6  C   UNL     1      42.093  -8.218   8.921  1.00  0.00     0.245 C 
HETATM    7  O   UNL     1      41.604  -7.157   9.317  1.00  0.00    -0.271 OA
HETATM    8  C   UNL     1      42.338  -9.414   9.841  1.00  0.00     0.180 C 
HETATM    9  N   UNL     1      43.701  -9.895   9.691  1.00  0.00    -0.334 N 
HETATM   10  C   UNL     1      44.198 -10.546   8.590  1.00  0.00     0.256 C 
HETATM   11  O   UNL     1      45.309 -11.071   8.585  1.00  0.00    -0.267 OA
HETATM   12  C   UNL     1      42.224  -9.056  11.329  1.00  0.00     0.037 C 
HETATM   13  C   UNL     1      43.285  -9.925  11.989  1.00  0.00     0.022 C 
HETATM   14  C   UNL     1      44.404  -9.920  10.961  1.00  0.00     0.127 C 
HETATM   15  C   UNL     1      42.067  -9.664   5.573  1.00  0.00     0.033 A 
HETATM   16  C   UNL     1      42.230 -10.832   4.818  1.00  0.00     0.032 A 
HETATM   17  H   UNL     1      41.866  -7.612   7.045  1.00  0.00     0.169 HD
ENDROOT
BRANCH   1  18
HETATM   18  N   UNL     1      42.984 -13.103   4.574  1.00  0.00    -0.323 N 
HETATM   19  C   UNL     1      42.329 -14.293   4.851  1.00  0.00     0.256 C 
HETATM   20  O   UNL     1      41.539 -14.474   5.772  1.00  0.00    -0.267 OA
HETATM   21  H   UNL     1      43.529 -13.044   3.727  1.00  0.00     0.169 HD
BRANCH  19  22
HETATM   22  C   UNL     1      42.608 -15.445   3.940  1.00  0.00     0.034 A 
HETATM   23  C   UNL     1      42.408 -15.398   2.558  1.00  0.00     0.018 A 
HETATM   24  C   UNL     1      42.692 -16.518   1.760  1.00  0.00     0.015 A 
HETATM   25  C   UNL     1      43.170 -17.702   2.356  1.00  0.00    -0.008 A 
HETATM   26  C   UNL     1      43.343 -17.742   3.741  1.00  0.00     0.045 A 
HETATM   27  C   UNL     1      43.551 -18.972   1.850  1.00  0.00     0.031 A 
HETATM   28  N   UNL     1      43.803 -19.008   4.063  1.00  0.00    -0.352 N 
HETATM   29  C   UNL     1      43.069 -16.626   4.547  1.00  0.00     0.047 A 
HETATM   30  C   UNL     1      43.949 -19.747   2.915  1.00  0.00     0.092 A 
BRANCH  28  31
HETATM   31  C   UNL     1      44.140 -19.459   5.416  1.00  0.00     0.081 C 
HETATM   32  C   UNL     1      44.190 -20.984   5.476  1.00  0.00     0.032 C 
HETATM   33  C   UNL     1      43.212 -18.891   6.494  1.00  0.00     0.032 C 
ENDBRANCH  28  31
ENDBRANCH  19  22
ENDBRANCH   1  18
TORSDOF 3
ENDMDL
MODEL 4
REMARK VINA RESULT:      -8.9      1.762      2.741
REMARK  3 active torsions:
REMARK  status: ('A' for Active; 'I' for Inactive)
REMARK    1  A    between atoms: C_2  and  N_3 
REMARK    2  A    between atoms: C_8  and  C_9 
REMARK       I    between atoms: C_9  and  N_10 
REMARK    3  A    between atoms: N_10  and  C_11 
ROOT
HETATM    1  C   UNL     1      41.677 -11.339   6.129  1.00  0.00     0.036 A 
HETATM    2  C   UNL     1      41.823 -12.706   5.896  1.00  0.00     0.049 A 
HETATM    3  C   UNL     1      41.515 -13.275   4.646  1.00  0.00     0.061 A 
HETATM    4  C   UNL     1      41.075 -12.455   3.599  1.00  0.00     0.050 A 
HETATM    5  N   UNL     1      40.849 -12.859   2.272  1.00  0.00    -0.324 N 
HETATM    6  C   UNL     1      41.470 -13.860   1.572  1.00  0.00     0.245 C 
HETATM    7  O   UNL     1      41.269 -13.927   0.357  1.00  0.00    -0.271 OA
HETATM    8  C   UNL     1      42.524 -14.705   2.287  1.00  0.00     0.180 C 
HETATM    9  N   UNL     1      41.940 -15.374   3.437  1.00  0.00    -0.334 N 
HETATM   10  C   UNL     1      41.539 -14.758   4.596  1.00  0.00     0.256 C 
HETATM   11  O   UNL     1      41.203 -15.393   5.594  1.00  0.00    -0.267 OA
HETATM   12  C   UNL     1      43.063 -15.849   1.418  1.00  0.00     0.037 C 
HETATM   13  C   UNL     1      43.292 -16.979   2.413  1.00  0.00     0.022 C 
HETATM   14  C   UNL     1      42.129 -16.812   3.376  1.00  0.00     0.127 C 
HETATM   15  C   UNL     1      40.838 -11.098   3.867  1.00  0.00     0.033 A 
HETATM   16  C   UNL     1      41.135 -10.545   5.119  1.00  0.00     0.032 A 
HETATM   17  H   UNL     1      40.334 -12.236   1.660  1.00  0.00     0.169 HD
ENDROOT
BRANCH   1  18
HETATM   18  N   UNL     1      42.025 -10.716   7.347  1.00  0.00    -0.323 N 
HETATM   19  C   UNL     1      43.311 -10.385   7.746  1.00  0.00     0.256 C 
HETATM   20  O   UNL     1      44.325 -10.525   7.070  1.00  0.00    -0.267 OA
HETATM   21  H   UNL     1      41.257 -10.457   7.949  1.00  0.00     0.169 HD
BRANCH  19  22
HETATM   22  C   UNL     1      43.464  -9.802   9.113  1.00  0.00     0.034 A 
HETATM   23  C   UNL     1      44.693  -9.408   9.649  1.00  0.00     0.018 A 
HETATM   24  C   UNL     1      44.765  -8.867  10.942  1.00  0.00     0.015 A 
HETATM   25  C   UNL     1      43.593  -8.730  11.712  1.00  0.00    -0.008 A 
HETATM   26  C   UNL     1      42.375  -9.150  11.174  1.00  0.00     0.045 A 
HETATM   27  C   UNL     1      43.325  -8.228  13.013  1.00  0.00     0.031 A 
HETATM   28  N   UNL     1      41.400  -8.919  12.130  1.00  0.00    -0.352 N 
HETATM   29  C   UNL     1      42.291  -9.686   9.879  1.00  0.00     0.047 A 
HETATM   30  C   UNL     1      41.972  -8.341  13.237  1.00  0.00     0.092 A 
BRANCH  28  31
HETATM   31  C   UNL     1      39.972  -9.194  11.955  1.00  0.00     0.081 C 
HETATM   32  C   UNL     1      39.137  -7.984  12.369  1.00  0.00     0.032 C 
HETATM   33  C   UNL     1      39.505 -10.463  12.675  1.00  0.00     0.032 C 
ENDBRANCH  28  31
ENDBRANCH  19  22
ENDBRANCH   1  18
TORSDOF 3
ENDMDL
MODEL 5
REMARK VINA RESULT:      -8.9      2.309      3.190
REMARK  3 active torsions:
REMARK  status: ('A' for Active; 'I' for Inactive)
REMARK    1  A    between atoms: C_2  and  N_3 
REMARK    2  A    between atoms: C_8  and  C_9 
REMARK       I    between atoms: C_9  and  N_10 
REMARK    3  A    between atoms: N_10  and  C_11 
ROOT
HETATM    1  C   UNL     1      42.581 -12.308   3.973  1.00  0.00     0.036 A 
HETATM    2  C   UNL     1      42.070 -11.536   2.931  1.00  0.00     0.049 A 
HETATM    3  C   UNL     1      41.635 -12.122   1.727  1.00  0.00     0.061 A 
HETATM    4  C   UNL     1      41.687 -13.513   1.574  1.00  0.00     0.050 A 
HETATM    5  N   UNL     1      41.178 -14.245   0.486  1.00  0.00    -0.324 N 
HETATM    6  C   UNL     1      40.114 -13.936  -0.321  1.00  0.00     0.245 C 
HETATM    7  O   UNL     1      39.703 -14.804  -1.094  1.00  0.00    -0.271 OA
HETATM    8  C   UNL     1      39.373 -12.620  -0.080  1.00  0.00     0.180 C 
HETATM    9  N   UNL     1      40.281 -11.495  -0.227  1.00  0.00    -0.334 N 
HETATM   10  C   UNL     1      41.293 -11.171   0.641  1.00  0.00     0.256 C 
HETATM   11  O   UNL     1      41.922 -10.119   0.550  1.00  0.00    -0.267 OA
HETATM   12  C   UNL     1      38.272 -12.358  -1.115  1.00  0.00     0.037 C 
HETATM   13  C   UNL     1      38.314 -10.847  -1.308  1.00  0.00     0.022 C 
HETATM   14  C   UNL     1      39.800 -10.544  -1.212  1.00  0.00     0.127 C 
HETATM   15  C   UNL     1      42.290 -14.276   2.587  1.00  0.00     0.033 A 
HETATM   16  C   UNL     1      42.733 -13.680   3.774  1.00  0.00     0.032 A 
HETATM   17  H   UNL     1      41.459 -15.213   0.384  1.00  0.00     0.169 HD
ENDROOT
BRANCH   1  18
HETATM   18  N   UNL     1      42.978 -11.771   5.217  1.00  0.00    -0.323 N 
HETATM   19  C   UNL     1      44.244 -11.300   5.526  1.00  0.00     0.256 C 
HETATM   20  O   UNL     1      45.184 -11.218   4.742  1.00  0.00    -0.267 OA
HETATM   21  H   UNL     1      42.255 -11.692   5.917  1.00  0.00     0.169 HD
BRANCH  19  22
HETATM   22  C   UNL     1      44.472 -10.848   6.932  1.00  0.00     0.034 A 
HETATM   23  C   UNL     1      45.713 -10.909   7.569  1.00  0.00     0.018 A 
HETATM   24  C   UNL     1      45.857 -10.466   8.893  1.00  0.00     0.015 A 
HETATM   25  C   UNL     1      44.739  -9.967   9.591  1.00  0.00    -0.008 A 
HETATM   26  C   UNL     1      43.499  -9.933   8.951  1.00  0.00     0.045 A 
HETATM   27  C   UNL     1      44.549  -9.447  10.898  1.00  0.00     0.031 A 
HETATM   28  N   UNL     1      42.582  -9.418   9.852  1.00  0.00    -0.352 N 
HETATM   29  C   UNL     1      43.346 -10.367   7.624  1.00  0.00     0.047 A 
HETATM   30  C   UNL     1      43.223  -9.103  11.026  1.00  0.00     0.092 A 
BRANCH  28  31
HETATM   31  C   UNL     1      41.164  -9.189   9.568  1.00  0.00     0.081 C 
HETATM   32  C   UNL     1      40.947  -7.781   9.018  1.00  0.00     0.032 C 
HETATM   33  C   UNL     1      40.252  -9.463  10.768  1.00  0.00     0.032 C 
ENDBRANCH  28  31
ENDBRANCH  19  22
ENDBRANCH   1  18
TORSDOF 3
ENDMDL
MODEL 6
REMARK VINA RESULT:      -8.6     18.196     20.846
REMARK  3 active torsions:
REMARK  status: ('A' for Active; 'I' for Inactive)
REMARK    1  A    between atoms: C_2  and  N_3 
REMARK    2  A    between atoms: C_8  and  C_9 
REMARK       I    between atoms: C_9  and  N_10 
REMARK    3  A    between atoms: N_10  and  C_11 
ROOT
HETATM    1  C   UNL     1      41.693 -31.554   3.894  1.00  0.00     0.036 A 
HETATM    2  C   UNL     1      41.131 -32.737   3.416  1.00  0.00     0.049 A 
HETATM    3  C   UNL     1      40.006 -33.317   4.032  1.00  0.00     0.061 A 
HETATM    4  C   UNL     1      39.415 -32.686   5.134  1.00  0.00     0.050 A 
HETATM    5  N   UNL     1      38.224 -33.078   5.770  1.00  0.00    -0.324 N 
HETATM    6  C   UNL     1      37.140 -33.715   5.225  1.00  0.00     0.245 C 
HETATM    7  O   UNL     1      36.113 -33.793   5.904  1.00  0.00    -0.271 OA
HETATM    8  C   UNL     1      37.191 -34.109   3.749  1.00  0.00     0.180 C 
HETATM    9  N   UNL     1      38.304 -35.012   3.506  1.00  0.00    -0.334 N 
HETATM   10  C   UNL     1      39.631 -34.665   3.536  1.00  0.00     0.256 C 
HETATM   11  O   UNL     1      40.518 -35.431   3.165  1.00  0.00    -0.267 OA
HETATM   12  C   UNL     1      35.956 -34.899   3.299  1.00  0.00     0.037 C 
HETATM   13  C   UNL     1      36.515 -35.895   2.291  1.00  0.00     0.022 C 
HETATM   14  C   UNL     1      37.864 -36.252   2.893  1.00  0.00     0.127 C 
HETATM   15  C   UNL     1      40.041 -31.549   5.668  1.00  0.00     0.033 A 
HETATM   16  C   UNL     1      41.168 -30.989   5.056  1.00  0.00     0.032 A 
HETATM   17  H   UNL     1      38.010 -32.680   6.677  1.00  0.00     0.169 HD
ENDROOT
BRANCH   1  18
HETATM   18  N   UNL     1      42.785 -30.907   3.277  1.00  0.00    -0.323 N 
HETATM   19  C   UNL     1      42.710 -30.069   2.175  1.00  0.00     0.256 C 
HETATM   20  O   UNL     1      41.676 -29.715   1.619  1.00  0.00    -0.267 OA
HETATM   21  H   UNL     1      43.685 -31.042   3.713  1.00  0.00     0.169 HD
BRANCH  19  22
HETATM   22  C   UNL     1      44.003 -29.551   1.632  1.00  0.00     0.034 A 
HETATM   23  C   UNL     1      45.115 -29.271   2.429  1.00  0.00     0.018 A 
HETATM   24  C   UNL     1      46.300 -28.786   1.852  1.00  0.00     0.015 A 
HETATM   25  C   UNL     1      46.365 -28.568   0.461  1.00  0.00    -0.008 A 
HETATM   26  C   UNL     1      45.239 -28.831  -0.320  1.00  0.00     0.045 A 
HETATM   27  C   UNL     1      47.384 -28.108  -0.413  1.00  0.00     0.031 A 
HETATM   28  N   UNL     1      45.565 -28.524  -1.631  1.00  0.00    -0.352 N 
HETATM   29  C   UNL     1      44.051 -29.322   0.246  1.00  0.00     0.047 A 
HETATM   30  C   UNL     1      46.872 -28.106  -1.691  1.00  0.00     0.092 A 
BRANCH  28  31
HETATM   31  C   UNL     1      44.668 -28.684  -2.778  1.00  0.00     0.081 C 
HETATM   32  C   UNL     1      44.559 -30.155  -3.173  1.00  0.00     0.032 C 
HETATM   33  C   UNL     1      45.056 -27.814  -3.977  1.00  0.00     0.032 C 
ENDBRANCH  28  31
ENDBRANCH  19  22
ENDBRANCH   1  18
TORSDOF 3
ENDMDL
MODEL 7
REMARK VINA RESULT:      -8.6     18.152     20.751
REMARK  3 active torsions:
REMARK  status: ('A' for Active; 'I' for Inactive)
REMARK    1  A    between atoms: C_2  and  N_3 
REMARK    2  A    between atoms: C_8  and  C_9 
REMARK       I    between atoms: C_9  and  N_10 
REMARK    3  A    between atoms: N_10  and  C_11 
ROOT
HETATM    1  C   UNL     1      41.935 -31.326   2.944  1.00  0.00     0.036 A 
HETATM    2  C   UNL     1      41.373 -32.583   2.726  1.00  0.00     0.049 A 
HETATM    3  C   UNL     1      40.317 -33.064   3.523  1.00  0.00     0.061 A 
HETATM    4  C   UNL     1      39.795 -32.259   4.544  1.00  0.00     0.050 A 
HETATM    5  N   UNL     1      38.670 -32.553   5.334  1.00  0.00    -0.324 N 
HETATM    6  C   UNL     1      37.566 -33.291   4.998  1.00  0.00     0.245 C 
HETATM    7  O   UNL     1      36.599 -33.266   5.763  1.00  0.00    -0.271 OA
HETATM    8  C   UNL     1      37.514 -33.937   3.613  1.00  0.00     0.180 C 
HETATM    9  N   UNL     1      38.630 -34.851   3.440  1.00  0.00    -0.334 N 
HETATM   10  C   UNL     1      39.945 -34.483   3.301  1.00  0.00     0.256 C 
HETATM   11  O   UNL     1      40.822 -35.289   2.996  1.00  0.00    -0.267 OA
HETATM   12  C   UNL     1      36.271 -34.813   3.410  1.00  0.00     0.037 C 
HETATM   13  C   UNL     1      36.779 -35.961   2.548  1.00  0.00     0.022 C 
HETATM   14  C   UNL     1      38.181 -36.186   3.090  1.00  0.00     0.127 C 
HETATM   15  C   UNL     1      40.427 -31.037   4.820  1.00  0.00     0.033 A 
HETATM   16  C   UNL     1      41.486 -30.575   4.030  1.00  0.00     0.032 A 
HETATM   17  H   UNL     1      38.515 -32.005   6.173  1.00  0.00     0.169 HD
ENDROOT
BRANCH   1  18
HETATM   18  N   UNL     1      42.956 -30.780   2.137  1.00  0.00    -0.323 N 
HETATM   19  C   UNL     1      42.810 -29.718   1.258  1.00  0.00     0.256 C 
HETATM   20  O   UNL     1      41.788 -29.056   1.105  1.00  0.00    -0.267 OA
HETATM   21  H   UNL     1      43.875 -31.180   2.253  1.00  0.00     0.169 HD
BRANCH  19  22
HETATM   22  C   UNL     1      44.004 -29.350   0.439  1.00  0.00     0.034 A 
HETATM   23  C   UNL     1      43.921 -28.864  -0.868  1.00  0.00     0.018 A 
HETATM   24  C   UNL     1      45.085 -28.537  -1.581  1.00  0.00     0.015 A 
HETATM   25  C   UNL     1      46.348 -28.712  -0.981  1.00  0.00    -0.008 A 
HETATM   26  C   UNL     1      46.418 -29.221   0.317  1.00  0.00     0.045 A 
HETATM   27  C   UNL     1      47.680 -28.477  -1.411  1.00  0.00     0.031 A 
HETATM   28  N   UNL     1      47.758 -29.303   0.656  1.00  0.00    -0.352 N 
HETATM   29  C   UNL     1      45.259 -29.544   1.041  1.00  0.00     0.047 A 
HETATM   30  C   UNL     1      48.523 -28.833  -0.383  1.00  0.00     0.092 A 
BRANCH  28  31
HETATM   31  C   UNL     1      48.269 -29.763   1.950  1.00  0.00     0.081 C 
HETATM   32  C   UNL     1      48.294 -28.615   2.956  1.00  0.00     0.032 C 
HETATM   33  C   UNL     1      49.635 -30.448   1.854  1.00  0.00     0.032 C 
ENDBRANCH  28  31
ENDBRANCH  19  22
ENDBRANCH   1  18
TORSDOF 3
ENDMDL
MODEL 8
REMARK VINA RESULT:      -8.6      2.100      3.201
REMARK  3 active torsions:
REMARK  status: ('A' for Active; 'I' for Inactive)
REMARK    1  A    between atoms: C_2  and  N_3 
REMARK    2  A    between atoms: C_8  and  C_9 
REMARK       I    between atoms: C_9  and  N_10 
REMARK    3  A    between atoms: N_10  and  C_11 
ROOT
HETATM    1  C   UNL     1      41.608 -12.490   6.065  1.00  0.00     0.036 A 
HETATM    2  C   UNL     1      42.136 -13.744   6.365  1.00  0.00     0.049 A 
HETATM    3  C   UNL     1      41.920 -14.852   5.525  1.00  0.00     0.061 A 
HETATM    4  C   UNL     1      41.180 -14.697   4.346  1.00  0.00     0.050 A 
HETATM    5  N   UNL     1      40.987 -15.675   3.355  1.00  0.00    -0.324 N 
HETATM    6  C   UNL     1      41.825 -16.700   3.000  1.00  0.00     0.245 C 
HETATM    7  O   UNL     1      41.564 -17.331   1.973  1.00  0.00    -0.271 OA
HETATM    8  C   UNL     1      43.132 -16.875   3.773  1.00  0.00     0.180 C 
HETATM    9  N   UNL     1      42.859 -17.099   5.182  1.00  0.00    -0.334 N 
HETATM   10  C   UNL     1      42.381 -16.158   6.059  1.00  0.00     0.256 C 
HETATM   11  O   UNL     1      42.323 -16.360   7.270  1.00  0.00    -0.267 OA
HETATM   12  C   UNL     1      43.921 -18.117   3.337  1.00  0.00     0.037 C 
HETATM   13  C   UNL     1      44.549 -18.615   4.632  1.00  0.00     0.022 C 
HETATM   14  C   UNL     1      43.463 -18.331   5.656  1.00  0.00     0.127 C 
HETATM   15  C   UNL     1      40.571 -13.457   4.098  1.00  0.00     0.033 A 
HETATM   16  C   UNL     1      40.781 -12.364   4.949  1.00  0.00     0.032 A 
HETATM   17  H   UNL     1      40.267 -15.520   2.659  1.00  0.00     0.169 HD
ENDROOT
BRANCH   1  18
HETATM   18  N   UNL     1      41.843 -11.339   6.847  1.00  0.00    -0.323 N 
HETATM   19  C   UNL     1      43.071 -10.719   7.023  1.00  0.00     0.256 C 
HETATM   20  O   UNL     1      44.117 -11.042   6.469  1.00  0.00    -0.267 OA
HETATM   21  H   UNL     1      41.032 -10.918   7.275  1.00  0.00     0.169 HD
BRANCH  19  22
HETATM   22  C   UNL     1      43.112  -9.556   7.960  1.00  0.00     0.034 A 
HETATM   23  C   UNL     1      44.215  -8.707   8.085  1.00  0.00     0.018 A 
HETATM   24  C   UNL     1      44.185  -7.631   8.986  1.00  0.00     0.015 A 
HETATM   25  C   UNL     1      43.043  -7.411   9.781  1.00  0.00    -0.008 A 
HETATM   26  C   UNL     1      41.957  -8.281   9.662  1.00  0.00     0.045 A 
HETATM   27  C   UNL     1      42.696  -6.439  10.755  1.00  0.00     0.031 A 
HETATM   28  N   UNL     1      40.986  -7.853  10.552  1.00  0.00    -0.352 N 
HETATM   29  C   UNL     1      41.973  -9.356   8.759  1.00  0.00     0.047 A 
HETATM   30  C   UNL     1      41.425  -6.724  11.199  1.00  0.00     0.092 A 
BRANCH  28  31
HETATM   31  C   UNL     1      39.672  -8.477  10.724  1.00  0.00     0.081 C 
HETATM   32  C   UNL     1      38.641  -7.442  11.169  1.00  0.00     0.032 C 
HETATM   33  C   UNL     1      39.691  -9.683  11.667  1.00  0.00     0.032 C 
ENDBRANCH  28  31
ENDBRANCH  19  22
ENDBRANCH   1  18
TORSDOF 3
ENDMDL
MODEL 9
REMARK VINA RESULT:      -8.4      2.973      4.167
REMARK  3 active torsions:
REMARK  status: ('A' for Active; 'I' for Inactive)
REMARK    1  A    between atoms: C_2  and  N_3 
REMARK    2  A    between atoms: C_8  and  C_9 
REMARK       I    between atoms: C_9  and  N_10 
REMARK    3  A    between atoms: N_10  and  C_11 
ROOT
HETATM    1  C   UNL     1      39.910 -11.210   5.301  1.00  0.00     0.036 A 
HETATM    2  C   UNL     1      40.516 -12.465   5.335  1.00  0.00     0.049 A 
HETATM    3  C   UNL     1      40.385 -13.373   4.266  1.00  0.00     0.061 A 
HETATM    4  C   UNL     1      39.653 -13.007   3.130  1.00  0.00     0.050 A 
HETATM    5  N   UNL     1      39.539 -13.753   1.944  1.00  0.00    -0.324 N 
HETATM    6  C   UNL     1      40.447 -14.622   1.397  1.00  0.00     0.245 C 
HETATM    7  O   UNL     1      40.242 -15.026   0.250  1.00  0.00    -0.271 OA
HETATM    8  C   UNL     1      41.752 -14.882   2.149  1.00  0.00     0.180 C 
HETATM    9  N   UNL     1      41.475 -15.427   3.467  1.00  0.00    -0.334 N 
HETATM   10  C   UNL     1      40.923 -14.734   4.515  1.00  0.00     0.256 C 
HETATM   11  O   UNL     1      40.862 -15.200   5.651  1.00  0.00    -0.267 OA
HETATM   12  C   UNL     1      42.627 -15.947   1.475  1.00  0.00     0.037 C 
HETATM   13  C   UNL     1      43.268 -16.679   2.647  1.00  0.00     0.022 C 
HETATM   14  C   UNL     1      42.151 -16.694   3.677  1.00  0.00     0.127 C 
HETATM   15  C   UNL     1      38.967 -11.782   3.142  1.00  0.00     0.033 A 
HETATM   16  C   UNL     1      39.093 -10.893   4.217  1.00  0.00     0.032 A 
HETATM   17  H   UNL     1      38.819 -13.493   1.279  1.00  0.00     0.169 HD
ENDROOT
BRANCH   1  18
HETATM   18  N   UNL     1      40.059 -10.247   6.323  1.00  0.00    -0.323 N 
HETATM   19  C   UNL     1      39.343 -10.211   7.509  1.00  0.00     0.256 C 
HETATM   20  O   UNL     1      38.525 -11.050   7.873  1.00  0.00    -0.267 OA
HETATM   21  H   UNL     1      40.782  -9.557   6.180  1.00  0.00     0.169 HD
BRANCH  19  22
HETATM   22  C   UNL     1      39.602  -9.055   8.419  1.00  0.00     0.034 A 
HETATM   23  C   UNL     1      39.379  -7.725   8.056  1.00  0.00     0.018 A 
HETATM   24  C   UNL     1      39.644  -6.685   8.961  1.00  0.00     0.015 A 
HETATM   25  C   UNL     1      40.151  -6.982  10.242  1.00  0.00    -0.008 A 
HETATM   26  C   UNL     1      40.391  -8.314  10.584  1.00  0.00     0.045 A 
HETATM   27  C   UNL     1      40.507  -6.191  11.365  1.00  0.00     0.031 A 
HETATM   28  N   UNL     1      40.891  -8.325  11.875  1.00  0.00    -0.352 N 
HETATM   29  C   UNL     1      40.123  -9.362   9.688  1.00  0.00     0.047 A 
HETATM   30  C   UNL     1      40.942  -7.040  12.357  1.00  0.00     0.092 A 
BRANCH  28  31
HETATM   31  C   UNL     1      41.250  -9.531  12.626  1.00  0.00     0.081 C 
HETATM   32  C   UNL     1      39.995 -10.247  13.122  1.00  0.00     0.032 C 
HETATM   33  C   UNL     1      42.226  -9.263  13.775  1.00  0.00     0.032 C 
ENDBRANCH  28  31
ENDBRANCH  19  22
ENDBRANCH   1  18
TORSDOF 3
ENDMDL
MODEL 10
REMARK VINA RESULT:      -8.2      2.726      9.870
REMARK  3 active torsions:
REMARK  status: ('A' for Active; 'I' for Inactive)
REMARK    1  A    between atoms: C_2  and  N_3 
REMARK    2  A    between atoms: C_8  and  C_9 
REMARK       I    between atoms: C_9  and  N_10 
REMARK    3  A    between atoms: N_10  and  C_11 
ROOT
HETATM    1  C   UNL     1      43.279 -10.266   9.160  1.00  0.00     0.036 A 
HETATM    2  C   UNL     1      42.086  -9.954   9.811  1.00  0.00     0.049 A 
HETATM    3  C   UNL     1      42.078  -9.265  11.039  1.00  0.00     0.061 A 
HETATM    4  C   UNL     1      43.287  -8.855  11.614  1.00  0.00     0.050 A 
HETATM    5  N   UNL     1      43.428  -8.058  12.763  1.00  0.00    -0.324 N 
HETATM    6  C   UNL     1      42.578  -7.093  13.236  1.00  0.00     0.245 C 
HETATM    7  O   UNL     1      42.977  -6.368  14.151  1.00  0.00    -0.271 OA
HETATM    8  C   UNL     1      41.275  -6.834  12.480  1.00  0.00     0.180 C 
HETATM    9  N   UNL     1      40.467  -8.042  12.438  1.00  0.00    -0.334 N 
HETATM   10  C   UNL     1      40.755  -9.166  11.706  1.00  0.00     0.256 C 
HETATM   11  O   UNL     1      39.956 -10.091  11.583  1.00  0.00    -0.267 OA
HETATM   12  C   UNL     1      40.377  -5.801  13.174  1.00  0.00     0.037 C 
HETATM   13  C   UNL     1      38.968  -6.313  12.903  1.00  0.00     0.022 C 
HETATM   14  C   UNL     1      39.142  -7.820  12.986  1.00  0.00     0.127 C 
HETATM   15  C   UNL     1      44.487  -9.255  11.004  1.00  0.00     0.033 A 
HETATM   16  C   UNL     1      44.483  -9.953   9.790  1.00  0.00     0.032 A 
HETATM   17  H   UNL     1      44.340  -8.005  13.203  1.00  0.00     0.169 HD
ENDROOT
BRANCH   1  18
HETATM   18  N   UNL     1      43.335 -10.906   7.904  1.00  0.00    -0.323 N 
HETATM   19  C   UNL     1      42.780 -10.426   6.727  1.00  0.00     0.256 C 
HETATM   20  O   UNL     1      42.219  -9.343   6.594  1.00  0.00    -0.267 OA
HETATM   21  H   UNL     1      43.864 -11.765   7.866  1.00  0.00     0.169 HD
BRANCH  19  22
HETATM   22  C   UNL     1      42.887 -11.304   5.523  1.00  0.00     0.034 A 
HETATM   23  C   UNL     1      42.937 -10.815   4.215  1.00  0.00     0.018 A 
HETATM   24  C   UNL     1      43.038 -11.698   3.129  1.00  0.00     0.015 A 
HETATM   25  C   UNL     1      43.077 -13.089   3.355  1.00  0.00    -0.008 A 
HETATM   26  C   UNL     1      43.004 -13.565   4.665  1.00  0.00     0.045 A 
HETATM   27  C   UNL     1      43.182 -14.219   2.504  1.00  0.00     0.031 A 
HETATM   28  N   UNL     1      43.050 -14.947   4.605  1.00  0.00    -0.352 N 
HETATM   29  C   UNL     1      42.910 -12.690   5.760  1.00  0.00     0.047 A 
HETATM   30  C   UNL     1      43.179 -15.344   3.297  1.00  0.00     0.092 A 
BRANCH  28  31
HETATM   31  C   UNL     1      43.027 -15.839   5.767  1.00  0.00     0.081 C 
HETATM   32  C   UNL     1      44.440 -16.064   6.299  1.00  0.00     0.032 C 
HETATM   33  C   UNL     1      42.317 -17.169   5.498  1.00  0.00     0.032 C 
ENDBRANCH  28  31
ENDBRANCH  19  22
ENDBRANCH   1  18
TORSDOF 3
ENDMDL
