MODEL 1
REMARK VINA RESULT:      -9.0      0.000      0.000
REMARK  5 active torsions:
REMARK  status: ('A' for Active; 'I' for Inactive)
REMARK    1  A    between atoms: C_5  and  C_6 
REMARK    2  A    between atoms: C_9  and  O_10 
REMARK    3  A    between atoms: N_14  and  C_15 
REMARK    4  A    between atoms: C_15  and  C_16 
REMARK       I    between atoms: C_16  and  N_17 
REMARK    5  A    between atoms: N_17  and  C_18 
ROOT
HETATM    1  C   UNL     1      41.457 -10.444  -1.453  1.00  0.00     0.156 C 
HETATM    2  N   UNL     1      40.953 -11.680  -0.904  1.00  0.00    -0.346 N 
HETATM    3  C   UNL     1      41.008 -12.051   0.396  1.00  0.00     0.113 A 
HETATM    4  C   UNL     1      40.450 -13.290   0.545  1.00  0.00     0.014 A 
HETATM    5  C   UNL     1      40.488 -13.708   1.969  1.00  0.00     0.158 A 
HETATM    6  N   UNL     1      41.055 -12.479   2.585  1.00  0.00    -0.325 N 
HETATM    7  C   UNL     1      41.394 -11.493   1.648  1.00  0.00     0.272 A 
HETATM    8  O   UNL     1      41.826 -10.375   1.873  1.00  0.00    -0.266 OA
HETATM    9  C   UNL     1      39.959 -13.703  -0.705  1.00  0.00     0.002 A 
HETATM   10  C   UNL     1      40.283 -12.673  -1.611  1.00  0.00     0.045 A 
HETATM   11  C   UNL     1      39.256 -14.830  -1.169  1.00  0.00     0.014 A 
HETATM   12  C   UNL     1      38.888 -14.902  -2.516  1.00  0.00     0.001 A 
HETATM   13  C   UNL     1      39.215 -13.874  -3.398  1.00  0.00     0.002 A 
HETATM   14  C   UNL     1      39.919 -12.746  -2.965  1.00  0.00     0.030 A 
ENDROOT
BRANCH   6  15
HETATM   15  C   UNL     1      40.672 -12.097   3.930  1.00  0.00     0.229 C 
BRANCH  15  16
HETATM   16  C   UNL     1      41.591 -12.608   5.029  1.00  0.00     0.235 C 
HETATM   17  N   UNL     1      41.267 -13.858   5.512  1.00  0.00    -0.355 N 
HETATM   18  H   UNL     1      40.472 -14.331   5.094  1.00  0.00     0.162 HD
HETATM   19  O   UNL     1      42.605 -11.995   5.357  1.00  0.00    -0.272 OA
BRANCH  17  20
HETATM   20  C   UNL     1      42.228 -14.622   6.276  1.00  0.00     0.084 C 
HETATM   21  C   UNL     1      41.664 -15.924   6.827  1.00  0.00     0.025 C 
HETATM   22  C   UNL     1      42.920 -16.719   7.152  1.00  0.00     0.002 C 
HETATM   23  C   UNL     1      43.872 -16.414   6.001  1.00  0.00     0.002 C 
HETATM   24  C   UNL     1      43.421 -15.073   5.422  1.00  0.00     0.025 C 
ENDBRANCH  17  20
ENDBRANCH  15  16
ENDBRANCH   6  15
BRANCH   5  25
HETATM   25  C   UNL     1      41.389 -14.919   2.118  1.00  0.00    -0.030 A 
HETATM   26  C   UNL     1      40.984 -16.141   2.682  1.00  0.00     0.012 A 
HETATM   27  C   UNL     1      41.874 -17.213   2.801  1.00  0.00     0.037 A 
HETATM   28  C   UNL     1      43.182 -17.110   2.332  1.00  0.00     0.068 A 
HETATM   29  C   UNL     1      43.593 -15.920   1.737  1.00  0.00     0.037 A 
HETATM   30  C   UNL     1      42.707 -14.838   1.634  1.00  0.00     0.012 A 
BRANCH  28  31
HETATM   31  O   UNL     1      43.945 -18.230   2.515  1.00  0.00    -0.356 OA
HETATM   32  C   UNL     1      43.321 -19.481   2.262  1.00  0.00     0.210 C 
ENDBRANCH  28  31
ENDBRANCH   5  25
TORSDOF 5
ENDMDL
MODEL 2
REMARK VINA RESULT:      -8.5      1.941      2.555
REMARK  5 active torsions:
REMARK  status: ('A' for Active; 'I' for Inactive)
REMARK    1  A    between atoms: C_5  and  C_6 
REMARK    2  A    between atoms: C_9  and  O_10 
REMARK    3  A    between atoms: N_14  and  C_15 
REMARK    4  A    between atoms: C_15  and  C_16 
REMARK       I    between atoms: C_16  and  N_17 
REMARK    5  A    between atoms: N_17  and  C_18 
ROOT
HETATM    1  C   UNL     1      41.689 -10.540  -0.984  1.00  0.00     0.156 C 
HETATM    2  N   UNL     1      41.177 -11.782  -0.456  1.00  0.00    -0.346 N 
HETATM    3  C   UNL     1      41.243 -12.183   0.834  1.00  0.00     0.113 A 
HETATM    4  C   UNL     1      40.672 -13.419   0.961  1.00  0.00     0.014 A 
HETATM    5  C   UNL     1      40.722 -13.870   2.375  1.00  0.00     0.158 A 
HETATM    6  N   UNL     1      41.312 -12.662   3.012  1.00  0.00    -0.325 N 
HETATM    7  C   UNL     1      41.652 -11.658   2.093  1.00  0.00     0.272 A 
HETATM    8  O   UNL     1      42.100 -10.551   2.338  1.00  0.00    -0.266 OA
HETATM    9  C   UNL     1      40.160 -13.797  -0.291  1.00  0.00     0.002 A 
HETATM   10  C   UNL     1      40.486 -12.750  -1.178  1.00  0.00     0.045 A 
HETATM   11  C   UNL     1      39.439 -14.904  -0.772  1.00  0.00     0.014 A 
HETATM   12  C   UNL     1      39.053 -14.941  -2.116  1.00  0.00     0.001 A 
HETATM   13  C   UNL     1      39.381 -13.897  -2.978  1.00  0.00     0.002 A 
HETATM   14  C   UNL     1      40.104 -12.788  -2.529  1.00  0.00     0.030 A 
ENDROOT
BRANCH   6  15
HETATM   15  C   UNL     1      40.951 -12.306   4.369  1.00  0.00     0.229 C 
BRANCH  15  16
HETATM   16  C   UNL     1      42.019 -12.591   5.414  1.00  0.00     0.235 C 
HETATM   17  N   UNL     1      43.096 -11.730   5.382  1.00  0.00    -0.355 N 
HETATM   18  H   UNL     1      43.081 -10.985   4.693  1.00  0.00     0.162 HD
HETATM   19  O   UNL     1      41.857 -13.445   6.284  1.00  0.00    -0.272 OA
BRANCH  17  20
HETATM   20  C   UNL     1      43.995 -11.637   6.510  1.00  0.00     0.084 C 
HETATM   21  C   UNL     1      45.428 -11.303   6.115  1.00  0.00     0.025 C 
HETATM   22  C   UNL     1      46.027 -10.812   7.425  1.00  0.00     0.002 C 
HETATM   23  C   UNL     1      44.917  -9.990   8.068  1.00  0.00     0.002 C 
HETATM   24  C   UNL     1      43.608 -10.505   7.470  1.00  0.00     0.025 C 
ENDBRANCH  17  20
ENDBRANCH  15  16
ENDBRANCH   6  15
BRANCH   5  25
HETATM   25  C   UNL     1      41.611 -15.094   2.485  1.00  0.00    -0.030 A 
HETATM   26  C   UNL     1      42.531 -15.494   1.500  1.00  0.00     0.012 A 
HETATM   27  C   UNL     1      43.310 -16.644   1.662  1.00  0.00     0.037 A 
HETATM   28  C   UNL     1      43.218 -17.410   2.823  1.00  0.00     0.068 A 
HETATM   29  C   UNL     1      42.339 -17.011   3.826  1.00  0.00     0.037 A 
HETATM   30  C   UNL     1      41.545 -15.868   3.657  1.00  0.00     0.012 A 
BRANCH  28  31
HETATM   31  O   UNL     1      44.033 -18.509   2.848  1.00  0.00    -0.356 OA
HETATM   32  C   UNL     1      43.540 -19.689   2.229  1.00  0.00     0.210 C 
ENDBRANCH  28  31
ENDBRANCH   5  25
TORSDOF 5
ENDMDL
MODEL 3
REMARK VINA RESULT:      -8.4      3.161      6.196
REMARK  5 active torsions:
REMARK  status: ('A' for Active; 'I' for Inactive)
REMARK    1  A    between atoms: C_5  and  C_6 
REMARK    2  A    between atoms: C_9  and  O_10 
REMARK    3  A    between atoms: N_14  and  C_15 
REMARK    4  A    between atoms: C_15  and  C_16 
REMARK       I    between atoms: C_16  and  N_17 
REMARK    5  A    between atoms: N_17  and  C_18 
ROOT
HETATM    1  C   UNL     1      40.446 -15.487   1.099  1.00  0.00     0.156 C 
HETATM    2  N   UNL     1      41.089 -15.476   2.392  1.00  0.00    -0.346 N 
HETATM    3  C   UNL     1      40.858 -14.587   3.385  1.00  0.00     0.113 A 
HETATM    4  C   UNL     1      41.660 -14.874   4.454  1.00  0.00     0.014 A 
HETATM    5  C   UNL     1      41.410 -13.917   5.562  1.00  0.00     0.158 A 
HETATM    6  N   UNL     1      40.289 -13.133   4.978  1.00  0.00    -0.325 N 
HETATM    7  C   UNL     1      39.970 -13.509   3.665  1.00  0.00     0.272 A 
HETATM    8  O   UNL     1      39.069 -13.075   2.969  1.00  0.00    -0.266 OA
HETATM    9  C   UNL     1      42.391 -16.036   4.156  1.00  0.00     0.002 A 
HETATM   10  C   UNL     1      42.017 -16.406   2.848  1.00  0.00     0.045 A 
HETATM   11  C   UNL     1      43.316 -16.831   4.857  1.00  0.00     0.014 A 
HETATM   12  C   UNL     1      43.840 -17.974   4.245  1.00  0.00     0.001 A 
HETATM   13  C   UNL     1      43.460 -18.326   2.952  1.00  0.00     0.002 A 
HETATM   14  C   UNL     1      42.547 -17.551   2.230  1.00  0.00     0.030 A 
ENDROOT
BRANCH   6  15
HETATM   15  C   UNL     1      39.263 -12.579   5.840  1.00  0.00     0.229 C 
BRANCH  15  16
HETATM   16  C   UNL     1      39.426 -11.102   6.165  1.00  0.00     0.235 C 
HETATM   17  N   UNL     1      40.169 -10.843   7.298  1.00  0.00    -0.355 N 
HETATM   18  H   UNL     1      40.551 -11.638   7.800  1.00  0.00     0.162 HD
HETATM   19  O   UNL     1      39.027 -10.226   5.400  1.00  0.00    -0.272 OA
BRANCH  17  20
HETATM   20  C   UNL     1      40.713  -9.525   7.533  1.00  0.00     0.084 C 
HETATM   21  C   UNL     1      40.913  -9.208   9.009  1.00  0.00     0.025 C 
HETATM   22  C   UNL     1      41.885  -8.038   8.970  1.00  0.00     0.002 C 
HETATM   23  C   UNL     1      42.858  -8.389   7.850  1.00  0.00     0.002 C 
HETATM   24  C   UNL     1      42.115  -9.359   6.932  1.00  0.00     0.025 C 
ENDBRANCH  17  20
ENDBRANCH  15  16
ENDBRANCH   6  15
BRANCH   5  25
HETATM   25  C   UNL     1      42.654 -13.086   5.805  1.00  0.00    -0.030 A 
HETATM   26  C   UNL     1      43.384 -13.086   7.007  1.00  0.00     0.012 A 
HETATM   27  C   UNL     1      44.517 -12.283   7.166  1.00  0.00     0.037 A 
HETATM   28  C   UNL     1      44.975 -11.480   6.123  1.00  0.00     0.068 A 
HETATM   29  C   UNL     1      44.288 -11.493   4.912  1.00  0.00     0.037 A 
HETATM   30  C   UNL     1      43.141 -12.284   4.757  1.00  0.00     0.012 A 
BRANCH  28  31
HETATM   31  O   UNL     1      46.089 -10.744   6.415  1.00  0.00    -0.356 OA
HETATM   32  C   UNL     1      46.207 -10.256   7.745  1.00  0.00     0.210 C 
ENDBRANCH  28  31
ENDBRANCH   5  25
TORSDOF 5
ENDMDL
MODEL 4
REMARK VINA RESULT:      -8.1      3.739      6.999
REMARK  5 active torsions:
REMARK  status: ('A' for Active; 'I' for Inactive)
REMARK    1  A    between atoms: C_5  and  C_6 
REMARK    2  A    between atoms: C_9  and  O_10 
REMARK    3  A    between atoms: N_14  and  C_15 
REMARK    4  A    between atoms: C_15  and  C_16 
REMARK       I    between atoms: C_16  and  N_17 
REMARK    5  A    between atoms: N_17  and  C_18 
ROOT
HETATM    1  C   UNL     1      43.036 -17.434   6.634  1.00  0.00     0.156 C 
HETATM    2  N   UNL     1      43.071 -16.345   5.687  1.00  0.00    -0.346 N 
HETATM    3  C   UNL     1      43.136 -15.030   5.994  1.00  0.00     0.113 A 
HETATM    4  C   UNL     1      43.134 -14.289   4.845  1.00  0.00     0.014 A 
HETATM    5  C   UNL     1      43.219 -12.841   5.160  1.00  0.00     0.158 A 
HETATM    6  N   UNL     1      43.368 -12.907   6.639  1.00  0.00    -0.325 N 
HETATM    7  C   UNL     1      43.291 -14.211   7.149  1.00  0.00     0.272 A 
HETATM    8  O   UNL     1      43.431 -14.562   8.308  1.00  0.00    -0.266 OA
HETATM    9  C   UNL     1      43.133 -15.173   3.753  1.00  0.00     0.002 A 
HETATM   10  C   UNL     1      43.095 -16.471   4.302  1.00  0.00     0.045 A 
HETATM   11  C   UNL     1      43.179 -15.020   2.355  1.00  0.00     0.014 A 
HETATM   12  C   UNL     1      43.194 -16.157   1.541  1.00  0.00     0.001 A 
HETATM   13  C   UNL     1      43.158 -17.432   2.100  1.00  0.00     0.002 A 
HETATM   14  C   UNL     1      43.105 -17.613   3.485  1.00  0.00     0.030 A 
ENDROOT
BRANCH   6  15
HETATM   15  C   UNL     1      44.146 -11.903   7.337  1.00  0.00     0.229 C 
BRANCH  15  16
HETATM   16  C   UNL     1      43.329 -10.811   8.011  1.00  0.00     0.235 C 
HETATM   17  N   UNL     1      43.524 -10.708   9.373  1.00  0.00    -0.355 N 
HETATM   18  H   UNL     1      44.191 -11.341   9.801  1.00  0.00     0.162 HD
HETATM   19  O   UNL     1      42.653 -10.017   7.360  1.00  0.00    -0.272 OA
BRANCH  17  20
HETATM   20  C   UNL     1      43.116  -9.518  10.085  1.00  0.00     0.084 C 
HETATM   21  C   UNL     1      41.898  -9.732  10.974  1.00  0.00     0.025 C 
HETATM   22  C   UNL     1      41.965  -8.544  11.922  1.00  0.00     0.002 C 
HETATM   23  C   UNL     1      43.449  -8.384  12.228  1.00  0.00     0.002 C 
HETATM   24  C   UNL     1      44.195  -9.025  11.058  1.00  0.00     0.025 C 
ENDBRANCH  17  20
ENDBRANCH  15  16
ENDBRANCH   6  15
BRANCH   5  25
HETATM   25  C   UNL     1      41.943 -12.150   4.721  1.00  0.00    -0.030 A 
HETATM   26  C   UNL     1      40.688 -12.350   5.322  1.00  0.00     0.012 A 
HETATM   27  C   UNL     1      39.548 -11.688   4.855  1.00  0.00     0.037 A 
HETATM   28  C   UNL     1      39.631 -10.785   3.797  1.00  0.00     0.068 A 
HETATM   29  C   UNL     1      40.870 -10.546   3.211  1.00  0.00     0.037 A 
HETATM   30  C   UNL     1      42.011 -11.222   3.667  1.00  0.00     0.012 A 
BRANCH  28  31
HETATM   31  O   UNL     1      38.441 -10.213   3.441  1.00  0.00    -0.356 OA
HETATM   32  C   UNL     1      38.011 -10.406   2.100  1.00  0.00     0.210 C 
ENDBRANCH  28  31
ENDBRANCH   5  25
TORSDOF 5
ENDMDL
MODEL 5
REMARK VINA RESULT:      -8.0      2.502      6.997
REMARK  5 active torsions:
REMARK  status: ('A' for Active; 'I' for Inactive)
REMARK    1  A    between atoms: C_5  and  C_6 
REMARK    2  A    between atoms: C_9  and  O_10 
REMARK    3  A    between atoms: N_14  and  C_15 
REMARK    4  A    between atoms: C_15  and  C_16 
REMARK       I    between atoms: C_16  and  N_17 
REMARK    5  A    between atoms: N_17  and  C_18 
ROOT
HETATM    1  C   UNL     1      40.766  -9.877   7.146  1.00  0.00     0.156 C 
HETATM    2  N   UNL     1      41.798 -10.510   6.360  1.00  0.00    -0.346 N 
HETATM    3  C   UNL     1      41.640 -11.048   5.129  1.00  0.00     0.113 A 
HETATM    4  C   UNL     1      42.827 -11.574   4.701  1.00  0.00     0.014 A 
HETATM    5  C   UNL     1      42.677 -12.156   3.343  1.00  0.00     0.158 A 
HETATM    6  N   UNL     1      41.266 -11.784   3.057  1.00  0.00    -0.325 N 
HETATM    7  C   UNL     1      40.629 -11.145   4.130  1.00  0.00     0.272 A 
HETATM    8  O   UNL     1      39.499 -10.687   4.155  1.00  0.00    -0.266 OA
HETATM    9  C   UNL     1      43.804 -11.303   5.674  1.00  0.00     0.002 A 
HETATM   10  C   UNL     1      43.137 -10.628   6.718  1.00  0.00     0.045 A 
HETATM   11  C   UNL     1      45.186 -11.538   5.781  1.00  0.00     0.014 A 
HETATM   12  C   UNL     1      45.872 -11.092   6.915  1.00  0.00     0.001 A 
HETATM   13  C   UNL     1      45.199 -10.425   7.936  1.00  0.00     0.002 A 
HETATM   14  C   UNL     1      43.824 -10.184   7.859  1.00  0.00     0.030 A 
ENDROOT
BRANCH   6  15
HETATM   15  C   UNL     1      40.851 -11.498   1.697  1.00  0.00     0.229 C 
BRANCH  15  16
HETATM   16  C   UNL     1      39.844 -12.478   1.114  1.00  0.00     0.235 C 
HETATM   17  N   UNL     1      39.436 -12.182  -0.170  1.00  0.00    -0.355 N 
HETATM   18  H   UNL     1      39.843 -11.367  -0.617  1.00  0.00     0.162 HD
HETATM   19  O   UNL     1      39.528 -13.507   1.707  1.00  0.00    -0.272 OA
BRANCH  17  20
HETATM   20  C   UNL     1      38.784 -13.185  -0.982  1.00  0.00     0.084 C 
HETATM   21  C   UNL     1      37.899 -12.599  -2.073  1.00  0.00     0.025 C 
HETATM   22  C   UNL     1      37.727 -13.771  -3.028  1.00  0.00     0.002 C 
HETATM   23  C   UNL     1      39.097 -14.439  -3.061  1.00  0.00     0.002 C 
HETATM   24  C   UNL     1      39.788 -14.052  -1.753  1.00  0.00     0.025 C 
ENDBRANCH  17  20
ENDBRANCH  15  16
ENDBRANCH   6  15
BRANCH   5  25
HETATM   25  C   UNL     1      42.895 -13.656   3.408  1.00  0.00    -0.030 A 
HETATM   26  C   UNL     1      42.817 -14.416   4.588  1.00  0.00     0.012 A 
HETATM   27  C   UNL     1      43.043 -15.795   4.577  1.00  0.00     0.037 A 
HETATM   28  C   UNL     1      43.323 -16.463   3.386  1.00  0.00     0.068 A 
HETATM   29  C   UNL     1      43.369 -15.734   2.200  1.00  0.00     0.037 A 
HETATM   30  C   UNL     1      43.160 -14.348   2.213  1.00  0.00     0.012 A 
BRANCH  28  31
HETATM   31  O   UNL     1      43.527 -17.808   3.519  1.00  0.00    -0.356 OA
HETATM   32  C   UNL     1      44.340 -18.231   4.605  1.00  0.00     0.210 C 
ENDBRANCH  28  31
ENDBRANCH   5  25
TORSDOF 5
ENDMDL
MODEL 6
REMARK VINA RESULT:      -8.0      2.710      5.992
REMARK  5 active torsions:
REMARK  status: ('A' for Active; 'I' for Inactive)
REMARK    1  A    between atoms: C_5  and  C_6 
REMARK    2  A    between atoms: C_9  and  O_10 
REMARK    3  A    between atoms: N_14  and  C_15 
REMARK    4  A    between atoms: C_15  and  C_16 
REMARK       I    between atoms: C_16  and  N_17 
REMARK    5  A    between atoms: N_17  and  C_18 
ROOT
HETATM    1  C   UNL     1      41.701 -16.080   7.129  1.00  0.00     0.156 C 
HETATM    2  N   UNL     1      42.152 -15.934   5.766  1.00  0.00    -0.346 N 
HETATM    3  C   UNL     1      42.003 -14.833   4.995  1.00  0.00     0.113 A 
HETATM    4  C   UNL     1      42.536 -15.063   3.757  1.00  0.00     0.014 A 
HETATM    5  C   UNL     1      42.395 -13.859   2.899  1.00  0.00     0.158 A 
HETATM    6  N   UNL     1      41.799 -12.912   3.879  1.00  0.00    -0.325 N 
HETATM    7  C   UNL     1      41.536 -13.494   5.128  1.00  0.00     0.272 A 
HETATM    8  O   UNL     1      41.102 -12.944   6.125  1.00  0.00    -0.266 OA
HETATM    9  C   UNL     1      43.109 -16.346   3.757  1.00  0.00     0.002 A 
HETATM   10  C   UNL     1      42.859 -16.884   5.036  1.00  0.00     0.045 A 
HETATM   11  C   UNL     1      43.830 -17.108   2.820  1.00  0.00     0.014 A 
HETATM   12  C   UNL     1      44.290 -18.379   3.178  1.00  0.00     0.001 A 
HETATM   13  C   UNL     1      44.036 -18.895   4.446  1.00  0.00     0.002 A 
HETATM   14  C   UNL     1      43.317 -18.162   5.395  1.00  0.00     0.030 A 
ENDROOT
BRANCH   6  15
HETATM   15  C   UNL     1      42.091 -11.495   3.791  1.00  0.00     0.229 C 
BRANCH  15  16
HETATM   16  C   UNL     1      43.266 -11.027   4.637  1.00  0.00     0.235 C 
HETATM   17  N   UNL     1      42.911 -10.443   5.835  1.00  0.00    -0.355 N 
HETATM   18  H   UNL     1      41.922 -10.390   6.057  1.00  0.00     0.162 HD
HETATM   19  O   UNL     1      44.427 -11.271   4.318  1.00  0.00    -0.272 OA
BRANCH  17  20
HETATM   20  C   UNL     1      43.886 -10.284   6.891  1.00  0.00     0.084 C 
HETATM   21  C   UNL     1      43.594  -9.106   7.811  1.00  0.00     0.025 C 
HETATM   22  C   UNL     1      44.432  -9.428   9.039  1.00  0.00     0.002 C 
HETATM   23  C   UNL     1      44.285 -10.934   9.216  1.00  0.00     0.002 C 
HETATM   24  C   UNL     1      43.917 -11.489   7.840  1.00  0.00     0.025 C 
ENDBRANCH  17  20
ENDBRANCH  15  16
ENDBRANCH   6  15
BRANCH   5  25
HETATM   25  C   UNL     1      41.472 -14.170   1.736  1.00  0.00    -0.030 A 
HETATM   26  C   UNL     1      40.680 -15.328   1.643  1.00  0.00     0.012 A 
HETATM   27  C   UNL     1      39.861 -15.557   0.533  1.00  0.00     0.037 A 
HETATM   28  C   UNL     1      39.782 -14.626  -0.500  1.00  0.00     0.068 A 
HETATM   29  C   UNL     1      40.530 -13.455  -0.409  1.00  0.00     0.037 A 
HETATM   30  C   UNL     1      41.366 -13.232   0.694  1.00  0.00     0.012 A 
BRANCH  28  31
HETATM   31  O   UNL     1      38.947 -14.977  -1.524  1.00  0.00    -0.356 OA
HETATM   32  C   UNL     1      39.133 -14.309  -2.764  1.00  0.00     0.210 C 
ENDBRANCH  28  31
ENDBRANCH   5  25
TORSDOF 5
ENDMDL
MODEL 7
REMARK VINA RESULT:      -7.8      2.726      7.319
REMARK  5 active torsions:
REMARK  status: ('A' for Active; 'I' for Inactive)
REMARK    1  A    between atoms: C_5  and  C_6 
REMARK    2  A    between atoms: C_9  and  O_10 
REMARK    3  A    between atoms: N_14  and  C_15 
REMARK    4  A    between atoms: C_15  and  C_16 
REMARK       I    between atoms: C_16  and  N_17 
REMARK    5  A    between atoms: N_17  and  C_18 
ROOT
HETATM    1  C   UNL     1      43.493 -16.571   1.674  1.00  0.00     0.156 C 
HETATM    2  N   UNL     1      43.244 -16.012   2.981  1.00  0.00    -0.346 N 
HETATM    3  C   UNL     1      42.858 -14.741   3.239  1.00  0.00     0.113 A 
HETATM    4  C   UNL     1      42.736 -14.563   4.589  1.00  0.00     0.014 A 
HETATM    5  C   UNL     1      42.299 -13.177   4.893  1.00  0.00     0.158 A 
HETATM    6  N   UNL     1      42.105 -12.659   3.512  1.00  0.00    -0.325 N 
HETATM    7  C   UNL     1      42.464 -13.579   2.516  1.00  0.00     0.272 A 
HETATM    8  O   UNL     1      42.360 -13.442   1.309  1.00  0.00    -0.266 OA
HETATM    9  C   UNL     1      42.993 -15.793   5.219  1.00  0.00     0.002 A 
HETATM   10  C   UNL     1      43.312 -16.700   4.188  1.00  0.00     0.045 A 
HETATM   11  C   UNL     1      42.974 -16.246   6.551  1.00  0.00     0.014 A 
HETATM   12  C   UNL     1      43.263 -17.587   6.823  1.00  0.00     0.001 A 
HETATM   13  C   UNL     1      43.574 -18.470   5.792  1.00  0.00     0.002 A 
HETATM   14  C   UNL     1      43.607 -18.045   4.461  1.00  0.00     0.030 A 
ENDROOT
BRANCH   6  15
HETATM   15  C   UNL     1      41.082 -11.668   3.244  1.00  0.00     0.229 C 
BRANCH  15  16
HETATM   16  C   UNL     1      39.847 -12.196   2.529  1.00  0.00     0.235 C 
HETATM   17  N   UNL     1      39.775 -11.866   1.192  1.00  0.00    -0.355 N 
HETATM   18  H   UNL     1      40.540 -11.328   0.799  1.00  0.00     0.162 HD
HETATM   19  O   UNL     1      39.056 -12.954   3.086  1.00  0.00    -0.272 OA
BRANCH  17  20
HETATM   20  C   UNL     1      38.881 -12.579   0.308  1.00  0.00     0.084 C 
HETATM   21  C   UNL     1      38.165 -11.675  -0.686  1.00  0.00     0.025 C 
HETATM   22  C   UNL     1      37.690 -12.657  -1.747  1.00  0.00     0.002 C 
HETATM   23  C   UNL     1      38.843 -13.642  -1.896  1.00  0.00     0.002 C 
HETATM   24  C   UNL     1      39.623 -13.584  -0.583  1.00  0.00     0.025 C 
ENDBRANCH  17  20
ENDBRANCH  15  16
ENDBRANCH   6  15
BRANCH   5  25
HETATM   25  C   UNL     1      43.395 -12.454   5.652  1.00  0.00    -0.030 A 
HETATM   26  C   UNL     1      44.476 -11.795   5.042  1.00  0.00     0.012 A 
HETATM   27  C   UNL     1      45.460 -11.159   5.805  1.00  0.00     0.037 A 
HETATM   28  C   UNL     1      45.378 -11.133   7.196  1.00  0.00     0.068 A 
HETATM   29  C   UNL     1      44.295 -11.749   7.818  1.00  0.00     0.037 A 
HETATM   30  C   UNL     1      43.318 -12.402   7.055  1.00  0.00     0.012 A 
BRANCH  28  31
HETATM   31  O   UNL     1      46.407 -10.481   7.817  1.00  0.00    -0.356 OA
HETATM   32  C   UNL     1      46.234  -9.092   8.061  1.00  0.00     0.210 C 
ENDBRANCH  28  31
ENDBRANCH   5  25
TORSDOF 5
ENDMDL
MODEL 8
REMARK VINA RESULT:      -7.8      3.069      6.856
REMARK  5 active torsions:
REMARK  status: ('A' for Active; 'I' for Inactive)
REMARK    1  A    between atoms: C_5  and  C_6 
REMARK    2  A    between atoms: C_9  and  O_10 
REMARK    3  A    between atoms: N_14  and  C_15 
REMARK    4  A    between atoms: C_15  and  C_16 
REMARK       I    between atoms: C_16  and  N_17 
REMARK    5  A    between atoms: N_17  and  C_18 
ROOT
HETATM    1  C   UNL     1      40.793  -8.613   8.091  1.00  0.00     0.156 C 
HETATM    2  N   UNL     1      41.726  -9.559   7.526  1.00  0.00    -0.346 N 
HETATM    3  C   UNL     1      41.480 -10.394   6.492  1.00  0.00     0.113 A 
HETATM    4  C   UNL     1      42.588 -11.157   6.243  1.00  0.00     0.014 A 
HETATM    5  C   UNL     1      42.342 -12.071   5.099  1.00  0.00     0.158 A 
HETATM    6  N   UNL     1      40.980 -11.627   4.701  1.00  0.00    -0.325 N 
HETATM    7  C   UNL     1      40.446 -10.644   5.546  1.00  0.00     0.272 A 
HETATM    8  O   UNL     1      39.379 -10.066   5.427  1.00  0.00    -0.266 OA
HETATM    9  C   UNL     1      43.609 -10.745   7.116  1.00  0.00     0.002 A 
HETATM   10  C   UNL     1      43.049  -9.732   7.921  1.00  0.00     0.045 A 
HETATM   11  C   UNL     1      44.956 -11.104   7.303  1.00  0.00     0.014 A 
HETATM   12  C   UNL     1      45.713 -10.445   8.277  1.00  0.00     0.001 A 
HETATM   13  C   UNL     1      45.145  -9.446   9.063  1.00  0.00     0.002 A 
HETATM   14  C   UNL     1      43.807  -9.073   8.903  1.00  0.00     0.030 A 
ENDROOT
BRANCH   6  15
HETATM   15  C   UNL     1      40.575 -11.683   3.310  1.00  0.00     0.229 C 
BRANCH  15  16
HETATM   16  C   UNL     1      40.506 -13.083   2.717  1.00  0.00     0.235 C 
HETATM   17  N   UNL     1      41.658 -13.491   2.079  1.00  0.00    -0.355 N 
HETATM   18  H   UNL     1      42.444 -12.849   2.071  1.00  0.00     0.162 HD
HETATM   19  O   UNL     1      39.540 -13.817   2.911  1.00  0.00    -0.272 OA
BRANCH  17  20
HETATM   20  C   UNL     1      41.881 -14.890   1.791  1.00  0.00     0.084 C 
HETATM   21  C   UNL     1      43.352 -15.285   1.813  1.00  0.00     0.025 C 
HETATM   22  C   UNL     1      43.287 -16.799   1.956  1.00  0.00     0.002 C 
HETATM   23  C   UNL     1      42.141 -17.041   2.930  1.00  0.00     0.002 C 
HETATM   24  C   UNL     1      41.241 -15.808   2.841  1.00  0.00     0.025 C 
ENDBRANCH  17  20
ENDBRANCH  15  16
ENDBRANCH   6  15
BRANCH   5  25
HETATM   25  C   UNL     1      42.383 -13.508   5.582  1.00  0.00    -0.030 A 
HETATM   26  C   UNL     1      41.283 -14.188   6.135  1.00  0.00     0.012 A 
HETATM   27  C   UNL     1      41.396 -15.511   6.573  1.00  0.00     0.037 A 
HETATM   28  C   UNL     1      42.597 -16.206   6.443  1.00  0.00     0.068 A 
HETATM   29  C   UNL     1      43.688 -15.563   5.865  1.00  0.00     0.037 A 
HETATM   30  C   UNL     1      43.581 -14.230   5.442  1.00  0.00     0.012 A 
BRANCH  28  31
HETATM   31  O   UNL     1      42.568 -17.489   6.914  1.00  0.00    -0.356 OA
HETATM   32  C   UNL     1      43.409 -18.432   6.264  1.00  0.00     0.210 C 
ENDBRANCH  28  31
ENDBRANCH   5  25
TORSDOF 5
ENDMDL
MODEL 9
REMARK VINA RESULT:      -7.6      2.157      6.709
REMARK  5 active torsions:
REMARK  status: ('A' for Active; 'I' for Inactive)
REMARK    1  A    between atoms: C_5  and  C_6 
REMARK    2  A    between atoms: C_9  and  O_10 
REMARK    3  A    between atoms: N_14  and  C_15 
REMARK    4  A    between atoms: C_15  and  C_16 
REMARK       I    between atoms: C_16  and  N_17 
REMARK    5  A    between atoms: N_17  and  C_18 
ROOT
HETATM    1  C   UNL     1      42.167 -15.865   7.051  1.00  0.00     0.156 C 
HETATM    2  N   UNL     1      42.522 -15.803   5.653  1.00  0.00    -0.346 N 
HETATM    3  C   UNL     1      42.469 -14.702   4.869  1.00  0.00     0.113 A 
HETATM    4  C   UNL     1      42.861 -15.023   3.599  1.00  0.00     0.014 A 
HETATM    5  C   UNL     1      42.822 -13.822   2.726  1.00  0.00     0.158 A 
HETATM    6  N   UNL     1      42.449 -12.786   3.726  1.00  0.00    -0.325 N 
HETATM    7  C   UNL     1      42.209 -13.309   5.005  1.00  0.00     0.272 A 
HETATM    8  O   UNL     1      41.940 -12.688   6.020  1.00  0.00    -0.266 OA
HETATM    9  C   UNL     1      43.244 -16.375   3.586  1.00  0.00     0.002 A 
HETATM   10  C   UNL     1      43.025 -16.854   4.894  1.00  0.00     0.045 A 
HETATM   11  C   UNL     1      43.771 -17.244   2.614  1.00  0.00     0.014 A 
HETATM   12  C   UNL     1      44.074 -18.563   2.967  1.00  0.00     0.001 A 
HETATM   13  C   UNL     1      43.854 -19.021   4.264  1.00  0.00     0.002 A 
HETATM   14  C   UNL     1      43.325 -18.180   5.247  1.00  0.00     0.030 A 
ENDROOT
BRANCH   6  15
HETATM   15  C   UNL     1      42.931 -11.428   3.579  1.00  0.00     0.229 C 
BRANCH  15  16
HETATM   16  C   UNL     1      41.850 -10.384   3.341  1.00  0.00     0.235 C 
HETATM   17  N   UNL     1      41.780  -9.918   2.046  1.00  0.00    -0.355 N 
HETATM   18  H   UNL     1      42.427 -10.310   1.369  1.00  0.00     0.162 HD
HETATM   19  O   UNL     1      41.036 -10.089   4.215  1.00  0.00    -0.272 OA
BRANCH  17  20
HETATM   20  C   UNL     1      40.603  -9.218   1.580  1.00  0.00     0.084 C 
HETATM   21  C   UNL     1      40.760  -8.635   0.182  1.00  0.00     0.025 C 
HETATM   22  C   UNL     1      39.318  -8.391  -0.240  1.00  0.00     0.002 C 
HETATM   23  C   UNL     1      38.557  -9.599   0.293  1.00  0.00     0.002 C 
HETATM   24  C   UNL     1      39.388 -10.145   1.454  1.00  0.00     0.025 C 
ENDBRANCH  17  20
ENDBRANCH  15  16
ENDBRANCH   6  15
BRANCH   5  25
HETATM   25  C   UNL     1      41.773 -14.013   1.647  1.00  0.00    -0.030 A 
HETATM   26  C   UNL     1      40.947 -15.145   1.540  1.00  0.00     0.012 A 
HETATM   27  C   UNL     1      40.008 -15.261   0.510  1.00  0.00     0.037 A 
HETATM   28  C   UNL     1      39.844 -14.240  -0.423  1.00  0.00     0.068 A 
HETATM   29  C   UNL     1      40.628 -13.094  -0.313  1.00  0.00     0.037 A 
HETATM   30  C   UNL     1      41.581 -12.985   0.708  1.00  0.00     0.012 A 
BRANCH  28  31
HETATM   31  O   UNL     1      38.895 -14.485  -1.378  1.00  0.00    -0.356 OA
HETATM   32  C   UNL     1      38.240 -13.356  -1.938  1.00  0.00     0.210 C 
ENDBRANCH  28  31
ENDBRANCH   5  25
TORSDOF 5
ENDMDL
MODEL 10
REMARK VINA RESULT:      -7.6      2.615      6.168
REMARK  5 active torsions:
REMARK  status: ('A' for Active; 'I' for Inactive)
REMARK    1  A    between atoms: C_5  and  C_6 
REMARK    2  A    between atoms: C_9  and  O_10 
REMARK    3  A    between atoms: N_14  and  C_15 
REMARK    4  A    between atoms: C_15  and  C_16 
REMARK       I    between atoms: C_16  and  N_17 
REMARK    5  A    between atoms: N_17  and  C_18 
ROOT
HETATM    1  C   UNL     1      43.841  -9.903   7.372  1.00  0.00     0.156 C 
HETATM    2  N   UNL     1      42.722 -10.594   6.779  1.00  0.00    -0.346 N 
HETATM    3  C   UNL     1      42.672 -11.913   6.481  1.00  0.00     0.113 A 
HETATM    4  C   UNL     1      41.464 -12.211   5.914  1.00  0.00     0.014 A 
HETATM    5  C   UNL     1      41.383 -13.658   5.594  1.00  0.00     0.158 A 
HETATM    6  N   UNL     1      42.680 -14.120   6.158  1.00  0.00    -0.325 N 
HETATM    7  C   UNL     1      43.469 -13.078   6.666  1.00  0.00     0.272 A 
HETATM    8  O   UNL     1      44.546 -13.173   7.230  1.00  0.00    -0.266 OA
HETATM    9  C   UNL     1      40.682 -11.043   5.908  1.00  0.00     0.002 A 
HETATM   10  C   UNL     1      41.492 -10.029   6.459  1.00  0.00     0.045 A 
HETATM   11  C   UNL     1      39.368 -10.733   5.512  1.00  0.00     0.014 A 
HETATM   12  C   UNL     1      38.890  -9.430   5.681  1.00  0.00     0.001 A 
HETATM   13  C   UNL     1      39.703  -8.440   6.229  1.00  0.00     0.002 A 
HETATM   14  C   UNL     1      41.015  -8.719   6.624  1.00  0.00     0.030 A 
ENDROOT
BRANCH   6  15
HETATM   15  C   UNL     1      42.796 -15.453   6.717  1.00  0.00     0.229 C 
BRANCH  15  16
HETATM   16  C   UNL     1      43.620 -16.427   5.888  1.00  0.00     0.235 C 
HETATM   17  N   UNL     1      42.890 -17.174   4.988  1.00  0.00    -0.355 N 
HETATM   18  H   UNL     1      41.890 -17.006   4.940  1.00  0.00     0.162 HD
HETATM   19  O   UNL     1      44.848 -16.441   5.945  1.00  0.00    -0.272 OA
BRANCH  17  20
HETATM   20  C   UNL     1      43.548 -17.860   3.899  1.00  0.00     0.084 C 
HETATM   21  C   UNL     1      43.932 -19.296   4.233  1.00  0.00     0.025 C 
HETATM   22  C   UNL     1      44.150 -19.909   2.857  1.00  0.00     0.002 C 
HETATM   23  C   UNL     1      43.045 -19.312   1.994  1.00  0.00     0.002 C 
HETATM   24  C   UNL     1      42.642 -18.001   2.669  1.00  0.00     0.025 C 
ENDBRANCH  17  20
ENDBRANCH  15  16
ENDBRANCH   6  15
BRANCH   5  25
HETATM   25  C   UNL     1      41.289 -13.840   4.091  1.00  0.00    -0.030 A 
HETATM   26  C   UNL     1      42.391 -14.090   3.255  1.00  0.00     0.012 A 
HETATM   27  C   UNL     1      42.233 -14.234   1.873  1.00  0.00     0.037 A 
HETATM   28  C   UNL     1      40.969 -14.167   1.289  1.00  0.00     0.068 A 
HETATM   29  C   UNL     1      39.861 -13.957   2.105  1.00  0.00     0.037 A 
HETATM   30  C   UNL     1      40.020 -13.794   3.488  1.00  0.00     0.012 A 
BRANCH  28  31
HETATM   31  O   UNL     1      40.959 -14.321  -0.070  1.00  0.00    -0.356 OA
HETATM   32  C   UNL     1      39.696 -14.542  -0.683  1.00  0.00     0.210 C 
ENDBRANCH  28  31
ENDBRANCH   5  25
TORSDOF 5
ENDMDL
