MODEL 1
REMARK VINA RESULT:      -7.4      0.000      0.000
REMARK  6 active torsions:
REMARK  status: ('A' for Active; 'I' for Inactive)
REMARK    1  A    between atoms: C_2  and  O_3 
REMARK    2  A    between atoms: O_3  and  C_4 
REMARK    3  A    between atoms: C_4  and  C_5 
REMARK    4  A    between atoms: C_6  and  O_7 
REMARK    5  A    between atoms: C_12  and  O_13 
REMARK    6  A    between atoms: C_17  and  C_18 
ROOT
HETATM    1  C   UNL     1      43.158 -15.498   5.621  1.00  0.00     0.133 C 
HETATM    2  C   UNL     1      43.678 -16.232   6.896  1.00  0.00     0.073 C 
HETATM    3  C   UNL     1      43.207 -15.570   8.200  1.00  0.00     0.047 C 
HETATM    4  C   UNL     1      43.325 -17.749   6.932  1.00  0.00     0.097 C 
HETATM    5  C   UNL     1      43.516 -18.344   5.585  1.00  0.00     0.042 A 
HETATM    6  C   UNL     1      43.613 -17.676   4.383  1.00  0.00     0.030 A 
HETATM    7  C   UNL     1      43.896 -18.706   3.469  1.00  0.00     0.190 A 
HETATM    8  N   UNL     1      43.918 -19.915   4.016  1.00  0.00    -0.149 NA
HETATM    9  N   UNL     1      43.694 -19.670   5.318  1.00  0.00    -0.279 N 
HETATM   10  H   UNL     1      43.703 -20.454   5.963  1.00  0.00     0.189 HD
HETATM   11  C   UNL     1      43.554 -16.186   4.279  1.00  0.00     0.075 C 
ENDROOT
BRANCH  11  12
HETATM   12  C   UNL     1      42.694 -15.797   3.084  1.00  0.00    -0.045 A 
HETATM   13  C   UNL     1      41.507 -16.465   2.734  1.00  0.00     0.050 A 
HETATM   14  C   UNL     1      40.732 -16.021   1.665  1.00  0.00     0.117 A 
HETATM   15  F   UNL     1      39.603 -16.673   1.357  1.00  0.00    -0.206 F 
HETATM   16  C   UNL     1      41.106 -14.910   0.925  1.00  0.00     0.042 A 
HETATM   17  C   UNL     1      42.272 -14.228   1.259  1.00  0.00     0.004 A 
HETATM   18  C   UNL     1      43.057 -14.665   2.331  1.00  0.00     0.008 A 
ENDBRANCH  11  12
BRANCH   1  19
HETATM   19  C   UNL     1      41.685 -15.154   5.720  1.00  0.00     0.267 C 
HETATM   20  O   UNL     1      40.822 -16.010   5.876  1.00  0.00    -0.265 OA
BRANCH  19  21
HETATM   21  O   UNL     1      41.444 -13.826   5.581  1.00  0.00    -0.316 OA
BRANCH  21  22
HETATM   22  C   UNL     1      40.069 -13.455   5.355  1.00  0.00     0.123 C 
HETATM   23  C   UNL     1      39.860 -13.129   3.880  1.00  0.00     0.040 C 
HETATM   24  C   UNL     1      39.779 -12.234   6.218  1.00  0.00     0.040 C 
ENDBRANCH  21  22
ENDBRANCH  19  21
ENDBRANCH   1  19
BRANCH   2  25
HETATM   25  O   UNL     1      45.120 -16.131   6.896  1.00  0.00    -0.389 OA
HETATM   26  H   UNL     1      45.498 -17.028   6.932  1.00  0.00     0.210 HD
ENDBRANCH   2  25
BRANCH   7  27
HETATM   27  O   UNL     1      44.143 -18.646   2.159  1.00  0.00    -0.343 OA
HETATM   28  H   UNL     1      43.482 -18.084   1.727  1.00  0.00     0.219 HD
ENDBRANCH   7  27
TORSDOF 6
ENDMDL
MODEL 2
REMARK VINA RESULT:      -6.9      2.814      4.903
REMARK  6 active torsions:
REMARK  status: ('A' for Active; 'I' for Inactive)
REMARK    1  A    between atoms: C_2  and  O_3 
REMARK    2  A    between atoms: O_3  and  C_4 
REMARK    3  A    between atoms: C_4  and  C_5 
REMARK    4  A    between atoms: C_6  and  O_7 
REMARK    5  A    between atoms: C_12  and  O_13 
REMARK    6  A    between atoms: C_17  and  C_18 
ROOT
HETATM    1  C   UNL     1      41.456 -16.104   4.855  1.00  0.00     0.133 C 
HETATM    2  C   UNL     1      41.844 -15.960   6.359  1.00  0.00     0.073 C 
HETATM    3  C   UNL     1      42.767 -17.086   6.848  1.00  0.00     0.047 C 
HETATM    4  C   UNL     1      42.482 -14.583   6.711  1.00  0.00     0.097 C 
HETATM    5  C   UNL     1      41.755 -13.494   6.009  1.00  0.00     0.042 A 
HETATM    6  C   UNL     1      40.907 -13.619   4.929  1.00  0.00     0.030 A 
HETATM    7  C   UNL     1      40.422 -12.310   4.755  1.00  0.00     0.190 A 
HETATM    8  N   UNL     1      40.948 -11.428   5.596  1.00  0.00    -0.149 NA
HETATM    9  N   UNL     1      41.755 -12.178   6.366  1.00  0.00    -0.279 N 
HETATM   10  H   UNL     1      42.251 -11.723   7.126  1.00  0.00     0.189 HD
HETATM   11  C   UNL     1      40.581 -14.937   4.304  1.00  0.00     0.075 C 
ENDROOT
BRANCH  11  12
HETATM   12  C   UNL     1      40.591 -14.793   2.788  1.00  0.00    -0.045 A 
HETATM   13  C   UNL     1      39.850 -15.621   1.926  1.00  0.00     0.050 A 
HETATM   14  C   UNL     1      39.853 -15.399   0.552  1.00  0.00     0.117 A 
HETATM   15  F   UNL     1      39.135 -16.200  -0.246  1.00  0.00    -0.206 F 
HETATM   16  C   UNL     1      40.579 -14.355  -0.001  1.00  0.00     0.042 A 
HETATM   17  C   UNL     1      41.313 -13.516   0.833  1.00  0.00     0.004 A 
HETATM   18  C   UNL     1      41.316 -13.731   2.216  1.00  0.00     0.008 A 
ENDBRANCH  11  12
BRANCH   1  19
HETATM   19  C   UNL     1      42.652 -16.434   3.984  1.00  0.00     0.267 C 
HETATM   20  O   UNL     1      43.597 -15.665   3.850  1.00  0.00    -0.265 OA
BRANCH  19  21
HETATM   21  O   UNL     1      42.535 -17.634   3.362  1.00  0.00    -0.316 OA
BRANCH  21  22
HETATM   22  C   UNL     1      43.773 -18.293   3.025  1.00  0.00     0.123 C 
HETATM   23  C   UNL     1      43.501 -19.435   2.052  1.00  0.00     0.040 C 
HETATM   24  C   UNL     1      44.373 -18.826   4.321  1.00  0.00     0.040 C 
ENDBRANCH  21  22
ENDBRANCH  19  21
ENDBRANCH   1  19
BRANCH   2  25
HETATM   25  O   UNL     1      40.629 -16.075   7.133  1.00  0.00    -0.389 OA
HETATM   26  H   UNL     1      40.839 -15.927   8.072  1.00  0.00     0.210 HD
ENDBRANCH   2  25
BRANCH   7  27
HETATM   27  O   UNL     1      39.526 -11.837   3.886  1.00  0.00    -0.343 OA
HETATM   28  H   UNL     1      38.658 -12.229   4.066  1.00  0.00     0.219 HD
ENDBRANCH   7  27
TORSDOF 6
ENDMDL
MODEL 3
REMARK VINA RESULT:      -6.9      3.800      6.045
REMARK  6 active torsions:
REMARK  status: ('A' for Active; 'I' for Inactive)
REMARK    1  A    between atoms: C_2  and  O_3 
REMARK    2  A    between atoms: O_3  and  C_4 
REMARK    3  A    between atoms: C_4  and  C_5 
REMARK    4  A    between atoms: C_6  and  O_7 
REMARK    5  A    between atoms: C_12  and  O_13 
REMARK    6  A    between atoms: C_17  and  C_18 
ROOT
HETATM    1  C   UNL     1      42.820 -15.094   3.405  1.00  0.00     0.133 C 
HETATM    2  C   UNL     1      42.472 -15.831   2.075  1.00  0.00     0.073 C 
HETATM    3  C   UNL     1      42.213 -17.332   2.275  1.00  0.00     0.047 C 
HETATM    4  C   UNL     1      41.274 -15.199   1.306  1.00  0.00     0.097 C 
HETATM    5  C   UNL     1      41.371 -13.717   1.347  1.00  0.00     0.042 A 
HETATM    6  C   UNL     1      42.132 -12.955   2.208  1.00  0.00     0.030 A 
HETATM    7  C   UNL     1      41.933 -11.647   1.732  1.00  0.00     0.190 A 
HETATM    8  N   UNL     1      41.087 -11.571   0.712  1.00  0.00    -0.149 NA
HETATM    9  N   UNL     1      40.763 -12.855   0.483  1.00  0.00    -0.279 N 
HETATM   10  H   UNL     1      40.142 -13.063  -0.293  1.00  0.00     0.189 HD
HETATM   11  C   UNL     1      43.017 -13.554   3.253  1.00  0.00     0.075 C 
ENDROOT
BRANCH  11  12
HETATM   12  C   UNL     1      42.879 -12.762   4.546  1.00  0.00    -0.045 A 
HETATM   13  C   UNL     1      43.946 -12.531   5.431  1.00  0.00     0.050 A 
HETATM   14  C   UNL     1      43.770 -11.746   6.568  1.00  0.00     0.117 A 
HETATM   15  F   UNL     1      44.805 -11.537   7.390  1.00  0.00    -0.206 F 
HETATM   16  C   UNL     1      42.542 -11.169   6.853  1.00  0.00     0.042 A 
HETATM   17  C   UNL     1      41.472 -11.377   5.987  1.00  0.00     0.004 A 
HETATM   18  C   UNL     1      41.640 -12.164   4.842  1.00  0.00     0.008 A 
ENDBRANCH  11  12
BRANCH   1  19
HETATM   19  C   UNL     1      41.889 -15.481   4.536  1.00  0.00     0.267 C 
HETATM   20  O   UNL     1      40.670 -15.398   4.438  1.00  0.00    -0.265 OA
BRANCH  19  21
HETATM   21  O   UNL     1      42.551 -15.887   5.649  1.00  0.00    -0.316 OA
BRANCH  21  22
HETATM   22  C   UNL     1      43.789 -16.592   5.424  1.00  0.00     0.123 C 
HETATM   23  C   UNL     1      43.563 -18.092   5.578  1.00  0.00     0.040 C 
HETATM   24  C   UNL     1      44.790 -16.094   6.459  1.00  0.00     0.040 C 
ENDBRANCH  21  22
ENDBRANCH  19  21
ENDBRANCH   1  19
BRANCH   2  25
HETATM   25  O   UNL     1      43.629 -15.737   1.213  1.00  0.00    -0.389 OA
HETATM   26  H   UNL     1      44.413 -16.035   1.707  1.00  0.00     0.210 HD
ENDBRANCH   2  25
BRANCH   7  27
HETATM   27  O   UNL     1      42.463 -10.494   2.147  1.00  0.00    -0.343 OA
HETATM   28  H   UNL     1      42.804  -9.999   1.386  1.00  0.00     0.219 HD
ENDBRANCH   7  27
TORSDOF 6
ENDMDL
MODEL 4
REMARK VINA RESULT:      -6.8      3.995      6.873
REMARK  6 active torsions:
REMARK  status: ('A' for Active; 'I' for Inactive)
REMARK    1  A    between atoms: C_2  and  O_3 
REMARK    2  A    between atoms: O_3  and  C_4 
REMARK    3  A    between atoms: C_4  and  C_5 
REMARK    4  A    between atoms: C_6  and  O_7 
REMARK    5  A    between atoms: C_12  and  O_13 
REMARK    6  A    between atoms: C_17  and  C_18 
ROOT
HETATM    1  C   UNL     1      41.851 -12.011   3.630  1.00  0.00     0.133 C 
HETATM    2  C   UNL     1      41.306 -10.847   2.746  1.00  0.00     0.073 C 
HETATM    3  C   UNL     1      41.695 -10.988   1.266  1.00  0.00     0.047 C 
HETATM    4  C   UNL     1      39.765 -10.648   2.856  1.00  0.00     0.097 C 
HETATM    5  C   UNL     1      39.336 -10.788   4.271  1.00  0.00     0.042 A 
HETATM    6  C   UNL     1      40.044 -11.367   5.303  1.00  0.00     0.030 A 
HETATM    7  C   UNL     1      39.226 -11.125   6.422  1.00  0.00     0.190 A 
HETATM    8  N   UNL     1      38.087 -10.510   6.129  1.00  0.00    -0.149 NA
HETATM    9  N   UNL     1      38.179 -10.301   4.805  1.00  0.00    -0.279 N 
HETATM   10  H   UNL     1      37.426  -9.800   4.344  1.00  0.00     0.189 HD
HETATM   11  C   UNL     1      41.412 -11.941   5.124  1.00  0.00     0.075 C 
ENDROOT
BRANCH  11  12
HETATM   12  C   UNL     1      41.510 -13.259   5.881  1.00  0.00    -0.045 A 
HETATM   13  C   UNL     1      40.476 -14.211   5.915  1.00  0.00     0.050 A 
HETATM   14  C   UNL     1      40.650 -15.425   6.574  1.00  0.00     0.117 A 
HETATM   15  F   UNL     1      39.650 -16.316   6.586  1.00  0.00    -0.206 F 
HETATM   16  C   UNL     1      41.846 -15.729   7.207  1.00  0.00     0.042 A 
HETATM   17  C   UNL     1      42.887 -14.805   7.179  1.00  0.00     0.004 A 
HETATM   18  C   UNL     1      42.722 -13.582   6.519  1.00  0.00     0.008 A 
ENDBRANCH  11  12
BRANCH   1  19
HETATM   19  C   UNL     1      41.630 -13.367   2.992  1.00  0.00     0.267 C 
HETATM   20  O   UNL     1      40.521 -13.751   2.637  1.00  0.00    -0.265 OA
BRANCH  19  21
HETATM   21  O   UNL     1      42.769 -14.097   2.896  1.00  0.00    -0.316 OA
BRANCH  21  22
HETATM   22  C   UNL     1      42.596 -15.516   2.707  1.00  0.00     0.123 C 
HETATM   23  C   UNL     1      43.301 -16.275   3.825  1.00  0.00     0.040 C 
HETATM   24  C   UNL     1      43.201 -15.873   1.355  1.00  0.00     0.040 C 
ENDBRANCH  21  22
ENDBRANCH  19  21
ENDBRANCH   1  19
BRANCH   2  25
HETATM   25  O   UNL     1      41.926  -9.625   3.207  1.00  0.00    -0.389 OA
HETATM   26  H   UNL     1      42.379  -9.803   4.051  1.00  0.00     0.210 HD
ENDBRANCH   2  25
BRANCH   7  27
HETATM   27  O   UNL     1      39.427 -11.416   7.709  1.00  0.00    -0.343 OA
HETATM   28  H   UNL     1      39.736 -10.626   8.178  1.00  0.00     0.219 HD
ENDBRANCH   7  27
TORSDOF 6
ENDMDL
MODEL 5
REMARK VINA RESULT:      -6.6      3.544      5.711
REMARK  6 active torsions:
REMARK  status: ('A' for Active; 'I' for Inactive)
REMARK    1  A    between atoms: C_2  and  O_3 
REMARK    2  A    between atoms: O_3  and  C_4 
REMARK    3  A    between atoms: C_4  and  C_5 
REMARK    4  A    between atoms: C_6  and  O_7 
REMARK    5  A    between atoms: C_12  and  O_13 
REMARK    6  A    between atoms: C_17  and  C_18 
ROOT
HETATM    1  C   UNL     1      42.807 -15.068   3.076  1.00  0.00     0.133 C 
HETATM    2  C   UNL     1      42.393 -16.068   1.952  1.00  0.00     0.073 C 
HETATM    3  C   UNL     1      42.693 -17.531   2.315  1.00  0.00     0.047 C 
HETATM    4  C   UNL     1      40.902 -15.940   1.521  1.00  0.00     0.097 C 
HETATM    5  C   UNL     1      40.520 -14.507   1.437  1.00  0.00     0.042 A 
HETATM    6  C   UNL     1      41.184 -13.434   1.991  1.00  0.00     0.030 A 
HETATM    7  C   UNL     1      40.458 -12.330   1.509  1.00  0.00     0.190 A 
HETATM    8  N   UNL     1      39.406 -12.662   0.772  1.00  0.00    -0.149 NA
HETATM    9  N   UNL     1      39.468 -14.004   0.730  1.00  0.00    -0.279 N 
HETATM   10  H   UNL     1      38.774 -14.500   0.180  1.00  0.00     0.189 HD
HETATM   11  C   UNL     1      42.449 -13.581   2.774  1.00  0.00     0.075 C 
ENDROOT
BRANCH  11  12
HETATM   12  C   UNL     1      42.392 -12.677   3.998  1.00  0.00    -0.045 A 
HETATM   13  C   UNL     1      41.236 -12.499   4.778  1.00  0.00     0.050 A 
HETATM   14  C   UNL     1      41.266 -11.706   5.922  1.00  0.00     0.117 A 
HETATM   15  F   UNL     1      40.151 -11.559   6.650  1.00  0.00    -0.206 F 
HETATM   16  C   UNL     1      42.434 -11.077   6.325  1.00  0.00     0.042 A 
HETATM   17  C   UNL     1      43.594 -11.245   5.573  1.00  0.00     0.004 A 
HETATM   18  C   UNL     1      43.574 -12.041   4.422  1.00  0.00     0.008 A 
ENDBRANCH  11  12
BRANCH   1  19
HETATM   19  C   UNL     1      42.369 -15.535   4.449  1.00  0.00     0.267 C 
HETATM   20  O   UNL     1      41.197 -15.777   4.716  1.00  0.00    -0.265 OA
BRANCH  19  21
HETATM   21  O   UNL     1      43.397 -15.617   5.331  1.00  0.00    -0.316 OA
BRANCH  21  22
HETATM   22  C   UNL     1      43.030 -15.835   6.708  1.00  0.00     0.123 C 
HETATM   23  C   UNL     1      43.199 -14.541   7.498  1.00  0.00     0.040 C 
HETATM   24  C   UNL     1      43.949 -16.919   7.258  1.00  0.00     0.040 C 
ENDBRANCH  21  22
ENDBRANCH  19  21
ENDBRANCH   1  19
BRANCH   2  25
HETATM   25  O   UNL     1      43.199 -15.772   0.790  1.00  0.00    -0.389 OA
HETATM   26  H   UNL     1      42.748 -16.119  -0.001  1.00  0.00     0.210 HD
ENDBRANCH   2  25
BRANCH   7  27
HETATM   27  O   UNL     1      40.673 -11.023   1.678  1.00  0.00    -0.343 OA
HETATM   28  H   UNL     1      40.124 -10.520   1.058  1.00  0.00     0.219 HD
ENDBRANCH   7  27
TORSDOF 6
ENDMDL
MODEL 6
REMARK VINA RESULT:      -6.6      2.988      4.943
REMARK  6 active torsions:
REMARK  status: ('A' for Active; 'I' for Inactive)
REMARK    1  A    between atoms: C_2  and  O_3 
REMARK    2  A    between atoms: O_3  and  C_4 
REMARK    3  A    between atoms: C_4  and  C_5 
REMARK    4  A    between atoms: C_6  and  O_7 
REMARK    5  A    between atoms: C_12  and  O_13 
REMARK    6  A    between atoms: C_17  and  C_18 
ROOT
HETATM    1  C   UNL     1      41.364 -14.428   4.117  1.00  0.00     0.133 C 
HETATM    2  C   UNL     1      41.063 -15.863   3.586  1.00  0.00     0.073 C 
HETATM    3  C   UNL     1      40.764 -15.892   2.079  1.00  0.00     0.047 C 
HETATM    4  C   UNL     1      42.183 -16.897   3.909  1.00  0.00     0.097 C 
HETATM    5  C   UNL     1      42.677 -16.691   5.294  1.00  0.00     0.042 A 
HETATM    6  C   UNL     1      42.507 -15.574   6.083  1.00  0.00     0.030 A 
HETATM    7  C   UNL     1      43.071 -15.964   7.310  1.00  0.00     0.190 A 
HETATM    8  N   UNL     1      43.601 -17.181   7.293  1.00  0.00    -0.149 NA
HETATM    9  N   UNL     1      43.338 -17.615   6.049  1.00  0.00    -0.279 N 
HETATM   10  H   UNL     1      43.619 -18.558   5.800  1.00  0.00     0.189 HD
HETATM   11  C   UNL     1      41.746 -14.370   5.628  1.00  0.00     0.075 C 
ENDROOT
BRANCH  11  12
HETATM   12  C   UNL     1      42.492 -13.112   6.051  1.00  0.00    -0.045 A 
HETATM   13  C   UNL     1      43.893 -13.035   6.141  1.00  0.00     0.050 A 
HETATM   14  C   UNL     1      44.518 -11.836   6.474  1.00  0.00     0.117 A 
HETATM   15  F   UNL     1      45.854 -11.790   6.547  1.00  0.00    -0.206 F 
HETATM   16  C   UNL     1      43.779 -10.689   6.719  1.00  0.00     0.042 A 
HETATM   17  C   UNL     1      42.390 -10.739   6.627  1.00  0.00     0.004 A 
HETATM   18  C   UNL     1      41.753 -11.939   6.292  1.00  0.00     0.008 A 
ENDBRANCH  11  12
BRANCH   1  19
HETATM   19  C   UNL     1      42.321 -13.673   3.217  1.00  0.00     0.267 C 
HETATM   20  O   UNL     1      43.408 -14.132   2.885  1.00  0.00    -0.265 OA
BRANCH  19  21
HETATM   21  O   UNL     1      41.856 -12.449   2.862  1.00  0.00    -0.316 OA
BRANCH  21  22
HETATM   22  C   UNL     1      40.429 -12.342   2.688  1.00  0.00     0.123 C 
HETATM   23  C   UNL     1      40.086 -12.389   1.203  1.00  0.00     0.040 C 
HETATM   24  C   UNL     1      39.994 -11.014   3.295  1.00  0.00     0.040 C 
ENDBRANCH  21  22
ENDBRANCH  19  21
ENDBRANCH   1  19
BRANCH   2  25
HETATM   25  O   UNL     1      39.858 -16.323   4.240  1.00  0.00    -0.389 OA
HETATM   26  H   UNL     1      39.120 -15.742   3.983  1.00  0.00     0.210 HD
ENDBRANCH   2  25
BRANCH   7  27
HETATM   27  O   UNL     1      43.145 -15.304   8.468  1.00  0.00    -0.343 OA
HETATM   28  H   UNL     1      43.253 -14.356   8.297  1.00  0.00     0.219 HD
ENDBRANCH   7  27
TORSDOF 6
ENDMDL
MODEL 7
REMARK VINA RESULT:      -6.5      4.046      6.558
REMARK  6 active torsions:
REMARK  status: ('A' for Active; 'I' for Inactive)
REMARK    1  A    between atoms: C_2  and  O_3 
REMARK    2  A    between atoms: O_3  and  C_4 
REMARK    3  A    between atoms: C_4  and  C_5 
REMARK    4  A    between atoms: C_6  and  O_7 
REMARK    5  A    between atoms: C_12  and  O_13 
REMARK    6  A    between atoms: C_17  and  C_18 
ROOT
HETATM    1  C   UNL     1      41.478 -12.088   1.059  1.00  0.00     0.133 C 
HETATM    2  C   UNL     1      41.051 -10.589   1.117  1.00  0.00     0.073 C 
HETATM    3  C   UNL     1      40.154 -10.178  -0.061  1.00  0.00     0.047 C 
HETATM    4  C   UNL     1      40.360 -10.188   2.455  1.00  0.00     0.097 C 
HETATM    5  C   UNL     1      41.067 -10.818   3.598  1.00  0.00     0.042 A 
HETATM    6  C   UNL     1      41.943 -11.882   3.554  1.00  0.00     0.030 A 
HETATM    7  C   UNL     1      42.388 -11.981   4.884  1.00  0.00     0.190 A 
HETATM    8  N   UNL     1      41.814 -11.112   5.707  1.00  0.00    -0.149 NA
HETATM    9  N   UNL     1      41.014 -10.399   4.895  1.00  0.00    -0.279 N 
HETATM   10  H   UNL     1      40.486  -9.631   5.296  1.00  0.00     0.189 HD
HETATM   11  C   UNL     1      42.327 -12.561   2.279  1.00  0.00     0.075 C 
ENDROOT
BRANCH  11  12
HETATM   12  C   UNL     1      42.348 -14.068   2.496  1.00  0.00    -0.045 A 
HETATM   13  C   UNL     1      41.435 -14.744   3.325  1.00  0.00     0.050 A 
HETATM   14  C   UNL     1      41.469 -16.132   3.433  1.00  0.00     0.117 A 
HETATM   15  F   UNL     1      40.584 -16.751   4.225  1.00  0.00    -0.206 F 
HETATM   16  C   UNL     1      42.396 -16.882   2.726  1.00  0.00     0.042 A 
HETATM   17  C   UNL     1      43.305 -16.234   1.892  1.00  0.00     0.004 A 
HETATM   18  C   UNL     1      43.278 -14.840   1.776  1.00  0.00     0.008 A 
ENDBRANCH  11  12
BRANCH   1  19
HETATM   19  C   UNL     1      40.314 -13.003   0.734  1.00  0.00     0.267 C 
HETATM   20  O   UNL     1      39.301 -13.045   1.422  1.00  0.00    -0.265 OA
BRANCH  19  21
HETATM   21  O   UNL     1      40.540 -13.774  -0.360  1.00  0.00    -0.316 OA
BRANCH  21  22
HETATM   22  C   UNL     1      39.699 -13.510  -1.502  1.00  0.00     0.123 C 
HETATM   23  C   UNL     1      39.007 -14.796  -1.941  1.00  0.00     0.040 C 
HETATM   24  C   UNL     1      40.595 -12.979  -2.615  1.00  0.00     0.040 C 
ENDBRANCH  21  22
ENDBRANCH  19  21
ENDBRANCH   1  19
BRANCH   2  25
HETATM   25  O   UNL     1      42.251  -9.792   1.003  1.00  0.00    -0.389 OA
HETATM   26  H   UNL     1      42.243  -9.112   1.700  1.00  0.00     0.210 HD
ENDBRANCH   2  25
BRANCH   7  27
HETATM   27  O   UNL     1      43.289 -12.803   5.427  1.00  0.00    -0.343 OA
HETATM   28  H   UNL     1      43.294 -13.645   4.947  1.00  0.00     0.219 HD
ENDBRANCH   7  27
TORSDOF 6
ENDMDL
MODEL 8
REMARK VINA RESULT:      -6.4     14.007     15.957
REMARK  6 active torsions:
REMARK  status: ('A' for Active; 'I' for Inactive)
REMARK    1  A    between atoms: C_2  and  O_3 
REMARK    2  A    between atoms: O_3  and  C_4 
REMARK    3  A    between atoms: C_4  and  C_5 
REMARK    4  A    between atoms: C_6  and  O_7 
REMARK    5  A    between atoms: C_12  and  O_13 
REMARK    6  A    between atoms: C_17  and  C_18 
ROOT
HETATM    1  C   UNL     1      46.728 -29.020  -0.598  1.00  0.00     0.133 C 
HETATM    2  C   UNL     1      45.685 -29.088  -1.756  1.00  0.00     0.073 C 
HETATM    3  C   UNL     1      46.330 -29.358  -3.125  1.00  0.00     0.047 C 
HETATM    4  C   UNL     1      44.546 -30.121  -1.511  1.00  0.00     0.097 C 
HETATM    5  C   UNL     1      44.101 -30.058  -0.095  1.00  0.00     0.042 A 
HETATM    6  C   UNL     1      44.776 -29.493   0.967  1.00  0.00     0.030 A 
HETATM    7  C   UNL     1      43.859 -29.616   2.025  1.00  0.00     0.190 A 
HETATM    8  N   UNL     1      42.739 -30.245   1.693  1.00  0.00    -0.149 NA
HETATM    9  N   UNL     1      42.902 -30.498   0.384  1.00  0.00    -0.279 N 
HETATM   10  H   UNL     1      42.144 -30.951  -0.117  1.00  0.00     0.189 HD
HETATM   11  C   UNL     1      46.103 -28.822   0.817  1.00  0.00     0.075 C 
ENDROOT
BRANCH  11  12
HETATM   12  C   UNL     1      47.006 -29.224   1.976  1.00  0.00    -0.045 A 
HETATM   13  C   UNL     1      47.049 -30.524   2.510  1.00  0.00     0.050 A 
HETATM   14  C   UNL     1      47.941 -30.844   3.529  1.00  0.00     0.117 A 
HETATM   15  F   UNL     1      47.965 -32.091   4.015  1.00  0.00    -0.206 F 
HETATM   16  C   UNL     1      48.812 -29.893   4.040  1.00  0.00     0.042 A 
HETATM   17  C   UNL     1      48.794 -28.601   3.521  1.00  0.00     0.004 A 
HETATM   18  C   UNL     1      47.901 -28.271   2.495  1.00  0.00     0.008 A 
ENDBRANCH  11  12
BRANCH   1  19
HETATM   19  C   UNL     1      47.736 -30.149  -0.667  1.00  0.00     0.267 C 
HETATM   20  O   UNL     1      47.401 -31.328  -0.661  1.00  0.00    -0.265 OA
BRANCH  19  21
HETATM   21  O   UNL     1      49.019 -29.709  -0.701  1.00  0.00    -0.316 OA
BRANCH  21  22
HETATM   22  C   UNL     1      50.035 -30.708  -0.480  1.00  0.00     0.123 C 
HETATM   23  C   UNL     1      50.727 -30.452   0.855  1.00  0.00     0.040 C 
HETATM   24  C   UNL     1      51.032 -30.606  -1.627  1.00  0.00     0.040 C 
ENDBRANCH  21  22
ENDBRANCH  19  21
ENDBRANCH   1  19
BRANCH   2  25
HETATM   25  O   UNL     1      45.064 -27.786  -1.857  1.00  0.00    -0.389 OA
HETATM   26  H   UNL     1      45.716 -27.155  -2.211  1.00  0.00     0.210 HD
ENDBRANCH   2  25
BRANCH   7  27
HETATM   27  O   UNL     1      43.948 -29.196   3.289  1.00  0.00    -0.343 OA
HETATM   28  H   UNL     1      43.463 -29.802   3.869  1.00  0.00     0.219 HD
ENDBRANCH   7  27
TORSDOF 6
ENDMDL
MODEL 9
REMARK VINA RESULT:      -6.4     14.452     15.519
REMARK  6 active torsions:
REMARK  status: ('A' for Active; 'I' for Inactive)
REMARK    1  A    between atoms: C_2  and  O_3 
REMARK    2  A    between atoms: O_3  and  C_4 
REMARK    3  A    between atoms: C_4  and  C_5 
REMARK    4  A    between atoms: C_6  and  O_7 
REMARK    5  A    between atoms: C_12  and  O_13 
REMARK    6  A    between atoms: C_17  and  C_18 
ROOT
HETATM    1  C   UNL     1      47.779 -29.249   1.617  1.00  0.00     0.133 C 
HETATM    2  C   UNL     1      48.664 -29.662   2.833  1.00  0.00     0.073 C 
HETATM    3  C   UNL     1      47.859 -29.809   4.134  1.00  0.00     0.047 C 
HETATM    4  C   UNL     1      49.494 -30.958   2.591  1.00  0.00     0.097 C 
HETATM    5  C   UNL     1      50.054 -30.950   1.215  1.00  0.00     0.042 A 
HETATM    6  C   UNL     1      49.649 -30.168   0.154  1.00  0.00     0.030 A 
HETATM    7  C   UNL     1      50.582 -30.488  -0.848  1.00  0.00     0.190 A 
HETATM    8  N   UNL     1      51.456 -31.420  -0.488  1.00  0.00    -0.149 NA
HETATM    9  N   UNL     1      51.122 -31.682   0.787  1.00  0.00    -0.279 N 
HETATM   10  H   UNL     1      51.684 -32.352   1.303  1.00  0.00     0.189 HD
HETATM   11  C   UNL     1      48.549 -29.163   0.264  1.00  0.00     0.075 C 
ENDROOT
BRANCH  11  12
HETATM   12  C   UNL     1      47.670 -29.240  -0.978  1.00  0.00    -0.045 A 
HETATM   13  C   UNL     1      47.400 -30.437  -1.663  1.00  0.00     0.050 A 
HETATM   14  C   UNL     1      46.537 -30.451  -2.756  1.00  0.00     0.117 A 
HETATM   15  F   UNL     1      46.293 -31.607  -3.386  1.00  0.00    -0.206 F 
HETATM   16  C   UNL     1      45.920 -29.289  -3.193  1.00  0.00     0.042 A 
HETATM   17  C   UNL     1      46.165 -28.093  -2.525  1.00  0.00     0.004 A 
HETATM   18  C   UNL     1      47.030 -28.069  -1.425  1.00  0.00     0.008 A 
ENDBRANCH  11  12
BRANCH   1  19
HETATM   19  C   UNL     1      46.498 -30.055   1.540  1.00  0.00     0.267 C 
HETATM   20  O   UNL     1      46.498 -31.274   1.409  1.00  0.00    -0.265 OA
BRANCH  19  21
HETATM   21  O   UNL     1      45.385 -29.282   1.596  1.00  0.00    -0.316 OA
BRANCH  21  22
HETATM   22  C   UNL     1      44.155 -29.917   1.190  1.00  0.00     0.123 C 
HETATM   23  C   UNL     1      43.697 -29.346  -0.148  1.00  0.00     0.040 C 
HETATM   24  C   UNL     1      43.119 -29.638   2.272  1.00  0.00     0.040 C 
ENDBRANCH  21  22
ENDBRANCH  19  21
ENDBRANCH   1  19
BRANCH   2  25
HETATM   25  O   UNL     1      49.606 -28.591   3.066  1.00  0.00    -0.389 OA
HETATM   26  H   UNL     1      49.215 -27.961   3.699  1.00  0.00     0.210 HD
ENDBRANCH   2  25
BRANCH   7  27
HETATM   27  O   UNL     1      50.716 -29.997  -2.082  1.00  0.00    -0.343 OA
HETATM   28  H   UNL     1      51.467 -30.423  -2.523  1.00  0.00     0.219 HD
ENDBRANCH   7  27
TORSDOF 6
ENDMDL
MODEL 10
REMARK VINA RESULT:      -6.4      3.881      5.759
REMARK  6 active torsions:
REMARK  status: ('A' for Active; 'I' for Inactive)
REMARK    1  A    between atoms: C_2  and  O_3 
REMARK    2  A    between atoms: O_3  and  C_4 
REMARK    3  A    between atoms: C_4  and  C_5 
REMARK    4  A    between atoms: C_6  and  O_7 
REMARK    5  A    between atoms: C_12  and  O_13 
REMARK    6  A    between atoms: C_17  and  C_18 
ROOT
HETATM    1  C   UNL     1      41.717 -12.178   4.208  1.00  0.00     0.133 C 
HETATM    2  C   UNL     1      41.058 -10.771   4.067  1.00  0.00     0.073 C 
HETATM    3  C   UNL     1      41.788  -9.686   4.874  1.00  0.00     0.047 C 
HETATM    4  C   UNL     1      40.905 -10.298   2.590  1.00  0.00     0.097 C 
HETATM    5  C   UNL     1      40.459 -11.432   1.740  1.00  0.00     0.042 A 
HETATM    6  C   UNL     1      40.517 -12.775   2.044  1.00  0.00     0.030 A 
HETATM    7  C   UNL     1      39.868 -13.375   0.950  1.00  0.00     0.190 A 
HETATM    8  N   UNL     1      39.487 -12.513   0.015  1.00  0.00    -0.149 NA
HETATM    9  N   UNL     1      39.849 -11.324   0.525  1.00  0.00    -0.279 N 
HETATM   10  H   UNL     1      39.623 -10.486  -0.003  1.00  0.00     0.189 HD
HETATM   11  C   UNL     1      41.047 -13.289   3.343  1.00  0.00     0.075 C 
ENDROOT
BRANCH  11  12
HETATM   12  C   UNL     1      41.921 -14.509   3.085  1.00  0.00    -0.045 A 
HETATM   13  C   UNL     1      41.981 -15.616   3.950  1.00  0.00     0.050 A 
HETATM   14  C   UNL     1      42.753 -16.729   3.627  1.00  0.00     0.117 A 
HETATM   15  F   UNL     1      42.788 -17.772   4.466  1.00  0.00    -0.206 F 
HETATM   16  C   UNL     1      43.475 -16.777   2.444  1.00  0.00     0.042 A 
HETATM   17  C   UNL     1      43.424 -15.697   1.568  1.00  0.00     0.004 A 
HETATM   18  C   UNL     1      42.651 -14.574   1.884  1.00  0.00     0.008 A 
ENDBRANCH  11  12
BRANCH   1  19
HETATM   19  C   UNL     1      43.225 -12.121   4.069  1.00  0.00     0.267 C 
HETATM   20  O   UNL     1      43.775 -11.578   3.118  1.00  0.00    -0.265 OA
BRANCH  19  21
HETATM   21  O   UNL     1      43.871 -12.756   5.078  1.00  0.00    -0.316 OA
BRANCH  21  22
HETATM   22  C   UNL     1      43.224 -12.717   6.366  1.00  0.00     0.123 C 
HETATM   23  C   UNL     1      43.922 -11.700   7.263  1.00  0.00     0.040 C 
HETATM   24  C   UNL     1      43.320 -14.113   6.968  1.00  0.00     0.040 C 
ENDBRANCH  21  22
ENDBRANCH  19  21
ENDBRANCH   1  19
BRANCH   2  25
HETATM   25  O   UNL     1      39.728 -10.857   4.626  1.00  0.00    -0.389 OA
HETATM   26  H   UNL     1      39.763 -10.587   5.561  1.00  0.00     0.210 HD
ENDBRANCH   2  25
BRANCH   7  27
HETATM   27  O   UNL     1      39.582 -14.659   0.722  1.00  0.00    -0.343 OA
HETATM   28  H   UNL     1      40.315 -15.215   1.026  1.00  0.00     0.219 HD
ENDBRANCH   7  27
TORSDOF 6
ENDMDL
