MODEL 1
REMARK VINA RESULT:      -9.7      0.000      0.000
REMARK  7 active torsions:
REMARK  status: ('A' for Active; 'I' for Inactive)
REMARK    1  A    between atoms: C_4  and  C_14 
REMARK    2  A    between atoms: C_7  and  C_8 
REMARK       I    between atoms: C_14  and  N_16 
REMARK    3  A    between atoms: N_16  and  C_17 
REMARK    4  A    between atoms: C_17  and  C_18 
REMARK    5  A    between atoms: C_22  and  C_24 
REMARK       I    between atoms: C_24  and  N_26 
REMARK    6  A    between atoms: N_26  and  C_27 
REMARK    7  A    between atoms: C_27  and  C_28 
ROOT
HETATM    1  C   UNL     1      43.985 -11.169   6.410  1.00  0.00    -0.040 A 
HETATM    2  C   UNL     1      45.341 -11.257   6.069  1.00  0.00     0.009 A 
HETATM    3  C   UNL     1      46.326 -10.948   7.007  1.00  0.00     0.002 A 
HETATM    4  C   UNL     1      45.967 -10.569   8.301  1.00  0.00     0.017 A 
HETATM    5  C   UNL     1      44.618 -10.498   8.666  1.00  0.00     0.032 A 
HETATM    6  C   UNL     1      43.633 -10.777   7.712  1.00  0.00     0.026 A 
ENDROOT
BRANCH   1   7
HETATM    7  C   UNL     1      42.909 -11.542   5.421  1.00  0.00     0.161 C 
BRANCH   7   8
HETATM    8  N   UNL     1      43.063 -12.913   4.994  1.00  0.00    -0.353 N 
HETATM    9  C   UNL     1      42.617 -13.972   5.752  1.00  0.00     0.251 C 
HETATM   10  O   UNL     1      42.046 -13.859   6.831  1.00  0.00    -0.268 OA
HETATM   11  H   UNL     1      43.489 -13.085   4.092  1.00  0.00     0.163 HD
BRANCH   9  12
HETATM   12  C   UNL     1      42.864 -15.317   5.178  1.00  0.00     0.032 A 
HETATM   13  C   UNL     1      42.937 -15.507   3.792  1.00  0.00     0.024 A 
HETATM   14  C   UNL     1      43.184 -16.783   3.255  1.00  0.00    -0.050 A 
HETATM   15  C   UNL     1      43.268 -16.935   1.758  1.00  0.00     0.049 C 
HETATM   16  C   UNL     1      43.373 -17.871   4.134  1.00  0.00    -0.017 A 
HETATM   17  C   UNL     1      43.303 -17.665   5.522  1.00  0.00     0.014 A 
HETATM   18  C   UNL     1      43.058 -16.393   6.044  1.00  0.00     0.018 A 
BRANCH  16  19
HETATM   19  C   UNL     1      43.661 -19.207   3.650  1.00  0.00     0.011 A 
HETATM   20  C   UNL     1      43.606 -19.756   2.351  1.00  0.00     0.152 A 
HETATM   21  N   UNL     1      43.952 -21.045   2.325  1.00  0.00    -0.187 NA
HETATM   22  N   UNL     1      44.239 -21.321   3.608  1.00  0.00    -0.289 N 
HETATM   23  H   UNL     1      44.533 -22.264   3.843  1.00  0.00     0.188 HD
HETATM   24  C   UNL     1      44.086 -20.251   4.442  1.00  0.00     0.123 A 
ENDBRANCH  16  19
ENDBRANCH   9  12
ENDBRANCH   7   8
ENDBRANCH   1   7
BRANCH   5  25
HETATM   25  C   UNL     1      44.282 -10.116  10.066  1.00  0.00     0.251 C 
HETATM   26  O   UNL     1      44.831  -9.162  10.617  1.00  0.00    -0.268 OA
HETATM   27  N   UNL     1      43.336 -10.867  10.733  1.00  0.00    -0.355 N 
HETATM   28  H   UNL     1      43.063 -11.754  10.314  1.00  0.00     0.162 HD
BRANCH  27  29
HETATM   29  C   UNL     1      43.102 -10.731  12.167  1.00  0.00     0.155 C 
BRANCH  29  30
HETATM   30  C   UNL     1      41.957  -9.758  12.546  1.00  0.00     0.203 C 
HETATM   31  C   UNL     1      42.185  -9.080  13.894  1.00  0.00     0.036 C 
HETATM   32  C   UNL     1      42.985  -7.837  13.548  1.00  0.00     0.029 C 
HETATM   33  C   UNL     1      42.331  -7.344  12.274  1.00  0.00     0.233 C 
HETATM   34  N   UNL     1      41.885  -8.591  11.590  1.00  0.00    -0.069 N 
HETATM   35  H   UNL     1      42.490  -8.785  10.760  1.00  0.00     0.277 HD
HETATM   36  H   UNL     1      40.946  -8.493  11.186  1.00  0.00     0.277 HD
ENDBRANCH  29  30
ENDBRANCH  27  29
ENDBRANCH   5  25
TORSDOF 7
ENDMDL
MODEL 2
REMARK VINA RESULT:      -9.3      1.813      2.803
REMARK  7 active torsions:
REMARK  status: ('A' for Active; 'I' for Inactive)
REMARK    1  A    between atoms: C_4  and  C_14 
REMARK    2  A    between atoms: C_7  and  C_8 
REMARK       I    between atoms: C_14  and  N_16 
REMARK    3  A    between atoms: N_16  and  C_17 
REMARK    4  A    between atoms: C_17  and  C_18 
REMARK    5  A    between atoms: C_22  and  C_24 
REMARK       I    between atoms: C_24  and  N_26 
REMARK    6  A    between atoms: N_26  and  C_27 
REMARK    7  A    between atoms: C_27  and  C_28 
ROOT
HETATM    1  C   UNL     1      42.551 -10.633   4.361  1.00  0.00    -0.040 A 
HETATM    2  C   UNL     1      41.610  -9.599   4.440  1.00  0.00     0.009 A 
HETATM    3  C   UNL     1      41.345  -8.978   5.661  1.00  0.00     0.002 A 
HETATM    4  C   UNL     1      42.032  -9.369   6.810  1.00  0.00     0.017 A 
HETATM    5  C   UNL     1      42.992 -10.385   6.746  1.00  0.00     0.032 A 
HETATM    6  C   UNL     1      43.231 -11.027   5.525  1.00  0.00     0.026 A 
ENDROOT
BRANCH   1   7
HETATM    7  C   UNL     1      42.881 -11.285   3.042  1.00  0.00     0.161 C 
BRANCH   7   8
HETATM    8  N   UNL     1      43.102 -12.702   3.215  1.00  0.00    -0.353 N 
HETATM    9  C   UNL     1      42.603 -13.636   2.335  1.00  0.00     0.251 C 
HETATM   10  O   UNL     1      41.950 -13.363   1.334  1.00  0.00    -0.268 OA
HETATM   11  H   UNL     1      43.668 -13.002   3.998  1.00  0.00     0.163 HD
BRANCH   9  12
HETATM   12  C   UNL     1      42.907 -15.049   2.664  1.00  0.00     0.032 A 
HETATM   13  C   UNL     1      42.795 -15.524   3.977  1.00  0.00     0.024 A 
HETATM   14  C   UNL     1      43.073 -16.869   4.280  1.00  0.00    -0.050 A 
HETATM   15  C   UNL     1      42.924 -17.336   5.705  1.00  0.00     0.049 C 
HETATM   16  C   UNL     1      43.455 -17.741   3.238  1.00  0.00    -0.017 A 
HETATM   17  C   UNL     1      43.559 -17.252   1.924  1.00  0.00     0.014 A 
HETATM   18  C   UNL     1      43.278 -15.915   1.635  1.00  0.00     0.018 A 
BRANCH  16  19
HETATM   19  C   UNL     1      43.727 -19.145   3.473  1.00  0.00     0.011 A 
HETATM   20  C   UNL     1      43.580 -20.272   2.637  1.00  0.00     0.152 A 
HETATM   21  N   UNL     1      43.944 -21.407   3.238  1.00  0.00    -0.187 NA
HETATM   22  N   UNL     1      44.335 -21.006   4.460  1.00  0.00    -0.289 N 
HETATM   23  H   UNL     1      44.662 -21.709   5.115  1.00  0.00     0.188 HD
HETATM   24  C   UNL     1      44.229 -19.658   4.649  1.00  0.00     0.123 A 
ENDBRANCH  16  19
ENDBRANCH   9  12
ENDBRANCH   7   8
ENDBRANCH   1   7
BRANCH   5  25
HETATM   25  C   UNL     1      43.721 -10.752   7.992  1.00  0.00     0.251 C 
HETATM   26  O   UNL     1      44.200 -11.875   8.146  1.00  0.00    -0.268 OA
HETATM   27  N   UNL     1      43.840  -9.793   8.978  1.00  0.00    -0.355 N 
HETATM   28  H   UNL     1      43.263  -8.959   8.891  1.00  0.00     0.162 HD
BRANCH  27  29
HETATM   29  C   UNL     1      44.322 -10.109  10.318  1.00  0.00     0.155 C 
BRANCH  29  30
HETATM   30  C   UNL     1      43.218 -10.176  11.403  1.00  0.00     0.203 C 
HETATM   31  C   UNL     1      43.280  -9.006  12.380  1.00  0.00     0.036 C 
HETATM   32  C   UNL     1      42.422  -7.937  11.724  1.00  0.00     0.029 C 
HETATM   33  C   UNL     1      41.251  -8.721  11.170  1.00  0.00     0.233 C 
HETATM   34  N   UNL     1      41.841 -10.039  10.800  1.00  0.00    -0.069 N 
HETATM   35  H   UNL     1      41.908 -10.127   9.760  1.00  0.00     0.277 HD
HETATM   36  H   UNL     1      41.232 -10.821  11.068  1.00  0.00     0.277 HD
ENDBRANCH  29  30
ENDBRANCH  27  29
ENDBRANCH   5  25
TORSDOF 7
ENDMDL
MODEL 3
REMARK VINA RESULT:      -9.0      1.468      2.038
REMARK  7 active torsions:
REMARK  status: ('A' for Active; 'I' for Inactive)
REMARK    1  A    between atoms: C_4  and  C_14 
REMARK    2  A    between atoms: C_7  and  C_8 
REMARK       I    between atoms: C_14  and  N_16 
REMARK    3  A    between atoms: N_16  and  C_17 
REMARK    4  A    between atoms: C_17  and  C_18 
REMARK    5  A    between atoms: C_22  and  C_24 
REMARK       I    between atoms: C_24  and  N_26 
REMARK    6  A    between atoms: N_26  and  C_27 
REMARK    7  A    between atoms: C_27  and  C_28 
ROOT
HETATM    1  C   UNL     1      43.519 -10.868   6.483  1.00  0.00    -0.040 A 
HETATM    2  C   UNL     1      44.797 -11.179   6.962  1.00  0.00     0.009 A 
HETATM    3  C   UNL     1      45.163 -10.846   8.266  1.00  0.00     0.002 A 
HETATM    4  C   UNL     1      44.247 -10.218   9.112  1.00  0.00     0.017 A 
HETATM    5  C   UNL     1      42.958  -9.919   8.657  1.00  0.00     0.032 A 
HETATM    6  C   UNL     1      42.607 -10.226   7.338  1.00  0.00     0.026 A 
ENDROOT
BRANCH   1   7
HETATM    7  C   UNL     1      43.093 -11.260   5.090  1.00  0.00     0.161 C 
BRANCH   7   8
HETATM    8  N   UNL     1      43.278 -12.678   4.882  1.00  0.00    -0.353 N 
HETATM    9  C   UNL     1      42.850 -13.313   3.738  1.00  0.00     0.251 C 
HETATM   10  O   UNL     1      42.298 -12.750   2.799  1.00  0.00    -0.268 OA
HETATM   11  H   UNL     1      43.764 -13.203   5.597  1.00  0.00     0.163 HD
BRANCH   9  12
HETATM   12  C   UNL     1      43.103 -14.773   3.686  1.00  0.00     0.032 A 
HETATM   13  C   UNL     1      43.276 -15.516   4.861  1.00  0.00     0.024 A 
HETATM   14  C   UNL     1      43.504 -16.903   4.805  1.00  0.00    -0.050 A 
HETATM   15  C   UNL     1      43.669 -17.662   6.097  1.00  0.00     0.049 C 
HETATM   16  C   UNL     1      43.541 -17.541   3.547  1.00  0.00    -0.017 A 
HETATM   17  C   UNL     1      43.360 -16.784   2.377  1.00  0.00     0.014 A 
HETATM   18  C   UNL     1      43.134 -15.407   2.444  1.00  0.00     0.018 A 
BRANCH  16  19
HETATM   19  C   UNL     1      43.740 -18.971   3.418  1.00  0.00     0.011 A 
HETATM   20  C   UNL     1      43.564 -19.838   2.317  1.00  0.00     0.152 A 
HETATM   21  N   UNL     1      43.858 -21.106   2.612  1.00  0.00    -0.187 NA
HETATM   22  N   UNL     1      44.232 -21.052   3.902  1.00  0.00    -0.289 N 
HETATM   23  H   UNL     1      44.507 -21.916   4.359  1.00  0.00     0.188 HD
HETATM   24  C   UNL     1      44.184 -19.794   4.430  1.00  0.00     0.123 A 
ENDBRANCH  16  19
ENDBRANCH   9  12
ENDBRANCH   7   8
ENDBRANCH   1   7
BRANCH   5  25
HETATM   25  C   UNL     1      42.005  -9.273   9.603  1.00  0.00     0.251 C 
HETATM   26  O   UNL     1      41.777  -8.065   9.554  1.00  0.00    -0.268 OA
HETATM   27  N   UNL     1      41.386 -10.071  10.544  1.00  0.00    -0.355 N 
HETATM   28  H   UNL     1      41.753 -11.011  10.674  1.00  0.00     0.162 HD
BRANCH  27  29
HETATM   29  C   UNL     1      40.624  -9.515  11.656  1.00  0.00     0.155 C 
BRANCH  29  30
HETATM   30  C   UNL     1      41.313  -9.638  13.039  1.00  0.00     0.203 C 
HETATM   31  C   UNL     1      42.834  -9.700  12.934  1.00  0.00     0.036 C 
HETATM   32  C   UNL     1      43.262  -8.243  12.968  1.00  0.00     0.029 C 
HETATM   33  C   UNL     1      42.352  -7.637  14.015  1.00  0.00     0.233 C 
HETATM   34  N   UNL     1      41.083  -8.407  13.883  1.00  0.00    -0.069 N 
HETATM   35  H   UNL     1      40.345  -7.816  13.438  1.00  0.00     0.277 HD
HETATM   36  H   UNL     1      40.682  -8.647  14.796  1.00  0.00     0.277 HD
ENDBRANCH  29  30
ENDBRANCH  27  29
ENDBRANCH   5  25
TORSDOF 7
ENDMDL
MODEL 4
REMARK VINA RESULT:      -8.9      2.067     11.102
REMARK  7 active torsions:
REMARK  status: ('A' for Active; 'I' for Inactive)
REMARK    1  A    between atoms: C_4  and  C_14 
REMARK    2  A    between atoms: C_7  and  C_8 
REMARK       I    between atoms: C_14  and  N_16 
REMARK    3  A    between atoms: N_16  and  C_17 
REMARK    4  A    between atoms: C_17  and  C_18 
REMARK    5  A    between atoms: C_22  and  C_24 
REMARK       I    between atoms: C_24  and  N_26 
REMARK    6  A    between atoms: N_26  and  C_27 
REMARK    7  A    between atoms: C_27  and  C_28 
ROOT
HETATM    1  C   UNL     1      42.798 -13.016   5.932  1.00  0.00    -0.040 A 
HETATM    2  C   UNL     1      41.620 -12.265   6.032  1.00  0.00     0.009 A 
HETATM    3  C   UNL     1      40.468 -12.666   5.356  1.00  0.00     0.002 A 
HETATM    4  C   UNL     1      40.474 -13.834   4.593  1.00  0.00     0.017 A 
HETATM    5  C   UNL     1      41.635 -14.610   4.500  1.00  0.00     0.032 A 
HETATM    6  C   UNL     1      42.798 -14.185   5.153  1.00  0.00     0.026 A 
ENDROOT
BRANCH   1   7
HETATM    7  C   UNL     1      44.040 -12.620   6.691  1.00  0.00     0.161 C 
BRANCH   7   8
HETATM    8  N   UNL     1      43.708 -11.740   7.788  1.00  0.00    -0.353 N 
HETATM    9  C   UNL     1      44.643 -10.924   8.383  1.00  0.00     0.251 C 
HETATM   10  O   UNL     1      45.817 -10.853   8.040  1.00  0.00    -0.268 OA
HETATM   11  H   UNL     1      42.746 -11.714   8.099  1.00  0.00     0.163 HD
BRANCH   9  12
HETATM   12  C   UNL     1      44.142 -10.094   9.505  1.00  0.00     0.032 A 
HETATM   13  C   UNL     1      43.805  -8.748   9.311  1.00  0.00     0.024 A 
HETATM   14  C   UNL     1      43.320  -7.970  10.378  1.00  0.00    -0.050 A 
HETATM   15  C   UNL     1      42.957  -6.531  10.117  1.00  0.00     0.049 C 
HETATM   16  C   UNL     1      43.163  -8.568  11.647  1.00  0.00    -0.017 A 
HETATM   17  C   UNL     1      43.501  -9.920  11.825  1.00  0.00     0.014 A 
HETATM   18  C   UNL     1      43.981 -10.684  10.759  1.00  0.00     0.018 A 
BRANCH  16  19
HETATM   19  C   UNL     1      42.640  -7.833  12.781  1.00  0.00     0.011 A 
HETATM   20  C   UNL     1      41.314  -7.599  13.204  1.00  0.00     0.152 A 
HETATM   21  N   UNL     1      41.254  -6.862  14.315  1.00  0.00    -0.187 NA
HETATM   22  N   UNL     1      42.545  -6.629  14.611  1.00  0.00    -0.289 N 
HETATM   23  H   UNL     1      42.757  -6.075  15.435  1.00  0.00     0.188 HD
HETATM   24  C   UNL     1      43.415  -7.195  13.725  1.00  0.00     0.123 A 
ENDBRANCH  16  19
ENDBRANCH   9  12
ENDBRANCH   7   8
ENDBRANCH   1   7
BRANCH   5  25
HETATM   25  C   UNL     1      41.588 -15.863   3.696  1.00  0.00     0.251 C 
HETATM   26  O   UNL     1      40.516 -16.375   3.373  1.00  0.00    -0.268 OA
HETATM   27  N   UNL     1      42.786 -16.440   3.326  1.00  0.00    -0.355 N 
HETATM   28  H   UNL     1      43.630 -16.098   3.781  1.00  0.00     0.162 HD
BRANCH  27  29
HETATM   29  C   UNL     1      42.861 -17.776   2.746  1.00  0.00     0.155 C 
BRANCH  29  30
HETATM   30  C   UNL     1      44.135 -18.574   3.122  1.00  0.00     0.203 C 
HETATM   31  C   UNL     1      44.598 -18.305   4.551  1.00  0.00     0.036 C 
HETATM   32  C   UNL     1      43.840 -19.330   5.378  1.00  0.00     0.029 C 
HETATM   33  C   UNL     1      43.895 -20.578   4.523  1.00  0.00     0.233 C 
HETATM   34  N   UNL     1      43.875 -20.061   3.125  1.00  0.00    -0.069 N 
HETATM   35  H   UNL     1      42.948 -20.252   2.682  1.00  0.00     0.277 HD
HETATM   36  H   UNL     1      44.537 -20.561   2.521  1.00  0.00     0.277 HD
ENDBRANCH  29  30
ENDBRANCH  27  29
ENDBRANCH   5  25
TORSDOF 7
ENDMDL
MODEL 5
REMARK VINA RESULT:      -8.8      4.642      7.036
REMARK  7 active torsions:
REMARK  status: ('A' for Active; 'I' for Inactive)
REMARK    1  A    between atoms: C_4  and  C_14 
REMARK    2  A    between atoms: C_7  and  C_8 
REMARK       I    between atoms: C_14  and  N_16 
REMARK    3  A    between atoms: N_16  and  C_17 
REMARK    4  A    between atoms: C_17  and  C_18 
REMARK    5  A    between atoms: C_22  and  C_24 
REMARK       I    between atoms: C_24  and  N_26 
REMARK    6  A    between atoms: N_26  and  C_27 
REMARK    7  A    between atoms: C_27  and  C_28 
ROOT
HETATM    1  C   UNL     1      41.874 -15.849   5.267  1.00  0.00    -0.040 A 
HETATM    2  C   UNL     1      42.864 -16.808   5.514  1.00  0.00     0.009 A 
HETATM    3  C   UNL     1      44.091 -16.430   6.061  1.00  0.00     0.002 A 
HETATM    4  C   UNL     1      44.332 -15.095   6.387  1.00  0.00     0.017 A 
HETATM    5  C   UNL     1      43.345 -14.127   6.167  1.00  0.00     0.032 A 
HETATM    6  C   UNL     1      42.129 -14.505   5.588  1.00  0.00     0.026 A 
ENDROOT
BRANCH   1   7
HETATM    7  C   UNL     1      40.527 -16.247   4.716  1.00  0.00     0.161 C 
BRANCH   7   8
HETATM    8  N   UNL     1      40.180 -15.427   3.578  1.00  0.00    -0.353 N 
HETATM    9  C   UNL     1      40.611 -15.721   2.304  1.00  0.00     0.251 C 
HETATM   10  O   UNL     1      41.302 -16.690   2.014  1.00  0.00    -0.268 OA
HETATM   11  H   UNL     1      39.576 -14.631   3.734  1.00  0.00     0.163 HD
BRANCH   9  12
HETATM   12  C   UNL     1      40.178 -14.771   1.250  1.00  0.00     0.032 A 
HETATM   13  C   UNL     1      39.838 -15.223  -0.031  1.00  0.00     0.024 A 
HETATM   14  C   UNL     1      39.416 -14.318  -1.022  1.00  0.00    -0.050 A 
HETATM   15  C   UNL     1      39.047 -14.854  -2.381  1.00  0.00     0.049 C 
HETATM   16  C   UNL     1      39.326 -12.946  -0.704  1.00  0.00    -0.017 A 
HETATM   17  C   UNL     1      39.666 -12.508   0.588  1.00  0.00     0.014 A 
HETATM   18  C   UNL     1      40.082 -13.416   1.564  1.00  0.00     0.018 A 
BRANCH  16  19
HETATM   19  C   UNL     1      38.871 -11.964  -1.667  1.00  0.00     0.011 A 
HETATM   20  C   UNL     1      37.575 -11.493  -1.972  1.00  0.00     0.152 A 
HETATM   21  N   UNL     1      37.579 -10.573  -2.938  1.00  0.00    -0.187 NA
HETATM   22  N   UNL     1      38.881 -10.446  -3.249  1.00  0.00    -0.289 N 
HETATM   23  H   UNL     1      39.139  -9.787  -3.977  1.00  0.00     0.188 HD
HETATM   24  C   UNL     1      39.696 -11.254  -2.511  1.00  0.00     0.123 A 
ENDBRANCH  16  19
ENDBRANCH   9  12
ENDBRANCH   7   8
ENDBRANCH   1   7
BRANCH   5  25
HETATM   25  C   UNL     1      43.636 -12.718   6.555  1.00  0.00     0.251 C 
HETATM   26  O   UNL     1      42.734 -11.889   6.672  1.00  0.00    -0.268 OA
HETATM   27  N   UNL     1      44.952 -12.366   6.775  1.00  0.00    -0.355 N 
HETATM   28  H   UNL     1      45.668 -13.023   6.472  1.00  0.00     0.162 HD
BRANCH  27  29
HETATM   29  C   UNL     1      45.372 -10.977   6.927  1.00  0.00     0.155 C 
BRANCH  29  30
HETATM   30  C   UNL     1      45.566 -10.517   8.394  1.00  0.00     0.203 C 
HETATM   31  C   UNL     1      45.958  -9.046   8.502  1.00  0.00     0.036 C 
HETATM   32  C   UNL     1      44.626  -8.317   8.561  1.00  0.00     0.029 C 
HETATM   33  C   UNL     1      43.784  -9.201   9.458  1.00  0.00     0.233 C 
HETATM   34  N   UNL     1      44.272 -10.580   9.169  1.00  0.00    -0.069 N 
HETATM   35  H   UNL     1      43.561 -11.106   8.613  1.00  0.00     0.277 HD
HETATM   36  H   UNL     1      44.371 -11.139  10.023  1.00  0.00     0.277 HD
ENDBRANCH  29  30
ENDBRANCH  27  29
ENDBRANCH   5  25
TORSDOF 7
ENDMDL
MODEL 6
REMARK VINA RESULT:      -8.8      3.043     10.936
REMARK  7 active torsions:
REMARK  status: ('A' for Active; 'I' for Inactive)
REMARK    1  A    between atoms: C_4  and  C_14 
REMARK    2  A    between atoms: C_7  and  C_8 
REMARK       I    between atoms: C_14  and  N_16 
REMARK    3  A    between atoms: N_16  and  C_17 
REMARK    4  A    between atoms: C_17  and  C_18 
REMARK    5  A    between atoms: C_22  and  C_24 
REMARK       I    between atoms: C_24  and  N_26 
REMARK    6  A    between atoms: N_26  and  C_27 
REMARK    7  A    between atoms: C_27  and  C_28 
ROOT
HETATM    1  C   UNL     1      43.248 -13.757   6.440  1.00  0.00    -0.040 A 
HETATM    2  C   UNL     1      43.178 -14.578   7.573  1.00  0.00     0.009 A 
HETATM    3  C   UNL     1      42.479 -15.784   7.529  1.00  0.00     0.002 A 
HETATM    4  C   UNL     1      41.861 -16.193   6.347  1.00  0.00     0.017 A 
HETATM    5  C   UNL     1      41.940 -15.397   5.199  1.00  0.00     0.032 A 
HETATM    6  C   UNL     1      42.614 -14.173   5.257  1.00  0.00     0.026 A 
ENDROOT
BRANCH   1   7
HETATM    7  C   UNL     1      44.035 -12.472   6.459  1.00  0.00     0.161 C 
BRANCH   7   8
HETATM    8  N   UNL     1      43.693 -11.681   7.618  1.00  0.00    -0.353 N 
HETATM    9  C   UNL     1      44.616 -10.895   8.269  1.00  0.00     0.251 C 
HETATM   10  O   UNL     1      45.788 -10.780   7.930  1.00  0.00    -0.268 OA
HETATM   11  H   UNL     1      42.731 -11.693   7.933  1.00  0.00     0.163 HD
BRANCH   9  12
HETATM   12  C   UNL     1      44.106 -10.157   9.451  1.00  0.00     0.032 A 
HETATM   13  C   UNL     1      43.760  -8.803   9.360  1.00  0.00     0.024 A 
HETATM   14  C   UNL     1      43.265  -8.113  10.482  1.00  0.00    -0.050 A 
HETATM   15  C   UNL     1      42.892  -6.661  10.331  1.00  0.00     0.049 C 
HETATM   16  C   UNL     1      43.109  -8.808  11.700  1.00  0.00    -0.017 A 
HETATM   17  C   UNL     1      43.456 -10.168  11.774  1.00  0.00     0.014 A 
HETATM   18  C   UNL     1      43.945 -10.844  10.654  1.00  0.00     0.018 A 
BRANCH  16  19
HETATM   19  C   UNL     1      42.577  -8.168  12.886  1.00  0.00     0.011 A 
HETATM   20  C   UNL     1      43.205  -7.387  13.881  1.00  0.00     0.152 A 
HETATM   21  N   UNL     1      42.353  -6.978  14.823  1.00  0.00    -0.187 NA
HETATM   22  N   UNL     1      41.174  -7.489  14.428  1.00  0.00    -0.289 N 
HETATM   23  H   UNL     1      40.355  -7.307  15.000  1.00  0.00     0.188 HD
HETATM   24  C   UNL     1      41.254  -8.206  13.269  1.00  0.00     0.123 A 
ENDBRANCH  16  19
ENDBRANCH   9  12
ENDBRANCH   7   8
ENDBRANCH   1   7
BRANCH   5  25
HETATM   25  C   UNL     1      41.288 -15.887   3.951  1.00  0.00     0.251 C 
HETATM   26  O   UNL     1      41.612 -16.958   3.439  1.00  0.00    -0.268 OA
HETATM   27  N   UNL     1      40.310 -15.099   3.380  1.00  0.00    -0.355 N 
HETATM   28  H   UNL     1      40.221 -14.144   3.720  1.00  0.00     0.162 HD
BRANCH  27  29
HETATM   29  C   UNL     1      39.777 -15.362   2.048  1.00  0.00     0.155 C 
BRANCH  29  30
HETATM   30  C   UNL     1      40.700 -14.922   0.883  1.00  0.00     0.203 C 
HETATM   31  C   UNL     1      39.924 -14.586  -0.387  1.00  0.00     0.036 C 
HETATM   32  C   UNL     1      39.592 -13.111  -0.233  1.00  0.00     0.029 C 
HETATM   33  C   UNL     1      40.861 -12.528   0.353  1.00  0.00     0.233 C 
HETATM   34  N   UNL     1      41.409 -13.627   1.198  1.00  0.00    -0.069 N 
HETATM   35  H   UNL     1      41.283 -13.401   2.211  1.00  0.00     0.277 HD
HETATM   36  H   UNL     1      42.425 -13.720   1.097  1.00  0.00     0.277 HD
ENDBRANCH  29  30
ENDBRANCH  27  29
ENDBRANCH   5  25
TORSDOF 7
ENDMDL
MODEL 7
REMARK VINA RESULT:      -8.8      2.453      3.511
REMARK  7 active torsions:
REMARK  status: ('A' for Active; 'I' for Inactive)
REMARK    1  A    between atoms: C_4  and  C_14 
REMARK    2  A    between atoms: C_7  and  C_8 
REMARK       I    between atoms: C_14  and  N_16 
REMARK    3  A    between atoms: N_16  and  C_17 
REMARK    4  A    between atoms: C_17  and  C_18 
REMARK    5  A    between atoms: C_22  and  C_24 
REMARK       I    between atoms: C_24  and  N_26 
REMARK    6  A    between atoms: N_26  and  C_27 
REMARK    7  A    between atoms: C_27  and  C_28 
ROOT
HETATM    1  C   UNL     1      41.308 -10.718   5.105  1.00  0.00    -0.040 A 
HETATM    2  C   UNL     1      40.173 -10.751   4.286  1.00  0.00     0.009 A 
HETATM    3  C   UNL     1      38.916 -10.444   4.808  1.00  0.00     0.002 A 
HETATM    4  C   UNL     1      38.784 -10.079   6.148  1.00  0.00     0.017 A 
HETATM    5  C   UNL     1      39.911 -10.019   6.976  1.00  0.00     0.032 A 
HETATM    6  C   UNL     1      41.164 -10.360   6.456  1.00  0.00     0.026 A 
ENDROOT
BRANCH   1   7
HETATM    7  C   UNL     1      42.679 -11.006   4.546  1.00  0.00     0.161 C 
BRANCH   7   8
HETATM    8  N   UNL     1      42.873 -12.427   4.378  1.00  0.00    -0.353 N 
HETATM    9  C   UNL     1      42.725 -13.049   3.159  1.00  0.00     0.251 C 
HETATM   10  O   UNL     1      42.435 -12.470   2.118  1.00  0.00    -0.268 OA
HETATM   11  H   UNL     1      43.154 -12.966   5.187  1.00  0.00     0.163 HD
BRANCH   9  12
HETATM   12  C   UNL     1      42.945 -14.515   3.160  1.00  0.00     0.032 A 
HETATM   13  C   UNL     1      42.919 -15.247   4.354  1.00  0.00     0.024 A 
HETATM   14  C   UNL     1      43.118 -16.640   4.345  1.00  0.00    -0.050 A 
HETATM   15  C   UNL     1      43.066 -17.386   5.653  1.00  0.00     0.049 C 
HETATM   16  C   UNL     1      43.329 -17.295   3.113  1.00  0.00    -0.017 A 
HETATM   17  C   UNL     1      43.347 -16.548   1.922  1.00  0.00     0.014 A 
HETATM   18  C   UNL     1      43.148 -15.166   1.942  1.00  0.00     0.018 A 
BRANCH  16  19
HETATM   19  C   UNL     1      43.509 -18.730   3.028  1.00  0.00     0.011 A 
HETATM   20  C   UNL     1      43.144 -19.654   2.026  1.00  0.00     0.152 A 
HETATM   21  N   UNL     1      43.492 -20.906   2.332  1.00  0.00    -0.187 NA
HETATM   22  N   UNL     1      44.090 -20.784   3.530  1.00  0.00    -0.289 N 
HETATM   23  H   UNL     1      44.447 -21.623   3.976  1.00  0.00     0.188 HD
HETATM   24  C   UNL     1      44.131 -19.499   3.988  1.00  0.00     0.123 A 
ENDBRANCH  16  19
ENDBRANCH   9  12
ENDBRANCH   7   8
ENDBRANCH   1   7
BRANCH   5  25
HETATM   25  C   UNL     1      39.727  -9.599   8.394  1.00  0.00     0.251 C 
HETATM   26  O   UNL     1      38.652  -9.150   8.792  1.00  0.00    -0.268 OA
HETATM   27  N   UNL     1      40.801  -9.723   9.251  1.00  0.00    -0.355 N 
HETATM   28  H   UNL     1      41.712  -9.905   8.834  1.00  0.00     0.162 HD
BRANCH  27  29
HETATM   29  C   UNL     1      40.807  -9.131  10.584  1.00  0.00     0.155 C 
BRANCH  29  30
HETATM   30  C   UNL     1      41.654  -9.900  11.630  1.00  0.00     0.203 C 
HETATM   31  C   UNL     1      43.146  -9.605  11.510  1.00  0.00     0.036 C 
HETATM   32  C   UNL     1      43.349  -8.388  12.397  1.00  0.00     0.029 C 
HETATM   33  C   UNL     1      42.477  -8.683  13.599  1.00  0.00     0.233 C 
HETATM   34  N   UNL     1      41.333  -9.455  13.036  1.00  0.00    -0.069 N 
HETATM   35  H   UNL     1      40.469  -8.867  13.025  1.00  0.00     0.277 HD
HETATM   36  H   UNL     1      41.075 -10.249  13.633  1.00  0.00     0.277 HD
ENDBRANCH  29  30
ENDBRANCH  27  29
ENDBRANCH   5  25
TORSDOF 7
ENDMDL
MODEL 8
REMARK VINA RESULT:      -8.8      2.760      8.963
REMARK  7 active torsions:
REMARK  status: ('A' for Active; 'I' for Inactive)
REMARK    1  A    between atoms: C_4  and  C_14 
REMARK    2  A    between atoms: C_7  and  C_8 
REMARK       I    between atoms: C_14  and  N_16 
REMARK    3  A    between atoms: N_16  and  C_17 
REMARK    4  A    between atoms: C_17  and  C_18 
REMARK    5  A    between atoms: C_22  and  C_24 
REMARK       I    between atoms: C_24  and  N_26 
REMARK    6  A    between atoms: N_26  and  C_27 
REMARK    7  A    between atoms: C_27  and  C_28 
ROOT
HETATM    1  C   UNL     1      41.395 -13.183   2.006  1.00  0.00    -0.040 A 
HETATM    2  C   UNL     1      40.710 -13.659   0.881  1.00  0.00     0.009 A 
HETATM    3  C   UNL     1      40.277 -14.984   0.827  1.00  0.00     0.002 A 
HETATM    4  C   UNL     1      40.504 -15.840   1.905  1.00  0.00     0.017 A 
HETATM    5  C   UNL     1      41.167 -15.375   3.047  1.00  0.00     0.032 A 
HETATM    6  C   UNL     1      41.628 -14.054   3.083  1.00  0.00     0.026 A 
ENDROOT
BRANCH   1   7
HETATM    7  C   UNL     1      41.832 -11.742   2.099  1.00  0.00     0.161 C 
BRANCH   7   8
HETATM    8  N   UNL     1      42.080 -11.372   3.473  1.00  0.00    -0.353 N 
HETATM    9  C   UNL     1      43.351 -11.302   3.996  1.00  0.00     0.251 C 
HETATM   10  O   UNL     1      44.374 -11.527   3.360  1.00  0.00    -0.268 OA
HETATM   11  H   UNL     1      41.285 -11.132   4.050  1.00  0.00     0.163 HD
BRANCH   9  12
HETATM   12  C   UNL     1      43.432 -10.922   5.427  1.00  0.00     0.032 A 
HETATM   13  C   UNL     1      44.640 -11.016   6.130  1.00  0.00     0.024 A 
HETATM   14  C   UNL     1      44.712 -10.642   7.485  1.00  0.00    -0.050 A 
HETATM   15  C   UNL     1      46.036 -10.747   8.195  1.00  0.00     0.049 C 
HETATM   16  C   UNL     1      43.551 -10.155   8.123  1.00  0.00    -0.017 A 
HETATM   17  C   UNL     1      42.348 -10.061   7.403  1.00  0.00     0.014 A 
HETATM   18  C   UNL     1      42.288 -10.434   6.059  1.00  0.00     0.018 A 
BRANCH  16  19
HETATM   19  C   UNL     1      43.561  -9.724   9.507  1.00  0.00     0.011 A 
HETATM   20  C   UNL     1      43.638  -8.435  10.077  1.00  0.00     0.152 A 
HETATM   21  N   UNL     1      43.620  -8.464  11.412  1.00  0.00    -0.187 NA
HETATM   22  N   UNL     1      43.524  -9.773  11.699  1.00  0.00    -0.289 N 
HETATM   23  H   UNL     1      43.493 -10.050  12.675  1.00  0.00     0.188 HD
HETATM   24  C   UNL     1      43.479 -10.570  10.591  1.00  0.00     0.123 A 
ENDBRANCH  16  19
ENDBRANCH   9  12
ENDBRANCH   7   8
ENDBRANCH   1   7
BRANCH   5  25
HETATM   25  C   UNL     1      41.363 -16.316   4.184  1.00  0.00     0.251 C 
HETATM   26  O   UNL     1      40.442 -16.588   4.955  1.00  0.00    -0.268 OA
HETATM   27  N   UNL     1      42.614 -16.875   4.354  1.00  0.00    -0.355 N 
HETATM   28  H   UNL     1      43.382 -16.470   3.823  1.00  0.00     0.162 HD
BRANCH  27  29
HETATM   29  C   UNL     1      42.979 -17.617   5.556  1.00  0.00     0.155 C 
BRANCH  29  30
HETATM   30  C   UNL     1      43.978 -16.887   6.489  1.00  0.00     0.203 C 
HETATM   31  C   UNL     1      44.143 -15.412   6.135  1.00  0.00     0.036 C 
HETATM   32  C   UNL     1      43.053 -14.720   6.935  1.00  0.00     0.029 C 
HETATM   33  C   UNL     1      43.086 -15.443   8.265  1.00  0.00     0.233 C 
HETATM   34  N   UNL     1      43.472 -16.838   7.910  1.00  0.00    -0.069 N 
HETATM   35  H   UNL     1      42.651 -17.477   8.008  1.00  0.00     0.277 HD
HETATM   36  H   UNL     1      44.158 -17.226   8.568  1.00  0.00     0.277 HD
ENDBRANCH  29  30
ENDBRANCH  27  29
ENDBRANCH   5  25
TORSDOF 7
ENDMDL
MODEL 9
REMARK VINA RESULT:      -8.5      2.188      2.751
REMARK  7 active torsions:
REMARK  status: ('A' for Active; 'I' for Inactive)
REMARK    1  A    between atoms: C_4  and  C_14 
REMARK    2  A    between atoms: C_7  and  C_8 
REMARK       I    between atoms: C_14  and  N_16 
REMARK    3  A    between atoms: N_16  and  C_17 
REMARK    4  A    between atoms: C_17  and  C_18 
REMARK    5  A    between atoms: C_22  and  C_24 
REMARK       I    between atoms: C_24  and  N_26 
REMARK    6  A    between atoms: N_26  and  C_27 
REMARK    7  A    between atoms: C_27  and  C_28 
ROOT
HETATM    1  C   UNL     1      41.280  -9.908   7.056  1.00  0.00    -0.040 A 
HETATM    2  C   UNL     1      42.674 -10.050   7.064  1.00  0.00     0.009 A 
HETATM    3  C   UNL     1      43.418  -9.642   8.171  1.00  0.00     0.002 A 
HETATM    4  C   UNL     1      42.777  -9.111   9.290  1.00  0.00     0.017 A 
HETATM    5  C   UNL     1      41.383  -8.984   9.309  1.00  0.00     0.032 A 
HETATM    6  C   UNL     1      40.644  -9.363   8.183  1.00  0.00     0.026 A 
ENDROOT
BRANCH   1   7
HETATM    7  C   UNL     1      40.457 -10.383   5.885  1.00  0.00     0.161 C 
BRANCH   7   8
HETATM    8  N   UNL     1      40.974 -11.631   5.372  1.00  0.00    -0.353 N 
HETATM    9  C   UNL     1      40.339 -12.833   5.590  1.00  0.00     0.251 C 
HETATM   10  O   UNL     1      39.291 -12.959   6.213  1.00  0.00    -0.268 OA
HETATM   11  H   UNL     1      41.815 -11.601   4.812  1.00  0.00     0.163 HD
BRANCH   9  12
HETATM   12  C   UNL     1      41.007 -14.022   5.008  1.00  0.00     0.032 A 
HETATM   13  C   UNL     1      41.837 -13.905   3.886  1.00  0.00     0.024 A 
HETATM   14  C   UNL     1      42.477 -15.036   3.346  1.00  0.00    -0.050 A 
HETATM   15  C   UNL     1      43.372 -14.857   2.147  1.00  0.00     0.049 C 
HETATM   16  C   UNL     1      42.283 -16.291   3.961  1.00  0.00    -0.017 A 
HETATM   17  C   UNL     1      41.452 -16.392   5.089  1.00  0.00     0.014 A 
HETATM   18  C   UNL     1      40.822 -15.263   5.617  1.00  0.00     0.018 A 
BRANCH  16  19
HETATM   19  C   UNL     1      42.936 -17.491   3.476  1.00  0.00     0.011 A 
HETATM   20  C   UNL     1      42.711 -18.267   2.319  1.00  0.00     0.152 A 
HETATM   21  N   UNL     1      43.536 -19.313   2.236  1.00  0.00    -0.187 NA
HETATM   22  N   UNL     1      44.298 -19.203   3.338  1.00  0.00    -0.289 N 
HETATM   23  H   UNL     1      45.017 -19.902   3.497  1.00  0.00     0.188 HD
HETATM   24  C   UNL     1      43.981 -18.124   4.111  1.00  0.00     0.123 A 
ENDBRANCH  16  19
ENDBRANCH   9  12
ENDBRANCH   7   8
ENDBRANCH   1   7
BRANCH   5  25
HETATM   25  C   UNL     1      40.738  -8.436  10.536  1.00  0.00     0.251 C 
HETATM   26  O   UNL     1      40.509  -7.233  10.654  1.00  0.00    -0.268 OA
HETATM   27  N   UNL     1      40.408  -9.320  11.543  1.00  0.00    -0.355 N 
HETATM   28  H   UNL     1      40.794 -10.260  11.485  1.00  0.00     0.162 HD
BRANCH  27  29
HETATM   29  C   UNL     1      39.993  -8.873  12.868  1.00  0.00     0.155 C 
BRANCH  29  30
HETATM   30  C   UNL     1      41.013  -9.163  13.998  1.00  0.00     0.203 C 
HETATM   31  C   UNL     1      42.450  -9.227  13.490  1.00  0.00     0.036 C 
HETATM   32  C   UNL     1      42.931  -7.788  13.570  1.00  0.00     0.029 C 
HETATM   33  C   UNL     1      42.349  -7.299  14.880  1.00  0.00     0.233 C 
HETATM   34  N   UNL     1      41.060  -8.036  15.002  1.00  0.00    -0.069 N 
HETATM   35  H   UNL     1      40.256  -7.390  14.835  1.00  0.00     0.277 HD
HETATM   36  H   UNL     1      40.901  -8.376  15.957  1.00  0.00     0.277 HD
ENDBRANCH  29  30
ENDBRANCH  27  29
ENDBRANCH   5  25
TORSDOF 7
ENDMDL
MODEL 10
REMARK VINA RESULT:      -8.4      6.261      8.977
REMARK  7 active torsions:
REMARK  status: ('A' for Active; 'I' for Inactive)
REMARK    1  A    between atoms: C_4  and  C_14 
REMARK    2  A    between atoms: C_7  and  C_8 
REMARK       I    between atoms: C_14  and  N_16 
REMARK    3  A    between atoms: N_16  and  C_17 
REMARK    4  A    between atoms: C_17  and  C_18 
REMARK    5  A    between atoms: C_22  and  C_24 
REMARK       I    between atoms: C_24  and  N_26 
REMARK    6  A    between atoms: N_26  and  C_27 
REMARK    7  A    between atoms: C_27  and  C_28 
ROOT
HETATM    1  C   UNL     1      40.919 -11.718   0.181  1.00  0.00    -0.040 A 
HETATM    2  C   UNL     1      40.720 -12.794  -0.693  1.00  0.00     0.009 A 
HETATM    3  C   UNL     1      40.708 -12.590  -2.072  1.00  0.00     0.002 A 
HETATM    4  C   UNL     1      40.916 -11.313  -2.594  1.00  0.00     0.017 A 
HETATM    5  C   UNL     1      41.139 -10.230  -1.737  1.00  0.00     0.032 A 
HETATM    6  C   UNL     1      41.118 -10.434  -0.353  1.00  0.00     0.026 A 
ENDROOT
BRANCH   1   7
HETATM    7  C   UNL     1      40.978 -11.928   1.673  1.00  0.00     0.161 C 
BRANCH   7   8
HETATM    8  N   UNL     1      41.415 -13.270   1.981  1.00  0.00    -0.353 N 
HETATM    9  C   UNL     1      42.606 -13.524   2.624  1.00  0.00     0.251 C 
HETATM   10  O   UNL     1      43.387 -12.659   3.001  1.00  0.00    -0.268 OA
HETATM   11  H   UNL     1      40.802 -14.036   1.736  1.00  0.00     0.163 HD
BRANCH   9  12
HETATM   12  C   UNL     1      42.914 -14.957   2.853  1.00  0.00     0.032 A 
HETATM   13  C   UNL     1      42.918 -15.495   4.145  1.00  0.00     0.024 A 
HETATM   14  C   UNL     1      43.199 -16.858   4.354  1.00  0.00    -0.050 A 
HETATM   15  C   UNL     1      43.176 -17.394   5.762  1.00  0.00     0.049 C 
HETATM   16  C   UNL     1      43.464 -17.681   3.239  1.00  0.00    -0.017 A 
HETATM   17  C   UNL     1      43.452 -17.128   1.947  1.00  0.00     0.014 A 
HETATM   18  C   UNL     1      43.170 -15.774   1.752  1.00  0.00     0.018 A 
BRANCH  16  19
HETATM   19  C   UNL     1      43.731 -19.099   3.378  1.00  0.00     0.011 A 
HETATM   20  C   UNL     1      43.546 -20.171   2.479  1.00  0.00     0.152 A 
HETATM   21  N   UNL     1      43.920 -21.343   2.997  1.00  0.00    -0.187 NA
HETATM   22  N   UNL     1      44.354 -21.021   4.228  1.00  0.00    -0.289 N 
HETATM   23  H   UNL     1      44.697 -21.766   4.827  1.00  0.00     0.188 HD
HETATM   24  C   UNL     1      44.267 -19.687   4.503  1.00  0.00     0.123 A 
ENDBRANCH  16  19
ENDBRANCH   9  12
ENDBRANCH   7   8
ENDBRANCH   1   7
BRANCH   5  25
HETATM   25  C   UNL     1      41.383  -8.889  -2.339  1.00  0.00     0.251 C 
HETATM   26  O   UNL     1      40.625  -8.422  -3.189  1.00  0.00    -0.268 OA
HETATM   27  N   UNL     1      42.492  -8.183  -1.918  1.00  0.00    -0.355 N 
HETATM   28  H   UNL     1      43.188  -8.687  -1.373  1.00  0.00     0.162 HD
BRANCH  27  29
HETATM   29  C   UNL     1      42.954  -6.979  -2.600  1.00  0.00     0.155 C 
BRANCH  29  30
HETATM   30  C   UNL     1      42.470  -5.650  -1.966  1.00  0.00     0.203 C 
HETATM   31  C   UNL     1      42.461  -5.695  -0.440  1.00  0.00     0.036 C 
HETATM   32  C   UNL     1      43.860  -5.247  -0.054  1.00  0.00     0.029 C 
HETATM   33  C   UNL     1      44.146  -4.120  -1.023  1.00  0.00     0.233 C 
HETATM   34  N   UNL     1      43.422  -4.516  -2.264  1.00  0.00    -0.069 N 
HETATM   35  H   UNL     1      44.101  -4.819  -2.999  1.00  0.00     0.277 HD
HETATM   36  H   UNL     1      42.937  -3.722  -2.697  1.00  0.00     0.277 HD
ENDBRANCH  29  30
ENDBRANCH  27  29
ENDBRANCH   5  25
TORSDOF 7
ENDMDL
