MODEL 1
REMARK VINA RESULT:      -8.3      0.000      0.000
REMARK  6 active torsions:
REMARK  status: ('A' for Active; 'I' for Inactive)
REMARK    1  A    between atoms: C_3  and  N_4 
REMARK       I    between atoms: N_4  and  C_5 
REMARK       I    between atoms: C_5  and  N_6 
REMARK    2  A    between atoms: N_6  and  C_7 
REMARK    3  A    between atoms: C_7  and  C_8 
REMARK    4  A    between atoms: C_8  and  C_9 
REMARK    5  A    between atoms: C_21  and  O_22 
REMARK    6  A    between atoms: O_22  and  C_23 
ROOT
HETATM    1  N   UNL     1      40.101 -14.952   4.423  1.00  0.00    -0.308 N 
HETATM    2  C   UNL     1      40.770 -15.901   5.136  1.00  0.00     0.322 C 
HETATM    3  N   UNL     1      42.122 -16.080   4.927  1.00  0.00    -0.338 N 
HETATM    4  C   UNL     1      43.008 -15.046   4.400  1.00  0.00     0.154 C 
HETATM    5  O   UNL     1      40.156 -16.509   6.015  1.00  0.00    -0.247 OA
HETATM    6  H   UNL     1      39.249 -14.669   4.891  1.00  0.00     0.170 HD
ENDROOT
BRANCH   1   7
HETATM    7  C   UNL     1      40.154 -14.656   3.044  1.00  0.00     0.042 A 
HETATM    8  C   UNL     1      40.288 -13.309   2.644  1.00  0.00    -0.033 A 
HETATM    9  C   UNL     1      40.427 -12.192   3.644  1.00  0.00     0.050 C 
HETATM   10  C   UNL     1      40.290 -12.994   1.273  1.00  0.00     0.045 A 
HETATM   11  C   UNL     1      40.186 -14.003   0.316  1.00  0.00     0.075 A 
HETATM   12  C   UNL     1      40.016 -15.325   0.713  1.00  0.00     0.039 A 
HETATM   13  C   UNL     1      40.005 -15.651   2.071  1.00  0.00     0.033 A 
BRANCH  11  14
HETATM   14  O   UNL     1      40.149 -13.742  -1.024  1.00  0.00    -0.290 OA
BRANCH  14  15
HETATM   15  C   UNL     1      39.155 -14.512  -1.690  1.00  0.00     0.505 C 
HETATM   16  F   UNL     1      38.029 -13.768  -1.825  1.00  0.00    -0.184 F 
HETATM   17  F   UNL     1      39.611 -14.759  -2.945  1.00  0.00    -0.184 F 
ENDBRANCH  14  15
ENDBRANCH  11  14
ENDBRANCH   1   7
BRANCH   3  18
HETATM   18  C   UNL     1      42.785 -17.170   5.649  1.00  0.00     0.132 C 
BRANCH  18  19
HETATM   19  C   UNL     1      44.089 -17.630   4.975  1.00  0.00     0.062 C 
BRANCH  19  20
HETATM   20  C   UNL     1      43.869 -18.702   3.956  1.00  0.00    -0.007 A 
HETATM   21  C   UNL     1      43.969 -20.111   4.142  1.00  0.00     0.059 A 
HETATM   22  C   UNL     1      44.295 -20.858   5.382  1.00  0.00     0.073 C 
HETATM   23  N   UNL     1      43.706 -20.780   3.014  1.00  0.00    -0.179 NA
HETATM   24  N   UNL     1      43.426 -19.822   2.121  1.00  0.00    -0.282 N 
HETATM   25  H   UNL     1      43.182 -20.105   1.178  1.00  0.00     0.189 HD
HETATM   26  C   UNL     1      43.509 -18.556   2.628  1.00  0.00     0.032 A 
HETATM   27  C   UNL     1      43.236 -17.357   1.804  1.00  0.00     0.070 C 
ENDBRANCH  19  20
ENDBRANCH  18  19
ENDBRANCH   3  18
TORSDOF 6
ENDMDL
MODEL 2
REMARK VINA RESULT:      -8.0      4.756      7.148
REMARK  6 active torsions:
REMARK  status: ('A' for Active; 'I' for Inactive)
REMARK    1  A    between atoms: C_3  and  N_4 
REMARK       I    between atoms: N_4  and  C_5 
REMARK       I    between atoms: C_5  and  N_6 
REMARK    2  A    between atoms: N_6  and  C_7 
REMARK    3  A    between atoms: C_7  and  C_8 
REMARK    4  A    between atoms: C_8  and  C_9 
REMARK    5  A    between atoms: C_21  and  O_22 
REMARK    6  A    between atoms: O_22  and  C_23 
ROOT
HETATM    1  N   UNL     1      40.961 -15.039   4.701  1.00  0.00    -0.308 N 
HETATM    2  C   UNL     1      41.235 -13.976   5.508  1.00  0.00     0.322 C 
HETATM    3  N   UNL     1      42.349 -13.203   5.257  1.00  0.00    -0.338 N 
HETATM    4  C   UNL     1      42.982 -13.090   3.945  1.00  0.00     0.154 C 
HETATM    5  O   UNL     1      40.421 -13.688   6.388  1.00  0.00    -0.247 OA
HETATM    6  H   UNL     1      39.982 -15.297   4.747  1.00  0.00     0.170 HD
ENDROOT
BRANCH   1   7
HETATM    7  C   UNL     1      41.822 -16.043   4.207  1.00  0.00     0.042 A 
HETATM    8  C   UNL     1      41.683 -16.456   2.865  1.00  0.00    -0.033 A 
HETATM    9  C   UNL     1      40.681 -15.822   1.937  1.00  0.00     0.050 C 
HETATM   10  C   UNL     1      42.499 -17.491   2.375  1.00  0.00     0.045 A 
HETATM   11  C   UNL     1      43.454 -18.088   3.197  1.00  0.00     0.075 A 
HETATM   12  C   UNL     1      43.563 -17.705   4.530  1.00  0.00     0.039 A 
HETATM   13  C   UNL     1      42.754 -16.684   5.031  1.00  0.00     0.033 A 
BRANCH  11  14
HETATM   14  O   UNL     1      44.244 -19.119   2.775  1.00  0.00    -0.290 OA
BRANCH  14  15
HETATM   15  C   UNL     1      43.485 -20.279   2.461  1.00  0.00     0.505 C 
HETATM   16  F   UNL     1      43.742 -20.649   1.181  1.00  0.00    -0.184 F 
HETATM   17  F   UNL     1      43.937 -21.284   3.253  1.00  0.00    -0.184 F 
ENDBRANCH  14  15
ENDBRANCH  11  14
ENDBRANCH   1   7
BRANCH   3  18
HETATM   18  C   UNL     1      42.657 -12.124   6.200  1.00  0.00     0.132 C 
BRANCH  18  19
HETATM   19  C   UNL     1      43.725 -12.518   7.235  1.00  0.00     0.062 C 
BRANCH  19  20
HETATM   20  C   UNL     1      44.708 -11.424   7.500  1.00  0.00    -0.007 A 
HETATM   21  C   UNL     1      44.762 -10.561   8.633  1.00  0.00     0.059 A 
HETATM   22  C   UNL     1      43.879 -10.546   9.825  1.00  0.00     0.073 C 
HETATM   23  N   UNL     1      45.775  -9.693   8.547  1.00  0.00    -0.179 NA
HETATM   24  N   UNL     1      46.373  -9.999   7.388  1.00  0.00    -0.282 N 
HETATM   25  H   UNL     1      47.191  -9.463   7.116  1.00  0.00     0.189 HD
HETATM   26  C   UNL     1      45.777 -11.028   6.716  1.00  0.00     0.032 A 
HETATM   27  C   UNL     1      46.284 -11.521   5.416  1.00  0.00     0.070 C 
ENDBRANCH  19  20
ENDBRANCH  18  19
ENDBRANCH   3  18
TORSDOF 6
ENDMDL
MODEL 3
REMARK VINA RESULT:      -7.9      3.635      6.210
REMARK  6 active torsions:
REMARK  status: ('A' for Active; 'I' for Inactive)
REMARK    1  A    between atoms: C_3  and  N_4 
REMARK       I    between atoms: N_4  and  C_5 
REMARK       I    between atoms: C_5  and  N_6 
REMARK    2  A    between atoms: N_6  and  C_7 
REMARK    3  A    between atoms: C_7  and  C_8 
REMARK    4  A    between atoms: C_8  and  C_9 
REMARK    5  A    between atoms: C_21  and  O_22 
REMARK    6  A    between atoms: O_22  and  C_23 
ROOT
HETATM    1  N   UNL     1      43.419 -14.574   5.505  1.00  0.00    -0.308 N 
HETATM    2  C   UNL     1      42.541 -13.563   5.254  1.00  0.00     0.322 C 
HETATM    3  N   UNL     1      41.189 -13.831   5.215  1.00  0.00    -0.338 N 
HETATM    4  C   UNL     1      40.563 -14.959   5.899  1.00  0.00     0.154 C 
HETATM    5  O   UNL     1      42.986 -12.417   5.158  1.00  0.00    -0.247 OA
HETATM    6  H   UNL     1      44.301 -14.222   5.857  1.00  0.00     0.170 HD
ENDROOT
BRANCH   1   7
HETATM    7  C   UNL     1      43.466 -15.881   4.972  1.00  0.00     0.042 A 
HETATM    8  C   UNL     1      43.729 -16.960   5.842  1.00  0.00    -0.033 A 
HETATM    9  C   UNL     1      43.908 -16.761   7.324  1.00  0.00     0.050 C 
HETATM   10  C   UNL     1      43.830 -18.260   5.317  1.00  0.00     0.045 A 
HETATM   11  C   UNL     1      43.649 -18.487   3.953  1.00  0.00     0.075 A 
HETATM   12  C   UNL     1      43.427 -17.418   3.091  1.00  0.00     0.039 A 
HETATM   13  C   UNL     1      43.332 -16.121   3.599  1.00  0.00     0.033 A 
BRANCH  11  14
HETATM   14  O   UNL     1      43.772 -19.727   3.393  1.00  0.00    -0.290 OA
BRANCH  14  15
HETATM   15  C   UNL     1      43.373 -19.737   2.028  1.00  0.00     0.505 C 
HETATM   16  F   UNL     1      44.128 -20.637   1.348  1.00  0.00    -0.184 F 
HETATM   17  F   UNL     1      42.095 -20.193   1.985  1.00  0.00    -0.184 F 
ENDBRANCH  14  15
ENDBRANCH  11  14
ENDBRANCH   1   7
BRANCH   3  18
HETATM   18  C   UNL     1      40.286 -12.734   4.854  1.00  0.00     0.132 C 
BRANCH  18  19
HETATM   19  C   UNL     1      39.497 -13.006   3.562  1.00  0.00     0.062 C 
BRANCH  19  20
HETATM   20  C   UNL     1      40.370 -13.438   2.429  1.00  0.00    -0.007 A 
HETATM   21  C   UNL     1      40.454 -14.734   1.842  1.00  0.00     0.059 A 
HETATM   22  C   UNL     1      39.693 -15.958   2.195  1.00  0.00     0.073 C 
HETATM   23  N   UNL     1      41.342 -14.770   0.843  1.00  0.00    -0.179 NA
HETATM   24  N   UNL     1      41.810 -13.517   0.774  1.00  0.00    -0.282 N 
HETATM   25  H   UNL     1      42.503 -13.304   0.065  1.00  0.00     0.189 HD
HETATM   26  C   UNL     1      41.264 -12.674   1.701  1.00  0.00     0.032 A 
HETATM   27  C   UNL     1      41.647 -11.247   1.791  1.00  0.00     0.070 C 
ENDBRANCH  19  20
ENDBRANCH  18  19
ENDBRANCH   3  18
TORSDOF 6
ENDMDL
MODEL 4
REMARK VINA RESULT:      -7.9      3.625      6.530
REMARK  6 active torsions:
REMARK  status: ('A' for Active; 'I' for Inactive)
REMARK    1  A    between atoms: C_3  and  N_4 
REMARK       I    between atoms: N_4  and  C_5 
REMARK       I    between atoms: C_5  and  N_6 
REMARK    2  A    between atoms: N_6  and  C_7 
REMARK    3  A    between atoms: C_7  and  C_8 
REMARK    4  A    between atoms: C_8  and  C_9 
REMARK    5  A    between atoms: C_21  and  O_22 
REMARK    6  A    between atoms: O_22  and  C_23 
ROOT
HETATM    1  N   UNL     1      43.240 -14.142   4.593  1.00  0.00    -0.308 N 
HETATM    2  C   UNL     1      42.247 -13.252   4.317  1.00  0.00     0.322 C 
HETATM    3  N   UNL     1      40.933 -13.613   4.533  1.00  0.00    -0.338 N 
HETATM    4  C   UNL     1      40.518 -14.640   5.485  1.00  0.00     0.154 C 
HETATM    5  O   UNL     1      42.565 -12.116   3.963  1.00  0.00    -0.247 OA
HETATM    6  H   UNL     1      44.127 -13.675   4.739  1.00  0.00     0.170 HD
ENDROOT
BRANCH   1   7
HETATM    7  C   UNL     1      43.333 -15.517   4.284  1.00  0.00     0.042 A 
HETATM    8  C   UNL     1      43.694 -16.420   5.306  1.00  0.00    -0.033 A 
HETATM    9  C   UNL     1      43.931 -15.964   6.722  1.00  0.00     0.050 C 
HETATM   10  C   UNL     1      43.840 -17.784   5.001  1.00  0.00     0.045 A 
HETATM   11  C   UNL     1      43.607 -18.248   3.707  1.00  0.00     0.075 A 
HETATM   12  C   UNL     1      43.288 -17.352   2.692  1.00  0.00     0.039 A 
HETATM   13  C   UNL     1      43.147 -15.993   2.981  1.00  0.00     0.033 A 
BRANCH  11  14
HETATM   14  O   UNL     1      43.770 -19.558   3.356  1.00  0.00    -0.290 OA
BRANCH  14  15
HETATM   15  C   UNL     1      43.448 -19.788   1.990  1.00  0.00     0.505 C 
HETATM   16  F   UNL     1      44.299 -20.714   1.480  1.00  0.00    -0.184 F 
HETATM   17  F   UNL     1      42.208 -20.340   1.956  1.00  0.00    -0.184 F 
ENDBRANCH  14  15
ENDBRANCH  11  14
ENDBRANCH   1   7
BRANCH   3  18
HETATM   18  C   UNL     1      39.891 -12.661   4.140  1.00  0.00     0.132 C 
BRANCH  18  19
HETATM   19  C   UNL     1      39.049 -13.150   2.949  1.00  0.00     0.062 C 
BRANCH  19  20
HETATM   20  C   UNL     1      39.849 -13.304   1.696  1.00  0.00    -0.007 A 
HETATM   21  C   UNL     1      40.436 -12.272   0.909  1.00  0.00     0.059 A 
HETATM   22  C   UNL     1      40.413 -10.806   1.142  1.00  0.00     0.073 C 
HETATM   23  N   UNL     1      41.086 -12.765  -0.151  1.00  0.00    -0.179 NA
HETATM   24  N   UNL     1      40.936 -14.091  -0.040  1.00  0.00    -0.282 N 
HETATM   25  H   UNL     1      41.366 -14.681  -0.745  1.00  0.00     0.189 HD
HETATM   26  C   UNL     1      40.203 -14.473   1.047  1.00  0.00     0.032 A 
HETATM   27  C   UNL     1      39.923 -15.895   1.350  1.00  0.00     0.070 C 
ENDBRANCH  19  20
ENDBRANCH  18  19
ENDBRANCH   3  18
TORSDOF 6
ENDMDL
MODEL 5
REMARK VINA RESULT:      -7.6      3.871      7.516
REMARK  6 active torsions:
REMARK  status: ('A' for Active; 'I' for Inactive)
REMARK    1  A    between atoms: C_3  and  N_4 
REMARK       I    between atoms: N_4  and  C_5 
REMARK       I    between atoms: C_5  and  N_6 
REMARK    2  A    between atoms: N_6  and  C_7 
REMARK    3  A    between atoms: C_7  and  C_8 
REMARK    4  A    between atoms: C_8  and  C_9 
REMARK    5  A    between atoms: C_21  and  O_22 
REMARK    6  A    between atoms: O_22  and  C_23 
ROOT
HETATM    1  N   UNL     1      40.425 -15.111   4.615  1.00  0.00    -0.308 N 
HETATM    2  C   UNL     1      40.592 -13.983   5.361  1.00  0.00     0.322 C 
HETATM    3  N   UNL     1      41.601 -13.099   5.039  1.00  0.00    -0.338 N 
HETATM    4  C   UNL     1      42.182 -12.980   3.705  1.00  0.00     0.154 C 
HETATM    5  O   UNL     1      39.773 -13.748   6.251  1.00  0.00    -0.247 OA
HETATM    6  H   UNL     1      39.486 -15.479   4.704  1.00  0.00     0.170 HD
ENDROOT
BRANCH   1   7
HETATM    7  C   UNL     1      41.386 -16.031   4.142  1.00  0.00     0.042 A 
HETATM    8  C   UNL     1      41.336 -16.430   2.790  1.00  0.00    -0.033 A 
HETATM    9  C   UNL     1      40.323 -15.863   1.830  1.00  0.00     0.050 C 
HETATM   10  C   UNL     1      42.254 -17.385   2.319  1.00  0.00     0.045 A 
HETATM   11  C   UNL     1      43.222 -17.916   3.171  1.00  0.00     0.075 A 
HETATM   12  C   UNL     1      43.245 -17.550   4.513  1.00  0.00     0.039 A 
HETATM   13  C   UNL     1      42.334 -16.608   4.995  1.00  0.00     0.033 A 
BRANCH  11  14
HETATM   14  O   UNL     1      44.111 -18.870   2.767  1.00  0.00    -0.290 OA
BRANCH  14  15
HETATM   15  C   UNL     1      43.471 -20.104   2.469  1.00  0.00     0.505 C 
HETATM   16  F   UNL     1      43.836 -20.509   1.227  1.00  0.00    -0.184 F 
HETATM   17  F   UNL     1      43.956 -21.030   3.336  1.00  0.00    -0.184 F 
ENDBRANCH  14  15
ENDBRANCH  11  14
ENDBRANCH   1   7
BRANCH   3  18
HETATM   18  C   UNL     1      41.803 -11.945   5.920  1.00  0.00     0.132 C 
BRANCH  18  19
HETATM   19  C   UNL     1      41.535 -10.602   5.220  1.00  0.00     0.062 C 
BRANCH  19  20
HETATM   20  C   UNL     1      40.113 -10.158   5.340  1.00  0.00    -0.007 A 
HETATM   21  C   UNL     1      39.532  -9.375   6.379  1.00  0.00     0.059 A 
HETATM   22  C   UNL     1      40.190  -8.796   7.576  1.00  0.00     0.073 C 
HETATM   23  N   UNL     1      38.229  -9.162   6.170  1.00  0.00    -0.179 NA
HETATM   24  N   UNL     1      37.975  -9.782   5.011  1.00  0.00    -0.282 N 
HETATM   25  H   UNL     1      37.030  -9.743   4.645  1.00  0.00     0.189 HD
HETATM   26  C   UNL     1      39.067 -10.398   4.467  1.00  0.00     0.032 A 
HETATM   27  C   UNL     1      38.998 -11.139   3.187  1.00  0.00     0.070 C 
ENDBRANCH  19  20
ENDBRANCH  18  19
ENDBRANCH   3  18
TORSDOF 6
ENDMDL
MODEL 6
REMARK VINA RESULT:      -7.5      4.263      7.227
REMARK  6 active torsions:
REMARK  status: ('A' for Active; 'I' for Inactive)
REMARK    1  A    between atoms: C_3  and  N_4 
REMARK       I    between atoms: N_4  and  C_5 
REMARK       I    between atoms: C_5  and  N_6 
REMARK    2  A    between atoms: N_6  and  C_7 
REMARK    3  A    between atoms: C_7  and  C_8 
REMARK    4  A    between atoms: C_8  and  C_9 
REMARK    5  A    between atoms: C_21  and  O_22 
REMARK    6  A    between atoms: O_22  and  C_23 
ROOT
HETATM    1  N   UNL     1      42.554 -13.099   3.254  1.00  0.00    -0.308 N 
HETATM    2  C   UNL     1      42.172 -12.058   2.463  1.00  0.00     0.322 C 
HETATM    3  N   UNL     1      40.998 -12.146   1.744  1.00  0.00    -0.338 N 
HETATM    4  C   UNL     1      39.879 -13.007   2.116  1.00  0.00     0.154 C 
HETATM    5  O   UNL     1      42.850 -11.029   2.488  1.00  0.00    -0.247 OA
HETATM    6  H   UNL     1      43.197 -12.800   3.977  1.00  0.00     0.170 HD
ENDROOT
BRANCH   1   7
HETATM    7  C   UNL     1      42.564 -14.484   2.980  1.00  0.00     0.042 A 
HETATM    8  C   UNL     1      41.918 -15.359   3.879  1.00  0.00    -0.033 A 
HETATM    9  C   UNL     1      41.178 -14.852   5.089  1.00  0.00     0.050 C 
HETATM   10  C   UNL     1      41.964 -16.745   3.646  1.00  0.00     0.045 A 
HETATM   11  C   UNL     1      42.621 -17.251   2.525  1.00  0.00     0.075 A 
HETATM   12  C   UNL     1      43.289 -16.390   1.660  1.00  0.00     0.039 A 
HETATM   13  C   UNL     1      43.256 -15.013   1.884  1.00  0.00     0.033 A 
BRANCH  11  14
HETATM   14  O   UNL     1      42.721 -18.590   2.276  1.00  0.00    -0.290 OA
BRANCH  14  15
HETATM   15  C   UNL     1      44.020 -19.091   2.568  1.00  0.00     0.505 C 
HETATM   16  F   UNL     1      44.199 -19.112   3.912  1.00  0.00    -0.184 F 
HETATM   17  F   UNL     1      44.057 -20.382   2.151  1.00  0.00    -0.184 F 
ENDBRANCH  14  15
ENDBRANCH  11  14
ENDBRANCH   1   7
BRANCH   3  18
HETATM   18  C   UNL     1      40.669 -11.042   0.838  1.00  0.00     0.132 C 
BRANCH  18  19
HETATM   19  C   UNL     1      39.597 -11.416  -0.200  1.00  0.00     0.062 C 
BRANCH  19  20
HETATM   20  C   UNL     1      40.178 -11.961  -1.464  1.00  0.00    -0.007 A 
HETATM   21  C   UNL     1      40.173 -13.314  -1.910  1.00  0.00     0.059 A 
HETATM   22  C   UNL     1      39.581 -14.503  -1.247  1.00  0.00     0.073 C 
HETATM   23  N   UNL     1      40.784 -13.450  -3.092  1.00  0.00    -0.179 NA
HETATM   24  N   UNL     1      41.162 -12.205  -3.411  1.00  0.00    -0.282 N 
HETATM   25  H   UNL     1      41.646 -12.064  -4.292  1.00  0.00     0.189 HD
HETATM   26  C   UNL     1      40.827 -11.271  -2.472  1.00  0.00     0.032 A 
HETATM   27  C   UNL     1      41.154  -9.836  -2.636  1.00  0.00     0.070 C 
ENDBRANCH  19  20
ENDBRANCH  18  19
ENDBRANCH   3  18
TORSDOF 6
ENDMDL
MODEL 7
REMARK VINA RESULT:      -7.5      4.247      5.610
REMARK  6 active torsions:
REMARK  status: ('A' for Active; 'I' for Inactive)
REMARK    1  A    between atoms: C_3  and  N_4 
REMARK       I    between atoms: N_4  and  C_5 
REMARK       I    between atoms: C_5  and  N_6 
REMARK    2  A    between atoms: N_6  and  C_7 
REMARK    3  A    between atoms: C_7  and  C_8 
REMARK    4  A    between atoms: C_8  and  C_9 
REMARK    5  A    between atoms: C_21  and  O_22 
REMARK    6  A    between atoms: O_22  and  C_23 
ROOT
HETATM    1  N   UNL     1      41.002 -13.255   2.831  1.00  0.00    -0.308 N 
HETATM    2  C   UNL     1      41.190 -14.475   2.255  1.00  0.00     0.322 C 
HETATM    3  N   UNL     1      41.490 -15.562   3.049  1.00  0.00    -0.338 N 
HETATM    4  C   UNL     1      41.139 -15.658   4.463  1.00  0.00     0.154 C 
HETATM    5  O   UNL     1      40.996 -14.581   1.042  1.00  0.00    -0.247 OA
HETATM    6  H   UNL     1      40.457 -12.643   2.236  1.00  0.00     0.170 HD
ENDROOT
BRANCH   1   7
HETATM    7  C   UNL     1      41.760 -12.601   3.828  1.00  0.00     0.042 A 
HETATM    8  C   UNL     1      41.096 -12.107   4.970  1.00  0.00    -0.033 A 
HETATM    9  C   UNL     1      39.617 -12.305   5.179  1.00  0.00     0.050 C 
HETATM   10  C   UNL     1      41.829 -11.409   5.946  1.00  0.00     0.045 A 
HETATM   11  C   UNL     1      43.204 -11.226   5.800  1.00  0.00     0.075 A 
HETATM   12  C   UNL     1      43.850 -11.680   4.655  1.00  0.00     0.039 A 
HETATM   13  C   UNL     1      43.132 -12.368   3.675  1.00  0.00     0.033 A 
BRANCH  11  14
HETATM   14  O   UNL     1      43.951 -10.525   6.703  1.00  0.00    -0.290 OA
BRANCH  14  15
HETATM   15  C   UNL     1      44.334 -11.326   7.814  1.00  0.00     0.505 C 
HETATM   16  F   UNL     1      44.228 -12.636   7.478  1.00  0.00    -0.184 F 
HETATM   17  F   UNL     1      45.651 -11.091   8.046  1.00  0.00    -0.184 F 
ENDBRANCH  14  15
ENDBRANCH  11  14
ENDBRANCH   1   7
BRANCH   3  18
HETATM   18  C   UNL     1      41.772 -16.836   2.382  1.00  0.00     0.132 C 
BRANCH  18  19
HETATM   19  C   UNL     1      43.275 -17.161   2.319  1.00  0.00     0.062 C 
BRANCH  19  20
HETATM   20  C   UNL     1      43.670 -18.262   3.250  1.00  0.00    -0.007 A 
HETATM   21  C   UNL     1      43.681 -19.661   2.984  1.00  0.00     0.059 A 
HETATM   22  C   UNL     1      43.324 -20.366   1.728  1.00  0.00     0.073 C 
HETATM   23  N   UNL     1      44.092 -20.364   4.045  1.00  0.00    -0.179 NA
HETATM   24  N   UNL     1      44.357 -19.435   4.972  1.00  0.00    -0.282 N 
HETATM   25  H   UNL     1      44.700 -19.746   5.875  1.00  0.00     0.189 HD
HETATM   26  C   UNL     1      44.122 -18.156   4.553  1.00  0.00     0.032 A 
HETATM   27  C   UNL     1      44.353 -16.984   5.427  1.00  0.00     0.070 C 
ENDBRANCH  19  20
ENDBRANCH  18  19
ENDBRANCH   3  18
TORSDOF 6
ENDMDL
MODEL 8
REMARK VINA RESULT:      -7.4      3.956      7.330
REMARK  6 active torsions:
REMARK  status: ('A' for Active; 'I' for Inactive)
REMARK    1  A    between atoms: C_3  and  N_4 
REMARK       I    between atoms: N_4  and  C_5 
REMARK       I    between atoms: C_5  and  N_6 
REMARK    2  A    between atoms: N_6  and  C_7 
REMARK    3  A    between atoms: C_7  and  C_8 
REMARK    4  A    between atoms: C_8  and  C_9 
REMARK    5  A    between atoms: C_21  and  O_22 
REMARK    6  A    between atoms: O_22  and  C_23 
ROOT
HETATM    1  N   UNL     1      43.204 -13.592   3.619  1.00  0.00    -0.308 N 
HETATM    2  C   UNL     1      42.693 -12.470   3.040  1.00  0.00     0.322 C 
HETATM    3  N   UNL     1      41.364 -12.444   2.669  1.00  0.00    -0.338 N 
HETATM    4  C   UNL     1      40.333 -13.281   3.276  1.00  0.00     0.154 C 
HETATM    5  O   UNL     1      43.420 -11.480   2.946  1.00  0.00    -0.247 OA
HETATM    6  H   UNL     1      44.039 -13.385   4.155  1.00  0.00     0.170 HD
ENDROOT
BRANCH   1   7
HETATM    7  C   UNL     1      43.046 -14.948   3.258  1.00  0.00     0.042 A 
HETATM    8  C   UNL     1      42.804 -15.897   4.273  1.00  0.00    -0.033 A 
HETATM    9  C   UNL     1      42.659 -15.497   5.718  1.00  0.00     0.050 C 
HETATM   10  C   UNL     1      42.696 -17.257   3.934  1.00  0.00     0.045 A 
HETATM   11  C   UNL     1      42.802 -17.664   2.604  1.00  0.00     0.075 A 
HETATM   12  C   UNL     1      43.078 -16.732   1.610  1.00  0.00     0.039 A 
HETATM   13  C   UNL     1      43.195 -15.379   1.935  1.00  0.00     0.033 A 
BRANCH  11  14
HETATM   14  O   UNL     1      42.738 -18.976   2.231  1.00  0.00    -0.290 OA
BRANCH  14  15
HETATM   15  C   UNL     1      43.900 -19.698   2.618  1.00  0.00     0.505 C 
HETATM   16  F   UNL     1      43.574 -20.581   3.596  1.00  0.00    -0.184 F 
HETATM   17  F   UNL     1      44.294 -20.433   1.547  1.00  0.00    -0.184 F 
ENDBRANCH  14  15
ENDBRANCH  11  14
ENDBRANCH   1   7
BRANCH   3  18
HETATM   18  C   UNL     1      40.876 -11.252   1.968  1.00  0.00     0.132 C 
BRANCH  18  19
HETATM   19  C   UNL     1      41.020 -11.354   0.440  1.00  0.00     0.062 C 
BRANCH  19  20
HETATM   20  C   UNL     1      39.796 -11.895  -0.224  1.00  0.00    -0.007 A 
HETATM   21  C   UNL     1      38.697 -11.158  -0.752  1.00  0.00     0.059 A 
HETATM   22  C   UNL     1      38.504  -9.687  -0.789  1.00  0.00     0.073 C 
HETATM   23  N   UNL     1      37.767 -11.963  -1.279  1.00  0.00    -0.179 NA
HETATM   24  N   UNL     1      38.264 -13.195  -1.109  1.00  0.00    -0.282 N 
HETATM   25  H   UNL     1      37.720 -13.980  -1.450  1.00  0.00     0.189 HD
HETATM   26  C   UNL     1      39.478 -13.217  -0.481  1.00  0.00     0.032 A 
HETATM   27  C   UNL     1      40.197 -14.479  -0.199  1.00  0.00     0.070 C 
ENDBRANCH  19  20
ENDBRANCH  18  19
ENDBRANCH   3  18
TORSDOF 6
ENDMDL
MODEL 9
REMARK VINA RESULT:      -7.4      5.451      7.150
REMARK  6 active torsions:
REMARK  status: ('A' for Active; 'I' for Inactive)
REMARK    1  A    between atoms: C_3  and  N_4 
REMARK       I    between atoms: N_4  and  C_5 
REMARK       I    between atoms: C_5  and  N_6 
REMARK    2  A    between atoms: N_6  and  C_7 
REMARK    3  A    between atoms: C_7  and  C_8 
REMARK    4  A    between atoms: C_8  and  C_9 
REMARK    5  A    between atoms: C_21  and  O_22 
REMARK    6  A    between atoms: O_22  and  C_23 
ROOT
HETATM    1  N   UNL     1      42.324 -11.627   4.179  1.00  0.00    -0.308 N 
HETATM    2  C   UNL     1      41.807 -12.747   3.600  1.00  0.00     0.322 C 
HETATM    3  N   UNL     1      41.102 -13.647   4.373  1.00  0.00    -0.338 N 
HETATM    4  C   UNL     1      40.425 -13.294   5.617  1.00  0.00     0.154 C 
HETATM    5  O   UNL     1      41.912 -12.872   2.379  1.00  0.00    -0.247 OA
HETATM    6  H   UNL     1      42.492 -10.899   3.495  1.00  0.00     0.170 HD
ENDROOT
BRANCH   1   7
HETATM    7  C   UNL     1      43.033 -11.483   5.391  1.00  0.00     0.042 A 
HETATM    8  C   UNL     1      42.683 -10.429   6.262  1.00  0.00    -0.033 A 
HETATM    9  C   UNL     1      41.544  -9.491   5.957  1.00  0.00     0.050 C 
HETATM   10  C   UNL     1      43.414 -10.243   7.448  1.00  0.00     0.045 A 
HETATM   11  C   UNL     1      44.460 -11.105   7.776  1.00  0.00     0.075 A 
HETATM   12  C   UNL     1      44.829 -12.119   6.899  1.00  0.00     0.039 A 
HETATM   13  C   UNL     1      44.115 -12.311   5.714  1.00  0.00     0.033 A 
BRANCH  11  14
HETATM   14  O   UNL     1      45.220 -10.942   8.899  1.00  0.00    -0.290 OA
BRANCH  14  15
HETATM   15  C   UNL     1      45.394  -9.570   9.231  1.00  0.00     0.505 C 
HETATM   16  F   UNL     1      45.758  -9.468  10.534  1.00  0.00    -0.184 F 
HETATM   17  F   UNL     1      46.440  -9.108   8.499  1.00  0.00    -0.184 F 
ENDBRANCH  14  15
ENDBRANCH  11  14
ENDBRANCH   1   7
BRANCH   3  18
HETATM   18  C   UNL     1      40.639 -14.880   3.731  1.00  0.00     0.132 C 
BRANCH  18  19
HETATM   19  C   UNL     1      40.765 -16.114   4.641  1.00  0.00     0.062 C 
BRANCH  19  20
HETATM   20  C   UNL     1      42.185 -16.518   4.877  1.00  0.00    -0.007 A 
HETATM   21  C   UNL     1      42.943 -16.366   6.074  1.00  0.00     0.059 A 
HETATM   22  C   UNL     1      42.513 -15.791   7.373  1.00  0.00     0.073 C 
HETATM   23  N   UNL     1      44.186 -16.838   5.937  1.00  0.00    -0.179 NA
HETATM   24  N   UNL     1      44.225 -17.302   4.681  1.00  0.00    -0.282 N 
HETATM   25  H   UNL     1      45.088 -17.725   4.354  1.00  0.00     0.189 HD
HETATM   26  C   UNL     1      43.054 -17.137   3.997  1.00  0.00     0.032 A 
HETATM   27  C   UNL     1      42.890 -17.583   2.595  1.00  0.00     0.070 C 
ENDBRANCH  19  20
ENDBRANCH  18  19
ENDBRANCH   3  18
TORSDOF 6
ENDMDL
MODEL 10
REMARK VINA RESULT:      -7.2      5.802      7.465
REMARK  6 active torsions:
REMARK  status: ('A' for Active; 'I' for Inactive)
REMARK    1  A    between atoms: C_3  and  N_4 
REMARK       I    between atoms: N_4  and  C_5 
REMARK       I    between atoms: C_5  and  N_6 
REMARK    2  A    between atoms: N_6  and  C_7 
REMARK    3  A    between atoms: C_7  and  C_8 
REMARK    4  A    between atoms: C_8  and  C_9 
REMARK    5  A    between atoms: C_21  and  O_22 
REMARK    6  A    between atoms: O_22  and  C_23 
ROOT
HETATM    1  N   UNL     1      42.757 -11.218   4.528  1.00  0.00    -0.308 N 
HETATM    2  C   UNL     1      42.554 -12.325   3.761  1.00  0.00     0.322 C 
HETATM    3  N   UNL     1      42.058 -13.473   4.343  1.00  0.00    -0.338 N 
HETATM    4  C   UNL     1      41.262 -13.486   5.567  1.00  0.00     0.154 C 
HETATM    5  O   UNL     1      42.739 -12.233   2.546  1.00  0.00    -0.247 OA
HETATM    6  H   UNL     1      42.771 -10.375   3.968  1.00  0.00     0.170 HD
ENDROOT
BRANCH   1   7
HETATM    7  C   UNL     1      43.357 -11.100   5.801  1.00  0.00     0.042 A 
HETATM    8  C   UNL     1      42.688 -10.362   6.801  1.00  0.00    -0.033 A 
HETATM    9  C   UNL     1      41.335  -9.745   6.563  1.00  0.00     0.050 C 
HETATM   10  C   UNL     1      43.297 -10.193   8.057  1.00  0.00     0.045 A 
HETATM   11  C   UNL     1      44.540 -10.769   8.323  1.00  0.00     0.075 A 
HETATM   12  C   UNL     1      45.214 -11.463   7.324  1.00  0.00     0.039 A 
HETATM   13  C   UNL     1      44.623 -11.632   6.071  1.00  0.00     0.033 A 
BRANCH  11  14
HETATM   14  O   UNL     1      45.185 -10.603   9.515  1.00  0.00    -0.290 OA
BRANCH  14  15
HETATM   15  C   UNL     1      44.291 -10.235  10.558  1.00  0.00     0.505 C 
HETATM   16  F   UNL     1      44.389 -11.135  11.569  1.00  0.00    -0.184 F 
HETATM   17  F   UNL     1      44.720  -9.046  11.055  1.00  0.00    -0.184 F 
ENDBRANCH  14  15
ENDBRANCH  11  14
ENDBRANCH   1   7
BRANCH   3  18
HETATM   18  C   UNL     1      41.938 -14.667   3.501  1.00  0.00     0.132 C 
BRANCH  18  19
HETATM   19  C   UNL     1      43.293 -15.336   3.212  1.00  0.00     0.062 C 
BRANCH  19  20
HETATM   20  C   UNL     1      43.535 -16.546   4.055  1.00  0.00    -0.007 A 
HETATM   21  C   UNL     1      43.449 -17.912   3.659  1.00  0.00     0.059 A 
HETATM   22  C   UNL     1      43.120 -18.467   2.323  1.00  0.00     0.073 C 
HETATM   23  N   UNL     1      43.730 -18.740   4.670  1.00  0.00    -0.179 NA
HETATM   24  N   UNL     1      44.008 -17.925   5.696  1.00  0.00    -0.282 N 
HETATM   25  H   UNL     1      44.264 -18.344   6.584  1.00  0.00     0.189 HD
HETATM   26  C   UNL     1      43.906 -16.598   5.387  1.00  0.00     0.032 A 
HETATM   27  C   UNL     1      44.174 -15.533   6.380  1.00  0.00     0.070 C 
ENDBRANCH  19  20
ENDBRANCH  18  19
ENDBRANCH   3  18
TORSDOF 6
ENDMDL
