MODEL 1
REMARK VINA RESULT:     -10.4      0.000      0.000
REMARK  4 active torsions:
REMARK  status: ('A' for Active; 'I' for Inactive)
REMARK    1  A    between atoms: C_5  and  C_6 
REMARK    2  A    between atoms: C_6  and  C_7 
REMARK       I    between atoms: C_7  and  N_8 
REMARK    3  A    between atoms: N_8  and  C_9 
REMARK    4  A    between atoms: C_16  and  C_17 
REMARK       I    between atoms: C_17  and  N_18 
ROOT
HETATM    1  C   UNL     1      40.933 -13.939   0.495  1.00  0.00     0.035 A 
HETATM    2  C   UNL     1      40.232 -14.437  -0.612  1.00  0.00     0.046 A 
HETATM    3  C   UNL     1      39.149 -13.701  -1.142  1.00  0.00     0.030 A 
HETATM    4  C   UNL     1      38.793 -12.503  -0.535  1.00  0.00     0.063 A 
HETATM    5  N   UNL     1      37.728 -12.035  -1.253  1.00  0.00    -0.277 N 
HETATM    6  H   UNL     1      37.207 -11.182  -1.091  1.00  0.00     0.189 HD
HETATM    7  N   UNL     1      37.368 -12.813  -2.287  1.00  0.00    -0.168 NA
HETATM    8  C   UNL     1      38.240 -13.846  -2.232  1.00  0.00     0.156 A 
HETATM    9  C   UNL     1      39.463 -11.980   0.572  1.00  0.00     0.034 A 
HETATM   10  C   UNL     1      40.545 -12.719   1.066  1.00  0.00     0.032 A 
ENDROOT
BRANCH   1  11
HETATM   11  N   UNL     1      42.044 -14.585   1.076  1.00  0.00    -0.327 N 
HETATM   12  C   UNL     1      42.065 -15.803   1.734  1.00  0.00     0.226 C 
HETATM   13  O   UNL     1      41.092 -16.497   2.013  1.00  0.00    -0.273 OA
HETATM   14  H   UNL     1      42.933 -14.111   0.980  1.00  0.00     0.169 HD
BRANCH  12  15
HETATM   15  C   UNL     1      43.459 -16.222   2.187  1.00  0.00     0.142 C 
BRANCH  15  16
HETATM   16  C   UNL     1      43.508 -16.817   3.582  1.00  0.00    -0.038 A 
HETATM   17  C   UNL     1      43.649 -18.217   3.804  1.00  0.00    -0.019 A 
HETATM   18  C   UNL     1      43.702 -18.692   5.140  1.00  0.00    -0.025 A 
HETATM   19  C   UNL     1      43.736 -19.176   2.769  1.00  0.00     0.013 A 
HETATM   20  C   UNL     1      43.843 -20.067   5.395  1.00  0.00     0.012 A 
HETATM   21  C   UNL     1      43.611 -17.788   6.209  1.00  0.00     0.012 A 
HETATM   22  C   UNL     1      43.931 -20.986   4.350  1.00  0.00     0.001 A 
HETATM   23  C   UNL     1      43.877 -20.540   3.037  1.00  0.00     0.001 A 
HETATM   24  C   UNL     1      43.463 -16.423   5.981  1.00  0.00     0.001 A 
HETATM   25  C   UNL     1      43.410 -15.940   4.678  1.00  0.00     0.008 A 
ENDBRANCH  15  16
ENDBRANCH  12  15
ENDBRANCH   1  11
BRANCH   8  26
HETATM   26  C   UNL     1      38.193 -14.932  -3.223  1.00  0.00     0.270 C 
HETATM   27  N   UNL     1      38.190 -16.186  -2.675  1.00  0.00    -0.365 N 
HETATM   28  H   UNL     1      38.204 -16.274  -1.665  1.00  0.00     0.159 HD
HETATM   29  H   UNL     1      38.136 -16.992  -3.276  1.00  0.00     0.159 HD
HETATM   30  O   UNL     1      38.151 -14.772  -4.437  1.00  0.00    -0.266 OA
ENDBRANCH   8  26
TORSDOF 4
ENDMDL
MODEL 2
REMARK VINA RESULT:      -9.5      1.212      2.402
REMARK  4 active torsions:
REMARK  status: ('A' for Active; 'I' for Inactive)
REMARK    1  A    between atoms: C_5  and  C_6 
REMARK    2  A    between atoms: C_6  and  C_7 
REMARK       I    between atoms: C_7  and  N_8 
REMARK    3  A    between atoms: N_8  and  C_9 
REMARK    4  A    between atoms: C_16  and  C_17 
REMARK       I    between atoms: C_17  and  N_18 
ROOT
HETATM    1  C   UNL     1      40.485 -12.973   0.227  1.00  0.00     0.035 A 
HETATM    2  C   UNL     1      39.917 -13.725  -0.809  1.00  0.00     0.046 A 
HETATM    3  C   UNL     1      38.793 -13.222  -1.502  1.00  0.00     0.030 A 
HETATM    4  C   UNL     1      38.266 -11.995  -1.122  1.00  0.00     0.063 A 
HETATM    5  N   UNL     1      37.203 -11.783  -1.954  1.00  0.00    -0.277 N 
HETATM    6  H   UNL     1      36.579 -10.985  -1.961  1.00  0.00     0.189 HD
HETATM    7  N   UNL     1      37.000 -12.756  -2.858  1.00  0.00    -0.168 NA
HETATM    8  C   UNL     1      37.977 -13.652  -2.592  1.00  0.00     0.156 A 
HETATM    9  C   UNL     1      38.801 -11.221  -0.090  1.00  0.00     0.034 A 
HETATM   10  C   UNL     1      39.926 -11.733   0.568  1.00  0.00     0.032 A 
ENDROOT
BRANCH   1  11
HETATM   11  N   UNL     1      41.624 -13.376   0.958  1.00  0.00    -0.327 N 
HETATM   12  C   UNL     1      41.658 -14.035   2.174  1.00  0.00     0.226 C 
HETATM   13  O   UNL     1      40.694 -14.303   2.885  1.00  0.00    -0.273 OA
HETATM   14  H   UNL     1      42.518 -13.178   0.528  1.00  0.00     0.169 HD
BRANCH  12  15
HETATM   15  C   UNL     1      43.069 -14.364   2.644  1.00  0.00     0.142 C 
BRANCH  15  16
HETATM   16  C   UNL     1      43.263 -15.806   3.075  1.00  0.00    -0.038 A 
HETATM   17  C   UNL     1      43.384 -16.178   4.446  1.00  0.00    -0.019 A 
HETATM   18  C   UNL     1      43.547 -17.550   4.766  1.00  0.00    -0.025 A 
HETATM   19  C   UNL     1      43.356 -15.258   5.518  1.00  0.00     0.013 A 
HETATM   20  C   UNL     1      43.667 -17.951   6.108  1.00  0.00     0.012 A 
HETATM   21  C   UNL     1      43.591 -18.508   3.743  1.00  0.00     0.012 A 
HETATM   22  C   UNL     1      43.631 -17.018   7.143  1.00  0.00     0.001 A 
HETATM   23  C   UNL     1      43.475 -15.671   6.848  1.00  0.00     0.001 A 
HETATM   24  C   UNL     1      43.483 -18.134   2.407  1.00  0.00     0.001 A 
HETATM   25  C   UNL     1      43.321 -16.794   2.075  1.00  0.00     0.008 A 
ENDBRANCH  15  16
ENDBRANCH  12  15
ENDBRANCH   1  11
BRANCH   8  26
HETATM   26  C   UNL     1      38.117 -14.881  -3.387  1.00  0.00     0.270 C 
HETATM   27  N   UNL     1      38.264 -16.017  -2.637  1.00  0.00    -0.365 N 
HETATM   28  H   UNL     1      38.251 -15.935  -1.627  1.00  0.00     0.159 HD
HETATM   29  H   UNL     1      38.343 -16.910  -3.095  1.00  0.00     0.159 HD
HETATM   30  O   UNL     1      38.100 -14.930  -4.612  1.00  0.00    -0.266 OA
ENDBRANCH   8  26
TORSDOF 4
ENDMDL
MODEL 3
REMARK VINA RESULT:      -9.4      1.920      3.219
REMARK  4 active torsions:
REMARK  status: ('A' for Active; 'I' for Inactive)
REMARK    1  A    between atoms: C_5  and  C_6 
REMARK    2  A    between atoms: C_6  and  C_7 
REMARK       I    between atoms: C_7  and  N_8 
REMARK    3  A    between atoms: N_8  and  C_9 
REMARK    4  A    between atoms: C_16  and  C_17 
REMARK       I    between atoms: C_17  and  N_18 
ROOT
HETATM    1  C   UNL     1      40.617 -13.749   0.311  1.00  0.00     0.035 A 
HETATM    2  C   UNL     1      40.051 -12.757   1.123  1.00  0.00     0.046 A 
HETATM    3  C   UNL     1      38.930 -12.032   0.663  1.00  0.00     0.030 A 
HETATM    4  C   UNL     1      38.425 -12.312  -0.601  1.00  0.00     0.063 A 
HETATM    5  N   UNL     1      37.367 -11.462  -0.765  1.00  0.00    -0.277 N 
HETATM    6  H   UNL     1      36.762 -11.385  -1.574  1.00  0.00     0.189 HD
HETATM    7  N   UNL     1      37.124 -10.665   0.288  1.00  0.00    -0.168 NA
HETATM    8  C   UNL     1      38.081 -11.007   1.180  1.00  0.00     0.156 A 
HETATM    9  C   UNL     1      38.966 -13.287  -1.441  1.00  0.00     0.034 A 
HETATM   10  C   UNL     1      40.065 -14.004  -0.953  1.00  0.00     0.032 A 
ENDROOT
BRANCH   1  11
HETATM   11  N   UNL     1      41.718 -14.545   0.694  1.00  0.00    -0.327 N 
HETATM   12  C   UNL     1      41.705 -15.679   1.487  1.00  0.00     0.226 C 
HETATM   13  O   UNL     1      40.736 -16.141   2.081  1.00  0.00    -0.273 OA
HETATM   14  H   UNL     1      42.617 -14.263   0.326  1.00  0.00     0.169 HD
BRANCH  12  15
HETATM   15  C   UNL     1      43.079 -16.319   1.648  1.00  0.00     0.142 C 
BRANCH  15  16
HETATM   16  C   UNL     1      43.363 -16.840   3.044  1.00  0.00    -0.038 A 
HETATM   17  C   UNL     1      43.553 -18.227   3.312  1.00  0.00    -0.019 A 
HETATM   18  C   UNL     1      43.831 -18.632   4.643  1.00  0.00    -0.025 A 
HETATM   19  C   UNL     1      43.478 -19.238   2.326  1.00  0.00     0.013 A 
HETATM   20  C   UNL     1      44.025 -19.992   4.940  1.00  0.00     0.012 A 
HETATM   21  C   UNL     1      43.908 -17.674   5.664  1.00  0.00     0.012 A 
HETATM   22  C   UNL     1      43.949 -20.963   3.944  1.00  0.00     0.001 A 
HETATM   23  C   UNL     1      43.676 -20.587   2.637  1.00  0.00     0.001 A 
HETATM   24  C   UNL     1      43.710 -16.323   5.394  1.00  0.00     0.001 A 
HETATM   25  C   UNL     1      43.439 -15.909   4.096  1.00  0.00     0.008 A 
ENDBRANCH  15  16
ENDBRANCH  12  15
ENDBRANCH   1  11
BRANCH   8  26
HETATM   26  C   UNL     1      38.154 -10.363   2.500  1.00  0.00     0.270 C 
HETATM   27  N   UNL     1      37.457  -9.189   2.587  1.00  0.00    -0.365 N 
HETATM   28  H   UNL     1      36.947  -8.867   1.772  1.00  0.00     0.159 HD
HETATM   29  H   UNL     1      37.430  -8.689   3.460  1.00  0.00     0.159 HD
HETATM   30  O   UNL     1      38.767 -10.808   3.464  1.00  0.00    -0.266 OA
ENDBRANCH   8  26
TORSDOF 4
ENDMDL
MODEL 4
REMARK VINA RESULT:      -9.3      5.602      7.919
REMARK  4 active torsions:
REMARK  status: ('A' for Active; 'I' for Inactive)
REMARK    1  A    between atoms: C_5  and  C_6 
REMARK    2  A    between atoms: C_6  and  C_7 
REMARK       I    between atoms: C_7  and  N_8 
REMARK    3  A    between atoms: N_8  and  C_9 
REMARK    4  A    between atoms: C_16  and  C_17 
REMARK       I    between atoms: C_17  and  N_18 
ROOT
HETATM    1  C   UNL     1      43.233 -12.759   6.390  1.00  0.00     0.035 A 
HETATM    2  C   UNL     1      43.927 -11.754   7.076  1.00  0.00     0.046 A 
HETATM    3  C   UNL     1      43.326 -10.489   7.260  1.00  0.00     0.030 A 
HETATM    4  C   UNL     1      42.059 -10.267   6.735  1.00  0.00     0.063 A 
HETATM    5  N   UNL     1      41.751  -8.976   7.062  1.00  0.00    -0.277 N 
HETATM    6  H   UNL     1      40.902  -8.472   6.836  1.00  0.00     0.189 HD
HETATM    7  N   UNL     1      42.699  -8.340   7.770  1.00  0.00    -0.168 NA
HETATM    8  C   UNL     1      43.678  -9.264   7.903  1.00  0.00     0.156 A 
HETATM    9  C   UNL     1      41.340 -11.242   6.040  1.00  0.00     0.034 A 
HETATM   10  C   UNL     1      41.951 -12.492   5.888  1.00  0.00     0.032 A 
ENDROOT
BRANCH   1  11
HETATM   11  N   UNL     1      43.736 -14.060   6.182  1.00  0.00    -0.327 N 
HETATM   12  C   UNL     1      43.158 -15.260   6.558  1.00  0.00     0.226 C 
HETATM   13  O   UNL     1      42.142 -15.399   7.232  1.00  0.00    -0.273 OA
HETATM   14  H   UNL     1      44.612 -14.121   5.678  1.00  0.00     0.169 HD
BRANCH  12  15
HETATM   15  C   UNL     1      43.958 -16.480   6.119  1.00  0.00     0.142 C 
BRANCH  15  16
HETATM   16  C   UNL     1      43.681 -16.927   4.696  1.00  0.00    -0.038 A 
HETATM   17  C   UNL     1      43.754 -18.295   4.302  1.00  0.00    -0.019 A 
HETATM   18  C   UNL     1      43.466 -18.632   2.955  1.00  0.00    -0.025 A 
HETATM   19  C   UNL     1      44.103 -19.350   5.177  1.00  0.00     0.013 A 
HETATM   20  C   UNL     1      43.526 -19.972   2.535  1.00  0.00     0.012 A 
HETATM   21  C   UNL     1      43.123 -17.627   2.039  1.00  0.00     0.012 A 
HETATM   22  C   UNL     1      43.869 -20.989   3.424  1.00  0.00     0.001 A 
HETATM   23  C   UNL     1      44.157 -20.678   4.745  1.00  0.00     0.001 A 
HETATM   24  C   UNL     1      43.066 -16.292   2.431  1.00  0.00     0.001 A 
HETATM   25  C   UNL     1      43.343 -15.944   3.747  1.00  0.00     0.008 A 
ENDBRANCH  15  16
ENDBRANCH  12  15
ENDBRANCH   1  11
BRANCH   8  26
HETATM   26  C   UNL     1      44.911  -8.962   8.645  1.00  0.00     0.270 C 
HETATM   27  N   UNL     1      45.056  -9.683   9.800  1.00  0.00    -0.365 N 
HETATM   28  H   UNL     1      44.340 -10.358  10.043  1.00  0.00     0.159 HD
HETATM   29  H   UNL     1      45.881  -9.560  10.363  1.00  0.00     0.159 HD
HETATM   30  O   UNL     1      45.761  -8.152   8.294  1.00  0.00    -0.266 OA
ENDBRANCH   8  26
TORSDOF 4
ENDMDL
MODEL 5
REMARK VINA RESULT:      -9.3      3.442      5.058
REMARK  4 active torsions:
REMARK  status: ('A' for Active; 'I' for Inactive)
REMARK    1  A    between atoms: C_5  and  C_6 
REMARK    2  A    between atoms: C_6  and  C_7 
REMARK       I    between atoms: C_7  and  N_8 
REMARK    3  A    between atoms: N_8  and  C_9 
REMARK    4  A    between atoms: C_16  and  C_17 
REMARK       I    between atoms: C_17  and  N_18 
ROOT
HETATM    1  C   UNL     1      40.294 -13.260   2.719  1.00  0.00     0.035 A 
HETATM    2  C   UNL     1      40.168 -12.718   4.005  1.00  0.00     0.046 A 
HETATM    3  C   UNL     1      39.391 -11.555   4.199  1.00  0.00     0.030 A 
HETATM    4  C   UNL     1      38.783 -10.963   3.099  1.00  0.00     0.063 A 
HETATM    5  N   UNL     1      38.120  -9.875   3.592  1.00  0.00    -0.277 N 
HETATM    6  H   UNL     1      37.568  -9.205   3.069  1.00  0.00     0.189 HD
HETATM    7  N   UNL     1      38.226  -9.713   4.921  1.00  0.00    -0.168 NA
HETATM    8  C   UNL     1      39.007 -10.746   5.311  1.00  0.00     0.156 A 
HETATM    9  C   UNL     1      38.893 -11.471   1.803  1.00  0.00     0.034 A 
HETATM   10  C   UNL     1      39.653 -12.636   1.640  1.00  0.00     0.032 A 
ENDROOT
BRANCH   1  11
HETATM   11  N   UNL     1      41.023 -14.434   2.429  1.00  0.00    -0.327 N 
HETATM   12  C   UNL     1      42.369 -14.539   2.127  1.00  0.00     0.226 C 
HETATM   13  O   UNL     1      43.154 -13.610   1.962  1.00  0.00    -0.273 OA
HETATM   14  H   UNL     1      40.502 -15.300   2.471  1.00  0.00     0.169 HD
BRANCH  12  15
HETATM   15  C   UNL     1      42.832 -15.977   1.924  1.00  0.00     0.142 C 
BRANCH  15  16
HETATM   16  C   UNL     1      43.260 -16.680   3.198  1.00  0.00    -0.038 A 
HETATM   17  C   UNL     1      43.447 -18.091   3.260  1.00  0.00    -0.019 A 
HETATM   18  C   UNL     1      43.863 -18.670   4.487  1.00  0.00    -0.025 A 
HETATM   19  C   UNL     1      43.239 -18.963   2.166  1.00  0.00     0.013 A 
HETATM   20  C   UNL     1      44.058 -20.058   4.581  1.00  0.00     0.012 A 
HETATM   21  C   UNL     1      44.076 -17.855   5.608  1.00  0.00     0.012 A 
HETATM   22  C   UNL     1      43.848 -20.890   3.482  1.00  0.00     0.001 A 
HETATM   23  C   UNL     1      43.438 -20.342   2.275  1.00  0.00     0.001 A 
HETATM   24  C   UNL     1      43.880 -16.479   5.541  1.00  0.00     0.001 A 
HETATM   25  C   UNL     1      43.474 -15.895   4.347  1.00  0.00     0.008 A 
ENDBRANCH  15  16
ENDBRANCH  12  15
ENDBRANCH   1  11
BRANCH   8  26
HETATM   26  C   UNL     1      39.354 -10.942   6.727  1.00  0.00     0.270 C 
HETATM   27  N   UNL     1      40.700 -10.971   6.971  1.00  0.00    -0.365 N 
HETATM   28  H   UNL     1      41.337 -10.844   6.193  1.00  0.00     0.159 HD
HETATM   29  H   UNL     1      41.033 -11.078   7.915  1.00  0.00     0.159 HD
HETATM   30  O   UNL     1      38.543 -11.066   7.637  1.00  0.00    -0.266 OA
ENDBRANCH   8  26
TORSDOF 4
ENDMDL
MODEL 6
REMARK VINA RESULT:      -9.2      5.882      8.859
REMARK  4 active torsions:
REMARK  status: ('A' for Active; 'I' for Inactive)
REMARK    1  A    between atoms: C_5  and  C_6 
REMARK    2  A    between atoms: C_6  and  C_7 
REMARK       I    between atoms: C_7  and  N_8 
REMARK    3  A    between atoms: N_8  and  C_9 
REMARK    4  A    between atoms: C_16  and  C_17 
REMARK       I    between atoms: C_17  and  N_18 
ROOT
HETATM    1  C   UNL     1      43.828 -12.222   7.152  1.00  0.00     0.035 A 
HETATM    2  C   UNL     1      43.541 -11.081   7.912  1.00  0.00     0.046 A 
HETATM    3  C   UNL     1      44.496 -10.044   8.003  1.00  0.00     0.030 A 
HETATM    4  C   UNL     1      45.712 -10.193   7.348  1.00  0.00     0.063 A 
HETATM    5  N   UNL     1      46.414  -9.054   7.622  1.00  0.00    -0.277 N 
HETATM    6  H   UNL     1      47.349  -8.819   7.309  1.00  0.00     0.189 HD
HETATM    7  N   UNL     1      45.757  -8.164   8.385  1.00  0.00    -0.168 NA
HETATM    8  C   UNL     1      44.568  -8.761   8.627  1.00  0.00     0.156 A 
HETATM    9  C   UNL     1      46.035 -11.319   6.588  1.00  0.00     0.034 A 
HETATM   10  C   UNL     1      45.064 -12.323   6.498  1.00  0.00     0.032 A 
ENDROOT
BRANCH   1  11
HETATM   11  N   UNL     1      42.929 -13.296   6.976  1.00  0.00    -0.327 N 
HETATM   12  C   UNL     1      41.902 -13.396   6.054  1.00  0.00     0.226 C 
HETATM   13  O   UNL     1      41.528 -12.517   5.282  1.00  0.00    -0.273 OA
HETATM   14  H   UNL     1      43.069 -14.094   7.582  1.00  0.00     0.169 HD
BRANCH  12  15
HETATM   15  C   UNL     1      41.165 -14.728   6.111  1.00  0.00     0.142 C 
BRANCH  15  16
HETATM   16  C   UNL     1      42.052 -15.940   5.901  1.00  0.00    -0.038 A 
HETATM   17  C   UNL     1      42.387 -16.419   4.601  1.00  0.00    -0.019 A 
HETATM   18  C   UNL     1      43.235 -17.550   4.490  1.00  0.00    -0.025 A 
HETATM   19  C   UNL     1      41.920 -15.835   3.401  1.00  0.00     0.013 A 
HETATM   20  C   UNL     1      43.586 -18.047   3.223  1.00  0.00     0.012 A 
HETATM   21  C   UNL     1      43.722 -18.177   5.646  1.00  0.00     0.012 A 
HETATM   22  C   UNL     1      43.112 -17.445   2.059  1.00  0.00     0.001 A 
HETATM   23  C   UNL     1      42.279 -16.339   2.148  1.00  0.00     0.001 A 
HETATM   24  C   UNL     1      43.380 -17.709   6.912  1.00  0.00     0.001 A 
HETATM   25  C   UNL     1      42.551 -16.600   7.039  1.00  0.00     0.008 A 
ENDBRANCH  15  16
ENDBRANCH  12  15
ENDBRANCH   1  11
BRANCH   8  26
HETATM   26  C   UNL     1      43.532  -8.094   9.429  1.00  0.00     0.270 C 
HETATM   27  N   UNL     1      43.316  -6.787   9.084  1.00  0.00    -0.365 N 
HETATM   28  H   UNL     1      43.853  -6.392   8.319  1.00  0.00     0.159 HD
HETATM   29  H   UNL     1      42.608  -6.256   9.563  1.00  0.00     0.159 HD
HETATM   30  O   UNL     1      42.891  -8.625  10.328  1.00  0.00    -0.266 OA
ENDBRANCH   8  26
TORSDOF 4
ENDMDL
MODEL 7
REMARK VINA RESULT:      -9.1      5.893      9.014
REMARK  4 active torsions:
REMARK  status: ('A' for Active; 'I' for Inactive)
REMARK    1  A    between atoms: C_5  and  C_6 
REMARK    2  A    between atoms: C_6  and  C_7 
REMARK       I    between atoms: C_7  and  N_8 
REMARK    3  A    between atoms: N_8  and  C_9 
REMARK    4  A    between atoms: C_16  and  C_17 
REMARK       I    between atoms: C_17  and  N_18 
ROOT
HETATM    1  C   UNL     1      43.892 -12.386   7.048  1.00  0.00     0.035 A 
HETATM    2  C   UNL     1      43.713 -11.403   8.030  1.00  0.00     0.046 A 
HETATM    3  C   UNL     1      44.670 -10.374   8.171  1.00  0.00     0.030 A 
HETATM    4  C   UNL     1      45.783 -10.374   7.339  1.00  0.00     0.063 A 
HETATM    5  N   UNL     1      46.515  -9.283   7.711  1.00  0.00    -0.277 N 
HETATM    6  H   UNL     1      47.397  -8.973   7.319  1.00  0.00     0.189 HD
HETATM    7  N   UNL     1      45.971  -8.558   8.702  1.00  0.00    -0.168 NA
HETATM    8  C   UNL     1      44.828  -9.219   8.996  1.00  0.00     0.156 A 
HETATM    9  C   UNL     1      45.998 -11.341   6.354  1.00  0.00     0.034 A 
HETATM   10  C   UNL     1      45.024 -12.338   6.222  1.00  0.00     0.032 A 
ENDROOT
BRANCH   1  11
HETATM   11  N   UNL     1      42.978 -13.435   6.810  1.00  0.00    -0.327 N 
HETATM   12  C   UNL     1      41.820 -13.392   6.053  1.00  0.00     0.226 C 
HETATM   13  O   UNL     1      41.329 -12.396   5.529  1.00  0.00    -0.273 OA
HETATM   14  H   UNL     1      43.212 -14.328   7.224  1.00  0.00     0.169 HD
BRANCH  12  15
HETATM   15  C   UNL     1      41.103 -14.733   5.968  1.00  0.00     0.142 C 
BRANCH  15  16
HETATM   16  C   UNL     1      41.306 -15.466   4.655  1.00  0.00    -0.038 A 
HETATM   17  C   UNL     1      42.319 -16.455   4.487  1.00  0.00    -0.019 A 
HETATM   18  C   UNL     1      42.433 -17.105   3.232  1.00  0.00    -0.025 A 
HETATM   19  C   UNL     1      43.230 -16.831   5.501  1.00  0.00     0.013 A 
HETATM   20  C   UNL     1      43.420 -18.087   3.034  1.00  0.00     0.012 A 
HETATM   21  C   UNL     1      41.563 -16.767   2.186  1.00  0.00     0.012 A 
HETATM   22  C   UNL     1      44.300 -18.438   4.056  1.00  0.00     0.001 A 
HETATM   23  C   UNL     1      44.205 -17.810   5.289  1.00  0.00     0.001 A 
HETATM   24  C   UNL     1      40.584 -15.791   2.357  1.00  0.00     0.001 A 
HETATM   25  C   UNL     1      40.457 -15.145   3.580  1.00  0.00     0.008 A 
ENDBRANCH  15  16
ENDBRANCH  12  15
ENDBRANCH   1  11
BRANCH   8  26
HETATM   26  C   UNL     1      43.914  -8.729  10.039  1.00  0.00     0.270 C 
HETATM   27  N   UNL     1      43.967  -9.442  11.206  1.00  0.00    -0.365 N 
HETATM   28  H   UNL     1      44.617 -10.217  11.272  1.00  0.00     0.159 HD
HETATM   29  H   UNL     1      43.393  -9.165  11.985  1.00  0.00     0.159 HD
HETATM   30  O   UNL     1      43.162  -7.769   9.918  1.00  0.00    -0.266 OA
ENDBRANCH   8  26
TORSDOF 4
ENDMDL
MODEL 8
REMARK VINA RESULT:      -8.7      4.946      6.852
REMARK  4 active torsions:
REMARK  status: ('A' for Active; 'I' for Inactive)
REMARK    1  A    between atoms: C_5  and  C_6 
REMARK    2  A    between atoms: C_6  and  C_7 
REMARK       I    between atoms: C_7  and  N_8 
REMARK    3  A    between atoms: N_8  and  C_9 
REMARK    4  A    between atoms: C_16  and  C_17 
REMARK       I    between atoms: C_17  and  N_18 
ROOT
HETATM    1  C   UNL     1      43.614 -12.315   6.766  1.00  0.00     0.035 A 
HETATM    2  C   UNL     1      42.713 -11.574   5.989  1.00  0.00     0.046 A 
HETATM    3  C   UNL     1      42.441 -10.230   6.327  1.00  0.00     0.030 A 
HETATM    4  C   UNL     1      43.063  -9.679   7.440  1.00  0.00     0.063 A 
HETATM    5  N   UNL     1      42.605  -8.394   7.513  1.00  0.00    -0.277 N 
HETATM    6  H   UNL     1      42.846  -7.695   8.207  1.00  0.00     0.189 HD
HETATM    7  N   UNL     1      41.751  -8.050   6.535  1.00  0.00    -0.168 NA
HETATM    8  C   UNL     1      41.641  -9.175   5.792  1.00  0.00     0.156 A 
HETATM    9  C   UNL     1      43.960 -10.388   8.241  1.00  0.00     0.034 A 
HETATM   10  C   UNL     1      44.228 -11.712   7.874  1.00  0.00     0.032 A 
ENDROOT
BRANCH   1  11
HETATM   11  N   UNL     1      43.973 -13.652   6.492  1.00  0.00    -0.327 N 
HETATM   12  C   UNL     1      43.147 -14.762   6.473  1.00  0.00     0.226 C 
HETATM   13  O   UNL     1      41.961 -14.792   6.788  1.00  0.00    -0.273 OA
HETATM   14  H   UNL     1      44.946 -13.811   6.261  1.00  0.00     0.169 HD
BRANCH  12  15
HETATM   15  C   UNL     1      43.868 -16.045   6.081  1.00  0.00     0.142 C 
BRANCH  15  16
HETATM   16  C   UNL     1      43.595 -16.505   4.661  1.00  0.00    -0.038 A 
HETATM   17  C   UNL     1      43.696 -17.873   4.275  1.00  0.00    -0.019 A 
HETATM   18  C   UNL     1      43.409 -18.223   2.930  1.00  0.00    -0.025 A 
HETATM   19  C   UNL     1      44.071 -18.916   5.153  1.00  0.00     0.013 A 
HETATM   20  C   UNL     1      43.498 -19.564   2.516  1.00  0.00     0.012 A 
HETATM   21  C   UNL     1      43.041 -17.230   2.011  1.00  0.00     0.012 A 
HETATM   22  C   UNL     1      43.866 -20.568   3.409  1.00  0.00     0.001 A 
HETATM   23  C   UNL     1      44.153 -20.245   4.727  1.00  0.00     0.001 A 
HETATM   24  C   UNL     1      42.956 -15.895   2.396  1.00  0.00     0.001 A 
HETATM   25  C   UNL     1      43.232 -15.535   3.710  1.00  0.00     0.008 A 
ENDBRANCH  15  16
ENDBRANCH  12  15
ENDBRANCH   1  11
BRANCH   8  26
HETATM   26  C   UNL     1      40.794  -9.211   4.590  1.00  0.00     0.270 C 
HETATM   27  N   UNL     1      41.470  -8.973   3.424  1.00  0.00    -0.365 N 
HETATM   28  H   UNL     1      42.469  -8.810   3.468  1.00  0.00     0.159 HD
HETATM   29  H   UNL     1      40.976  -9.001   2.548  1.00  0.00     0.159 HD
HETATM   30  O   UNL     1      39.590  -9.439   4.588  1.00  0.00    -0.266 OA
ENDBRANCH   8  26
TORSDOF 4
ENDMDL
MODEL 9
REMARK VINA RESULT:      -8.7      2.165      2.562
REMARK  4 active torsions:
REMARK  status: ('A' for Active; 'I' for Inactive)
REMARK    1  A    between atoms: C_5  and  C_6 
REMARK    2  A    between atoms: C_6  and  C_7 
REMARK       I    between atoms: C_7  and  N_8 
REMARK    3  A    between atoms: N_8  and  C_9 
REMARK    4  A    between atoms: C_16  and  C_17 
REMARK       I    between atoms: C_17  and  N_18 
ROOT
HETATM    1  C   UNL     1      39.583 -13.166   1.925  1.00  0.00     0.035 A 
HETATM    2  C   UNL     1      39.897 -13.414   0.583  1.00  0.00     0.046 A 
HETATM    3  C   UNL     1      39.748 -12.384  -0.372  1.00  0.00     0.030 A 
HETATM    4  C   UNL     1      39.270 -11.148   0.045  1.00  0.00     0.063 A 
HETATM    5  N   UNL     1      39.228 -10.376  -1.082  1.00  0.00    -0.277 N 
HETATM    6  H   UNL     1      38.925  -9.412  -1.154  1.00  0.00     0.189 HD
HETATM    7  N   UNL     1      39.654 -10.993  -2.196  1.00  0.00    -0.168 NA
HETATM    8  C   UNL     1      39.981 -12.235  -1.773  1.00  0.00     0.156 A 
HETATM    9  C   UNL     1      38.939 -10.866   1.372  1.00  0.00     0.034 A 
HETATM   10  C   UNL     1      39.115 -11.898   2.302  1.00  0.00     0.032 A 
ENDROOT
BRANCH   1  11
HETATM   11  N   UNL     1      39.727 -14.119   2.956  1.00  0.00    -0.327 N 
HETATM   12  C   UNL     1      40.715 -14.176   3.923  1.00  0.00     0.226 C 
HETATM   13  O   UNL     1      41.705 -13.453   3.995  1.00  0.00    -0.273 OA
HETATM   14  H   UNL     1      39.009 -14.831   3.005  1.00  0.00     0.169 HD
BRANCH  12  15
HETATM   15  C   UNL     1      40.526 -15.316   4.915  1.00  0.00     0.142 C 
BRANCH  15  16
HETATM   16  C   UNL     1      41.816 -15.986   5.349  1.00  0.00    -0.038 A 
HETATM   17  C   UNL     1      42.542 -16.861   4.490  1.00  0.00    -0.019 A 
HETATM   18  C   UNL     1      43.749 -17.435   4.966  1.00  0.00    -0.025 A 
HETATM   19  C   UNL     1      42.132 -17.201   3.180  1.00  0.00     0.013 A 
HETATM   20  C   UNL     1      44.490 -18.301   4.143  1.00  0.00     0.012 A 
HETATM   21  C   UNL     1      44.201 -17.142   6.261  1.00  0.00     0.012 A 
HETATM   22  C   UNL     1      44.059 -18.612   2.855  1.00  0.00     0.001 A 
HETATM   23  C   UNL     1      42.880 -18.062   2.373  1.00  0.00     0.001 A 
HETATM   24  C   UNL     1      43.479 -16.294   7.096  1.00  0.00     0.001 A 
HETATM   25  C   UNL     1      42.296 -15.722   6.645  1.00  0.00     0.008 A 
ENDBRANCH  15  16
ENDBRANCH  12  15
ENDBRANCH   1  11
BRANCH   8  26
HETATM   26  C   UNL     1      40.517 -13.239  -2.705  1.00  0.00     0.270 C 
HETATM   27  N   UNL     1      41.735 -12.911  -3.236  1.00  0.00    -0.365 N 
HETATM   28  H   UNL     1      42.171 -12.043  -2.948  1.00  0.00     0.159 HD
HETATM   29  H   UNL     1      42.191 -13.550  -3.867  1.00  0.00     0.159 HD
HETATM   30  O   UNL     1      39.959 -14.289  -3.001  1.00  0.00    -0.266 OA
ENDBRANCH   8  26
TORSDOF 4
ENDMDL
MODEL 10
REMARK VINA RESULT:      -8.7      2.425      3.936
REMARK  4 active torsions:
REMARK  status: ('A' for Active; 'I' for Inactive)
REMARK    1  A    between atoms: C_5  and  C_6 
REMARK    2  A    between atoms: C_6  and  C_7 
REMARK       I    between atoms: C_7  and  N_8 
REMARK    3  A    between atoms: N_8  and  C_9 
REMARK    4  A    between atoms: C_16  and  C_17 
REMARK       I    between atoms: C_17  and  N_18 
ROOT
HETATM    1  C   UNL     1      39.884 -14.137  -0.389  1.00  0.00     0.035 A 
HETATM    2  C   UNL     1      40.389 -12.830  -0.360  1.00  0.00     0.046 A 
HETATM    3  C   UNL     1      40.203 -11.984  -1.476  1.00  0.00     0.030 A 
HETATM    4  C   UNL     1      39.537 -12.481  -2.589  1.00  0.00     0.063 A 
HETATM    5  N   UNL     1      39.520 -11.453  -3.490  1.00  0.00    -0.277 N 
HETATM    6  H   UNL     1      39.117 -11.459  -4.420  1.00  0.00     0.189 HD
HETATM    7  N   UNL     1      40.100 -10.322  -3.056  1.00  0.00    -0.168 NA
HETATM    8  C   UNL     1      40.526 -10.634  -1.811  1.00  0.00     0.156 A 
HETATM    9  C   UNL     1      39.028 -13.779  -2.657  1.00  0.00     0.034 A 
HETATM   10  C   UNL     1      39.208 -14.590  -1.531  1.00  0.00     0.032 A 
ENDROOT
BRANCH   1  11
HETATM   11  N   UNL     1      39.993 -15.046   0.685  1.00  0.00    -0.327 N 
HETATM   12  C   UNL     1      41.124 -15.352   1.421  1.00  0.00     0.226 C 
HETATM   13  O   UNL     1      42.265 -14.954   1.204  1.00  0.00    -0.273 OA
HETATM   14  H   UNL     1      39.137 -15.509   0.962  1.00  0.00     0.169 HD
BRANCH  12  15
HETATM   15  C   UNL     1      40.861 -16.342   2.550  1.00  0.00     0.142 C 
BRANCH  15  16
HETATM   16  C   UNL     1      42.102 -17.048   3.062  1.00  0.00    -0.038 A 
HETATM   17  C   UNL     1      42.791 -16.618   4.233  1.00  0.00    -0.019 A 
HETATM   18  C   UNL     1      43.936 -17.342   4.654  1.00  0.00    -0.025 A 
HETATM   19  C   UNL     1      42.405 -15.501   5.010  1.00  0.00     0.013 A 
HETATM   20  C   UNL     1      44.637 -16.946   5.806  1.00  0.00     0.012 A 
HETATM   21  C   UNL     1      44.371 -18.454   3.918  1.00  0.00     0.012 A 
HETATM   22  C   UNL     1      44.227 -15.842   6.552  1.00  0.00     0.001 A 
HETATM   23  C   UNL     1      43.112 -15.120   6.154  1.00  0.00     0.001 A 
HETATM   24  C   UNL     1      43.698 -18.859   2.768  1.00  0.00     0.001 A 
HETATM   25  C   UNL     1      42.573 -18.162   2.343  1.00  0.00     0.008 A 
ENDBRANCH  15  16
ENDBRANCH  12  15
ENDBRANCH   1  11
BRANCH   8  26
HETATM   26  C   UNL     1      41.213  -9.641  -0.971  1.00  0.00     0.270 C 
HETATM   27  N   UNL     1      40.388  -8.982  -0.100  1.00  0.00    -0.365 N 
HETATM   28  H   UNL     1      39.404  -9.227  -0.084  1.00  0.00     0.159 HD
HETATM   29  H   UNL     1      40.774  -8.300   0.532  1.00  0.00     0.159 HD
HETATM   30  O   UNL     1      42.414  -9.399  -1.011  1.00  0.00    -0.266 OA
ENDBRANCH   8  26
TORSDOF 4
ENDMDL
