MODEL 1
REMARK VINA RESULT:      -9.7      0.000      0.000
REMARK  5 active torsions:
REMARK  status: ('A' for Active; 'I' for Inactive)
REMARK    1  A    between atoms: C_3  and  O_4 
REMARK    2  A    between atoms: C_6  and  N_7 
REMARK       I    between atoms: N_7  and  C_8 
REMARK    3  A    between atoms: C_8  and  C_9 
REMARK    4  A    between atoms: C_14  and  C_15 
REMARK    5  A    between atoms: C_23  and  C_24 
ROOT
HETATM    1  C   UNL     1      42.740 -14.772   5.684  1.00  0.00     0.148 A 
HETATM    2  N   UNL     1      41.869 -13.824   5.256  1.00  0.00    -0.165 NA
HETATM    3  N   UNL     1      42.430 -12.678   5.687  1.00  0.00    -0.240 N 
HETATM    4  C   UNL     1      43.535 -12.857   6.469  1.00  0.00     0.123 A 
HETATM    5  N   UNL     1      44.114 -11.820   7.106  1.00  0.00    -0.366 N 
HETATM    6  C   UNL     1      43.518 -10.487   7.151  1.00  0.00     0.118 C 
HETATM    7  C   UNL     1      42.041 -10.506   6.700  1.00  0.00     0.066 C 
HETATM    8  C   UNL     1      41.825 -11.382   5.456  1.00  0.00     0.221 C 
HETATM    9  C   UNL     1      43.810 -14.196   6.427  1.00  0.00     0.089 A 
HETATM   10  H   UNL     1      44.960 -11.946   7.663  1.00  0.00     0.161 HD
ENDROOT
BRANCH   1  11
HETATM   11  C   UNL     1      42.524 -16.209   5.431  1.00  0.00     0.276 C 
HETATM   12  N   UNL     1      43.517 -16.740   4.631  1.00  0.00    -0.322 N 
HETATM   13  H   UNL     1      44.224 -16.059   4.363  1.00  0.00     0.169 HD
HETATM   14  O   UNL     1      41.545 -16.794   5.877  1.00  0.00    -0.266 OA
BRANCH  12  15
HETATM   15  C   UNL     1      43.627 -18.046   4.127  1.00  0.00     0.037 A 
HETATM   16  C   UNL     1      44.063 -19.138   4.880  1.00  0.00     0.066 A 
HETATM   17  C   UNL     1      44.134 -20.402   4.295  1.00  0.00     0.067 A 
HETATM   18  C   UNL     1      43.773 -20.603   2.968  1.00  0.00     0.036 A 
HETATM   19  C   UNL     1      43.336 -19.518   2.211  1.00  0.00     0.005 A 
HETATM   20  C   UNL     1      43.268 -18.246   2.787  1.00  0.00     0.029 A 
BRANCH  17  21
HETATM   21  O   UNL     1      44.574 -21.436   5.070  1.00  0.00    -0.361 OA
HETATM   22  H   UNL     1      44.653 -22.230   4.518  1.00  0.00     0.217 HD
ENDBRANCH  17  21
ENDBRANCH  12  15
ENDBRANCH   1  11
BRANCH   8  23
HETATM   23  C   UNL     1      42.393 -10.763   4.199  1.00  0.00     0.409 C 
HETATM   24  F   UNL     1      43.682 -11.108   3.991  1.00  0.00    -0.169 F 
HETATM   25  F   UNL     1      41.696 -11.206   3.119  1.00  0.00    -0.169 F 
HETATM   26  F   UNL     1      42.317  -9.416   4.177  1.00  0.00    -0.169 F 
ENDBRANCH   8  23
BRANCH   6  27
HETATM   27  C   UNL     1      43.644  -9.939   8.564  1.00  0.00    -0.035 A 
HETATM   28  C   UNL     1      42.569  -9.265   9.165  1.00  0.00     0.012 A 
HETATM   29  C   UNL     1      42.687  -8.763  10.463  1.00  0.00     0.043 A 
HETATM   30  C   UNL     1      43.875  -8.932  11.164  1.00  0.00     0.116 A 
HETATM   31  F   UNL     1      43.983  -8.448  12.407  1.00  0.00    -0.206 F 
HETATM   32  C   UNL     1      44.953  -9.593  10.591  1.00  0.00     0.043 A 
HETATM   33  C   UNL     1      44.839 -10.095   9.295  1.00  0.00     0.012 A 
ENDBRANCH   6  27
TORSDOF 5
ENDMDL
MODEL 2
REMARK VINA RESULT:      -9.6      0.796      1.478
REMARK  5 active torsions:
REMARK  status: ('A' for Active; 'I' for Inactive)
REMARK    1  A    between atoms: C_3  and  O_4 
REMARK    2  A    between atoms: C_6  and  N_7 
REMARK       I    between atoms: N_7  and  C_8 
REMARK    3  A    between atoms: C_8  and  C_9 
REMARK    4  A    between atoms: C_14  and  C_15 
REMARK    5  A    between atoms: C_23  and  C_24 
ROOT
HETATM    1  C   UNL     1      42.708 -14.959   5.606  1.00  0.00     0.148 A 
HETATM    2  N   UNL     1      41.868 -13.994   5.156  1.00  0.00    -0.165 NA
HETATM    3  N   UNL     1      42.462 -12.858   5.565  1.00  0.00    -0.240 N 
HETATM    4  C   UNL     1      43.558 -13.054   6.355  1.00  0.00     0.123 A 
HETATM    5  N   UNL     1      44.168 -12.023   6.973  1.00  0.00    -0.366 N 
HETATM    6  C   UNL     1      43.612 -10.672   6.989  1.00  0.00     0.118 C 
HETATM    7  C   UNL     1      42.136 -10.655   6.533  1.00  0.00     0.066 C 
HETATM    8  C   UNL     1      41.898 -11.548   5.306  1.00  0.00     0.221 C 
HETATM    9  C   UNL     1      43.792 -14.402   6.341  1.00  0.00     0.089 A 
HETATM   10  H   UNL     1      45.007 -12.164   7.536  1.00  0.00     0.161 HD
ENDROOT
BRANCH   1  11
HETATM   11  C   UNL     1      42.449 -16.394   5.380  1.00  0.00     0.276 C 
HETATM   12  N   UNL     1      43.553 -17.034   4.852  1.00  0.00    -0.322 N 
HETATM   13  H   UNL     1      44.350 -16.416   4.718  1.00  0.00     0.169 HD
HETATM   14  O   UNL     1      41.355 -16.889   5.622  1.00  0.00    -0.266 OA
BRANCH  12  15
HETATM   15  C   UNL     1      43.676 -18.375   4.450  1.00  0.00     0.037 A 
HETATM   16  C   UNL     1      43.584 -18.803   3.126  1.00  0.00     0.066 A 
HETATM   17  C   UNL     1      43.727 -20.157   2.821  1.00  0.00     0.067 A 
HETATM   18  C   UNL     1      43.965 -21.097   3.816  1.00  0.00     0.036 A 
HETATM   19  C   UNL     1      44.059 -20.677   5.141  1.00  0.00     0.005 A 
HETATM   20  C   UNL     1      43.910 -19.323   5.456  1.00  0.00     0.029 A 
BRANCH  17  21
HETATM   21  O   UNL     1      43.621 -20.527   1.511  1.00  0.00    -0.361 OA
HETATM   22  H   UNL     1      43.606 -21.496   1.460  1.00  0.00     0.217 HD
ENDBRANCH  17  21
ENDBRANCH  12  15
ENDBRANCH   1  11
BRANCH   8  23
HETATM   23  C   UNL     1      42.489 -10.973   4.039  1.00  0.00     0.409 C 
HETATM   24  F   UNL     1      43.785 -11.312   3.874  1.00  0.00    -0.169 F 
HETATM   25  F   UNL     1      41.821 -11.465   2.962  1.00  0.00    -0.169 F 
HETATM   26  F   UNL     1      42.400  -9.628   3.962  1.00  0.00    -0.169 F 
ENDBRANCH   8  23
BRANCH   6  27
HETATM   27  C   UNL     1      43.750 -10.100   8.391  1.00  0.00    -0.035 A 
HETATM   28  C   UNL     1      44.944 -10.264   9.113  1.00  0.00     0.012 A 
HETATM   29  C   UNL     1      45.070  -9.737  10.400  1.00  0.00     0.043 A 
HETATM   30  C   UNL     1      44.008  -9.046  10.970  1.00  0.00     0.116 A 
HETATM   31  F   UNL     1      44.133  -8.543  12.204  1.00  0.00    -0.206 F 
HETATM   32  C   UNL     1      42.816  -8.871  10.278  1.00  0.00     0.043 A 
HETATM   33  C   UNL     1      42.688  -9.397   8.993  1.00  0.00     0.012 A 
ENDBRANCH   6  27
TORSDOF 5
ENDMDL
MODEL 3
REMARK VINA RESULT:      -9.6      3.799      8.920
REMARK  5 active torsions:
REMARK  status: ('A' for Active; 'I' for Inactive)
REMARK    1  A    between atoms: C_3  and  O_4 
REMARK    2  A    between atoms: C_6  and  N_7 
REMARK       I    between atoms: N_7  and  C_8 
REMARK    3  A    between atoms: C_8  and  C_9 
REMARK    4  A    between atoms: C_14  and  C_15 
REMARK    5  A    between atoms: C_23  and  C_24 
ROOT
HETATM    1  C   UNL     1      42.868 -12.541   4.908  1.00  0.00     0.148 A 
HETATM    2  N   UNL     1      43.093 -12.530   3.571  1.00  0.00    -0.165 NA
HETATM    3  N   UNL     1      42.671 -13.747   3.181  1.00  0.00    -0.240 N 
HETATM    4  C   UNL     1      42.313 -14.570   4.210  1.00  0.00     0.123 A 
HETATM    5  N   UNL     1      42.021 -15.869   3.996  1.00  0.00    -0.366 N 
HETATM    6  C   UNL     1      42.232 -16.524   2.708  1.00  0.00     0.118 C 
HETATM    7  C   UNL     1      43.118 -15.674   1.772  1.00  0.00     0.066 C 
HETATM    8  C   UNL     1      42.733 -14.187   1.801  1.00  0.00     0.221 C 
HETATM    9  C   UNL     1      42.354 -13.797   5.337  1.00  0.00     0.089 A 
HETATM   10  H   UNL     1      41.720 -16.476   4.758  1.00  0.00     0.161 HD
ENDROOT
BRANCH   1  11
HETATM   11  C   UNL     1      43.187 -11.386   5.768  1.00  0.00     0.276 C 
HETATM   12  N   UNL     1      44.008 -11.744   6.819  1.00  0.00    -0.322 N 
HETATM   13  H   UNL     1      44.257 -12.730   6.816  1.00  0.00     0.169 HD
HETATM   14  O   UNL     1      42.720 -10.276   5.542  1.00  0.00    -0.266 OA
BRANCH  12  15
HETATM   15  C   UNL     1      44.477 -10.943   7.874  1.00  0.00     0.037 A 
HETATM   16  C   UNL     1      43.910 -10.922   9.148  1.00  0.00     0.066 A 
HETATM   17  C   UNL     1      44.449 -10.098  10.137  1.00  0.00     0.067 A 
HETATM   18  C   UNL     1      45.552  -9.293   9.878  1.00  0.00     0.036 A 
HETATM   19  C   UNL     1      46.124  -9.309   8.608  1.00  0.00     0.005 A 
HETATM   20  C   UNL     1      45.586 -10.127   7.610  1.00  0.00     0.029 A 
BRANCH  17  21
HETATM   21  O   UNL     1      43.854 -10.107  11.365  1.00  0.00    -0.361 OA
HETATM   22  H   UNL     1      44.122 -10.911  11.837  1.00  0.00     0.217 HD
ENDBRANCH  17  21
ENDBRANCH  12  15
ENDBRANCH   1  11
BRANCH   8  23
HETATM   23  C   UNL     1      41.417 -13.909   1.111  1.00  0.00     0.409 C 
HETATM   24  F   UNL     1      41.449 -12.776   0.377  1.00  0.00    -0.169 F 
HETATM   25  F   UNL     1      41.134 -14.920   0.247  1.00  0.00    -0.169 F 
HETATM   26  F   UNL     1      40.369 -13.823   1.957  1.00  0.00    -0.169 F 
ENDBRANCH   8  23
BRANCH   6  27
HETATM   27  C   UNL     1      42.855 -17.890   2.948  1.00  0.00    -0.035 A 
HETATM   28  C   UNL     1      43.579 -18.146   4.124  1.00  0.00     0.012 A 
HETATM   29  C   UNL     1      44.151 -19.402   4.342  1.00  0.00     0.043 A 
HETATM   30  C   UNL     1      44.001 -20.404   3.391  1.00  0.00     0.116 A 
HETATM   31  F   UNL     1      44.551 -21.605   3.605  1.00  0.00    -0.206 F 
HETATM   32  C   UNL     1      43.292 -20.175   2.219  1.00  0.00     0.043 A 
HETATM   33  C   UNL     1      42.721 -18.922   1.998  1.00  0.00     0.012 A 
ENDBRANCH   6  27
TORSDOF 5
ENDMDL
MODEL 4
REMARK VINA RESULT:      -9.4      3.415      9.150
REMARK  5 active torsions:
REMARK  status: ('A' for Active; 'I' for Inactive)
REMARK    1  A    between atoms: C_3  and  O_4 
REMARK    2  A    between atoms: C_6  and  N_7 
REMARK       I    between atoms: N_7  and  C_8 
REMARK    3  A    between atoms: C_8  and  C_9 
REMARK    4  A    between atoms: C_14  and  C_15 
REMARK    5  A    between atoms: C_23  and  C_24 
ROOT
HETATM    1  C   UNL     1      43.753 -12.272   6.050  1.00  0.00     0.148 A 
HETATM    2  N   UNL     1      43.864 -12.057   4.715  1.00  0.00    -0.165 NA
HETATM    3  N   UNL     1      43.272 -13.141   4.181  1.00  0.00    -0.240 N 
HETATM    4  C   UNL     1      42.907 -14.086   5.097  1.00  0.00     0.123 A 
HETATM    5  N   UNL     1      42.449 -15.293   4.710  1.00  0.00    -0.366 N 
HETATM    6  C   UNL     1      42.472 -15.738   3.319  1.00  0.00     0.118 C 
HETATM    7  C   UNL     1      43.370 -14.835   2.445  1.00  0.00     0.066 C 
HETATM    8  C   UNL     1      43.165 -13.344   2.750  1.00  0.00     0.221 C 
HETATM    9  C   UNL     1      43.134 -13.525   6.323  1.00  0.00     0.089 A 
HETATM   10  H   UNL     1      42.144 -15.988   5.393  1.00  0.00     0.161 HD
ENDROOT
BRANCH   1  11
HETATM   11  C   UNL     1      44.277 -11.319   7.046  1.00  0.00     0.276 C 
HETATM   12  N   UNL     1      43.314 -10.970   7.973  1.00  0.00    -0.322 N 
HETATM   13  H   UNL     1      42.421 -11.432   7.818  1.00  0.00     0.169 HD
HETATM   14  O   UNL     1      45.426 -10.899   6.983  1.00  0.00    -0.266 OA
BRANCH  12  15
HETATM   15  C   UNL     1      43.413 -10.051   9.031  1.00  0.00     0.037 A 
HETATM   16  C   UNL     1      43.169  -8.683   8.901  1.00  0.00     0.066 A 
HETATM   17  C   UNL     1      43.284  -7.847  10.011  1.00  0.00     0.067 A 
HETATM   18  C   UNL     1      43.637  -8.351  11.258  1.00  0.00     0.036 A 
HETATM   19  C   UNL     1      43.882  -9.716  11.395  1.00  0.00     0.005 A 
HETATM   20  C   UNL     1      43.774 -10.560  10.286  1.00  0.00     0.029 A 
BRANCH  17  21
HETATM   21  O   UNL     1      43.043  -6.516   9.831  1.00  0.00    -0.361 OA
HETATM   22  H   UNL     1      42.316  -6.412   9.197  1.00  0.00     0.217 HD
ENDBRANCH  17  21
ENDBRANCH  12  15
ENDBRANCH   1  11
BRANCH   8  23
HETATM   23  C   UNL     1      41.837 -12.820   2.252  1.00  0.00     0.409 C 
HETATM   24  F   UNL     1      41.911 -11.538   1.838  1.00  0.00    -0.169 F 
HETATM   25  F   UNL     1      41.435 -13.550   1.177  1.00  0.00    -0.169 F 
HETATM   26  F   UNL     1      40.846 -12.904   3.164  1.00  0.00    -0.169 F 
ENDBRANCH   8  23
BRANCH   6  27
HETATM   27  C   UNL     1      42.949 -17.181   3.272  1.00  0.00    -0.035 A 
HETATM   28  C   UNL     1      43.698 -17.719   4.332  1.00  0.00     0.012 A 
HETATM   29  C   UNL     1      44.135 -19.044   4.288  1.00  0.00     0.043 A 
HETATM   30  C   UNL     1      43.826 -19.837   3.189  1.00  0.00     0.116 A 
HETATM   31  F   UNL     1      44.248 -21.107   3.151  1.00  0.00    -0.206 F 
HETATM   32  C   UNL     1      43.089 -19.329   2.127  1.00  0.00     0.043 A 
HETATM   33  C   UNL     1      42.652 -18.005   2.168  1.00  0.00     0.012 A 
ENDBRANCH   6  27
TORSDOF 5
ENDMDL
MODEL 5
REMARK VINA RESULT:      -9.4      5.300      8.378
REMARK  5 active torsions:
REMARK  status: ('A' for Active; 'I' for Inactive)
REMARK    1  A    between atoms: C_3  and  O_4 
REMARK    2  A    between atoms: C_6  and  N_7 
REMARK       I    between atoms: N_7  and  C_8 
REMARK    3  A    between atoms: C_8  and  C_9 
REMARK    4  A    between atoms: C_14  and  C_15 
REMARK    5  A    between atoms: C_23  and  C_24 
ROOT
HETATM    1  C   UNL     1      41.434 -13.715   1.590  1.00  0.00     0.148 A 
HETATM    2  N   UNL     1      40.964 -13.517   2.847  1.00  0.00    -0.165 NA
HETATM    3  N   UNL     1      41.824 -14.221   3.608  1.00  0.00    -0.240 N 
HETATM    4  C   UNL     1      42.730 -14.952   2.896  1.00  0.00     0.123 A 
HETATM    5  N   UNL     1      43.552 -15.830   3.505  1.00  0.00    -0.366 N 
HETATM    6  C   UNL     1      43.420 -16.188   4.915  1.00  0.00     0.118 C 
HETATM    7  C   UNL     1      42.068 -15.725   5.499  1.00  0.00     0.066 C 
HETATM    8  C   UNL     1      41.699 -14.302   5.050  1.00  0.00     0.221 C 
HETATM    9  C   UNL     1      42.557 -14.590   1.588  1.00  0.00     0.089 A 
HETATM   10  H   UNL     1      44.253 -16.352   2.979  1.00  0.00     0.161 HD
ENDROOT
BRANCH   1  11
HETATM   11  C   UNL     1      40.788 -13.118   0.407  1.00  0.00     0.276 C 
HETATM   12  N   UNL     1      39.738 -13.892  -0.047  1.00  0.00    -0.322 N 
HETATM   13  H   UNL     1      39.586 -14.728   0.512  1.00  0.00     0.169 HD
HETATM   14  O   UNL     1      41.202 -12.075  -0.086  1.00  0.00    -0.266 OA
BRANCH  12  15
HETATM   15  C   UNL     1      38.925 -13.687  -1.173  1.00  0.00     0.037 A 
HETATM   16  C   UNL     1      38.925 -14.516  -2.296  1.00  0.00     0.066 A 
HETATM   17  C   UNL     1      38.075 -14.237  -3.367  1.00  0.00     0.067 A 
HETATM   18  C   UNL     1      37.217 -13.145  -3.338  1.00  0.00     0.036 A 
HETATM   19  C   UNL     1      37.211 -12.313  -2.220  1.00  0.00     0.005 A 
HETATM   20  C   UNL     1      38.064 -12.582  -1.146  1.00  0.00     0.029 A 
BRANCH  17  21
HETATM   21  O   UNL     1      38.118 -15.073  -4.446  1.00  0.00    -0.361 OA
HETATM   22  H   UNL     1      38.101 -14.539  -5.256  1.00  0.00     0.217 HD
ENDBRANCH  17  21
ENDBRANCH  12  15
ENDBRANCH   1  11
BRANCH   8  23
HETATM   23  C   UNL     1      42.554 -13.241   5.703  1.00  0.00     0.409 C 
HETATM   24  F   UNL     1      43.506 -12.763   4.874  1.00  0.00    -0.169 F 
HETATM   25  F   UNL     1      41.777 -12.181   6.050  1.00  0.00    -0.169 F 
HETATM   26  F   UNL     1      43.161 -13.657   6.835  1.00  0.00    -0.169 F 
ENDBRANCH   8  23
BRANCH   6  27
HETATM   27  C   UNL     1      43.583 -17.693   5.057  1.00  0.00    -0.035 A 
HETATM   28  C   UNL     1      43.333 -18.323   6.288  1.00  0.00     0.012 A 
HETATM   29  C   UNL     1      43.483 -19.706   6.416  1.00  0.00     0.043 A 
HETATM   30  C   UNL     1      43.880 -20.463   5.321  1.00  0.00     0.116 A 
HETATM   31  F   UNL     1      44.022 -21.787   5.450  1.00  0.00    -0.206 F 
HETATM   32  C   UNL     1      44.134 -19.864   4.094  1.00  0.00     0.043 A 
HETATM   33  C   UNL     1      43.987 -18.483   3.962  1.00  0.00     0.012 A 
ENDBRANCH   6  27
TORSDOF 5
ENDMDL
MODEL 6
REMARK VINA RESULT:      -9.2      4.604      9.290
REMARK  5 active torsions:
REMARK  status: ('A' for Active; 'I' for Inactive)
REMARK    1  A    between atoms: C_3  and  O_4 
REMARK    2  A    between atoms: C_6  and  N_7 
REMARK       I    between atoms: N_7  and  C_8 
REMARK    3  A    between atoms: C_8  and  C_9 
REMARK    4  A    between atoms: C_14  and  C_15 
REMARK    5  A    between atoms: C_23  and  C_24 
ROOT
HETATM    1  C   UNL     1      42.960 -13.642   4.886  1.00  0.00     0.148 A 
HETATM    2  N   UNL     1      42.345 -14.851   4.863  1.00  0.00    -0.165 NA
HETATM    3  N   UNL     1      42.084 -15.034   3.555  1.00  0.00    -0.240 N 
HETATM    4  C   UNL     1      42.385 -13.959   2.769  1.00  0.00     0.123 A 
HETATM    5  N   UNL     1      42.037 -13.926   1.468  1.00  0.00    -0.366 N 
HETATM    6  C   UNL     1      41.177 -14.936   0.855  1.00  0.00     0.118 C 
HETATM    7  C   UNL     1      40.466 -15.803   1.916  1.00  0.00     0.066 C 
HETATM    8  C   UNL     1      41.411 -16.216   3.055  1.00  0.00     0.221 C 
HETATM    9  C   UNL     1      43.025 -13.068   3.586  1.00  0.00     0.089 A 
HETATM   10  H   UNL     1      42.291 -13.138   0.871  1.00  0.00     0.161 HD
ENDROOT
BRANCH   1  11
HETATM   11  C   UNL     1      43.433 -13.026   6.140  1.00  0.00     0.276 C 
HETATM   12  N   UNL     1      43.819 -11.713   5.950  1.00  0.00    -0.322 N 
HETATM   13  H   UNL     1      43.703 -11.396   4.990  1.00  0.00     0.169 HD
HETATM   14  O   UNL     1      43.486 -13.665   7.184  1.00  0.00    -0.266 OA
BRANCH  12  15
HETATM   15  C   UNL     1      44.373 -10.821   6.882  1.00  0.00     0.037 A 
HETATM   16  C   UNL     1      43.619  -9.979   7.699  1.00  0.00     0.066 A 
HETATM   17  C   UNL     1      44.259  -9.129   8.603  1.00  0.00     0.067 A 
HETATM   18  C   UNL     1      45.644  -9.107   8.711  1.00  0.00     0.036 A 
HETATM   19  C   UNL     1      46.404  -9.946   7.899  1.00  0.00     0.005 A 
HETATM   20  C   UNL     1      45.771 -10.795   6.986  1.00  0.00     0.029 A 
BRANCH  17  21
HETATM   21  O   UNL     1      43.477  -8.319   9.374  1.00  0.00    -0.361 OA
HETATM   22  H   UNL     1      43.605  -7.399   9.091  1.00  0.00     0.217 HD
ENDBRANCH  17  21
ENDBRANCH  12  15
ENDBRANCH   1  11
BRANCH   8  23
HETATM   23  C   UNL     1      42.429 -17.248   2.626  1.00  0.00     0.409 C 
HETATM   24  F   UNL     1      43.422 -16.715   1.882  1.00  0.00    -0.169 F 
HETATM   25  F   UNL     1      43.019 -17.790   3.725  1.00  0.00    -0.169 F 
HETATM   26  F   UNL     1      41.898 -18.277   1.931  1.00  0.00    -0.169 F 
ENDBRANCH   8  23
BRANCH   6  27
HETATM   27  C   UNL     1      40.164 -14.240  -0.041  1.00  0.00    -0.035 A 
HETATM   28  C   UNL     1      39.750 -12.927   0.238  1.00  0.00     0.012 A 
HETATM   29  C   UNL     1      38.819 -12.290  -0.586  1.00  0.00     0.043 A 
HETATM   30  C   UNL     1      38.301 -12.958  -1.689  1.00  0.00     0.116 A 
HETATM   31  F   UNL     1      37.409 -12.343  -2.475  1.00  0.00    -0.206 F 
HETATM   32  C   UNL     1      38.693 -14.257  -1.986  1.00  0.00     0.043 A 
HETATM   33  C   UNL     1      39.621 -14.896  -1.164  1.00  0.00     0.012 A 
ENDBRANCH   6  27
TORSDOF 5
ENDMDL
MODEL 7
REMARK VINA RESULT:      -9.0      4.604      5.867
REMARK  5 active torsions:
REMARK  status: ('A' for Active; 'I' for Inactive)
REMARK    1  A    between atoms: C_3  and  O_4 
REMARK    2  A    between atoms: C_6  and  N_7 
REMARK       I    between atoms: N_7  and  C_8 
REMARK    3  A    between atoms: C_8  and  C_9 
REMARK    4  A    between atoms: C_14  and  C_15 
REMARK    5  A    between atoms: C_23  and  C_24 
ROOT
HETATM    1  C   UNL     1      40.502 -13.319   3.301  1.00  0.00     0.148 A 
HETATM    2  N   UNL     1      41.250 -14.398   3.641  1.00  0.00    -0.165 NA
HETATM    3  N   UNL     1      41.760 -14.050   4.837  1.00  0.00    -0.240 N 
HETATM    4  C   UNL     1      41.480 -12.767   5.212  1.00  0.00     0.123 A 
HETATM    5  N   UNL     1      42.049 -12.219   6.304  1.00  0.00    -0.366 N 
HETATM    6  C   UNL     1      43.117 -12.876   7.052  1.00  0.00     0.118 C 
HETATM    7  C   UNL     1      43.725 -14.058   6.264  1.00  0.00     0.066 C 
HETATM    8  C   UNL     1      42.647 -14.918   5.586  1.00  0.00     0.221 C 
HETATM    9  C   UNL     1      40.603 -12.288   4.278  1.00  0.00     0.089 A 
HETATM   10  H   UNL     1      41.815 -11.272   6.605  1.00  0.00     0.161 HD
ENDROOT
BRANCH   1  11
HETATM   11  C   UNL     1      39.743 -13.256   2.037  1.00  0.00     0.276 C 
HETATM   12  N   UNL     1      40.447 -13.816   0.990  1.00  0.00    -0.322 N 
HETATM   13  H   UNL     1      41.356 -14.181   1.267  1.00  0.00     0.169 HD
HETATM   14  O   UNL     1      38.639 -12.726   1.984  1.00  0.00    -0.266 OA
BRANCH  12  15
HETATM   15  C   UNL     1      40.086 -13.891  -0.365  1.00  0.00     0.037 A 
HETATM   16  C   UNL     1      39.365 -14.948  -0.922  1.00  0.00     0.066 A 
HETATM   17  C   UNL     1      39.044 -14.933  -2.280  1.00  0.00     0.067 A 
HETATM   18  C   UNL     1      39.428 -13.876  -3.097  1.00  0.00     0.036 A 
HETATM   19  C   UNL     1      40.149 -12.818  -2.548  1.00  0.00     0.005 A 
HETATM   20  C   UNL     1      40.479 -12.828  -1.190  1.00  0.00     0.029 A 
BRANCH  17  21
HETATM   21  O   UNL     1      38.344 -15.993  -2.779  1.00  0.00    -0.361 OA
HETATM   22  H   UNL     1      38.269 -15.894  -3.741  1.00  0.00     0.217 HD
ENDBRANCH  17  21
ENDBRANCH  12  15
ENDBRANCH   1  11
BRANCH   8  23
HETATM   23  C   UNL     1      41.851 -15.743   6.571  1.00  0.00     0.409 C 
HETATM   24  F   UNL     1      41.640 -17.004   6.136  1.00  0.00    -0.169 F 
HETATM   25  F   UNL     1      42.541 -15.849   7.738  1.00  0.00    -0.169 F 
HETATM   26  F   UNL     1      40.652 -15.207   6.883  1.00  0.00    -0.169 F 
ENDBRANCH   8  23
BRANCH   6  27
HETATM   27  C   UNL     1      44.185 -11.848   7.391  1.00  0.00    -0.035 A 
HETATM   28  C   UNL     1      45.374 -11.784   6.646  1.00  0.00     0.012 A 
HETATM   29  C   UNL     1      46.354 -10.838   6.958  1.00  0.00     0.043 A 
HETATM   30  C   UNL     1      46.150  -9.955   8.011  1.00  0.00     0.116 A 
HETATM   31  F   UNL     1      47.091  -9.051   8.307  1.00  0.00    -0.206 F 
HETATM   32  C   UNL     1      44.983  -9.998   8.764  1.00  0.00     0.043 A 
HETATM   33  C   UNL     1      44.004 -10.942   8.455  1.00  0.00     0.012 A 
ENDBRANCH   6  27
TORSDOF 5
ENDMDL
MODEL 8
REMARK VINA RESULT:      -8.9      5.116      9.075
REMARK  5 active torsions:
REMARK  status: ('A' for Active; 'I' for Inactive)
REMARK    1  A    between atoms: C_3  and  O_4 
REMARK    2  A    between atoms: C_6  and  N_7 
REMARK       I    between atoms: N_7  and  C_8 
REMARK    3  A    between atoms: C_8  and  C_9 
REMARK    4  A    between atoms: C_14  and  C_15 
REMARK    5  A    between atoms: C_23  and  C_24 
ROOT
HETATM    1  C   UNL     1      40.368 -13.260   2.232  1.00  0.00     0.148 A 
HETATM    2  N   UNL     1      40.360 -13.336   3.586  1.00  0.00    -0.165 NA
HETATM    3  N   UNL     1      41.427 -14.110   3.854  1.00  0.00    -0.240 N 
HETATM    4  C   UNL     1      42.032 -14.631   2.746  1.00  0.00     0.123 A 
HETATM    5  N   UNL     1      43.012 -15.550   2.853  1.00  0.00    -0.366 N 
HETATM    6  C   UNL     1      43.373 -16.176   4.122  1.00  0.00     0.118 C 
HETATM    7  C   UNL     1      42.305 -15.925   5.208  1.00  0.00     0.066 C 
HETATM    8  C   UNL     1      41.806 -14.472   5.206  1.00  0.00     0.221 C 
HETATM    9  C   UNL     1      41.421 -14.040   1.675  1.00  0.00     0.089 A 
HETATM   10  H   UNL     1      43.489 -15.915   2.027  1.00  0.00     0.161 HD
ENDROOT
BRANCH   1  11
HETATM   11  C   UNL     1      39.355 -12.494   1.482  1.00  0.00     0.276 C 
HETATM   12  N   UNL     1      39.530 -12.617   0.117  1.00  0.00    -0.322 N 
HETATM   13  H   UNL     1      40.313 -13.215  -0.135  1.00  0.00     0.169 HD
HETATM   14  O   UNL     1      38.508 -11.823   2.059  1.00  0.00    -0.266 OA
BRANCH  12  15
HETATM   15  C   UNL     1      38.808 -11.996  -0.916  1.00  0.00     0.037 A 
HETATM   16  C   UNL     1      37.838 -12.640  -1.684  1.00  0.00     0.066 A 
HETATM   17  C   UNL     1      37.166 -11.939  -2.686  1.00  0.00     0.067 A 
HETATM   18  C   UNL     1      37.442 -10.599  -2.935  1.00  0.00     0.036 A 
HETATM   19  C   UNL     1      38.409  -9.950  -2.172  1.00  0.00     0.005 A 
HETATM   20  C   UNL     1      39.091 -10.647  -1.170  1.00  0.00     0.029 A 
BRANCH  17  21
HETATM   21  O   UNL     1      36.231 -12.614  -3.416  1.00  0.00    -0.361 OA
HETATM   22  H   UNL     1      36.511 -12.632  -4.345  1.00  0.00     0.217 HD
ENDBRANCH  17  21
ENDBRANCH  12  15
ENDBRANCH   1  11
BRANCH   8  23
HETATM   23  C   UNL     1      42.836 -13.498   5.732  1.00  0.00     0.409 C 
HETATM   24  F   UNL     1      42.281 -12.499   6.450  1.00  0.00    -0.169 F 
HETATM   25  F   UNL     1      43.690 -14.146   6.568  1.00  0.00    -0.169 F 
HETATM   26  F   UNL     1      43.596 -12.940   4.766  1.00  0.00    -0.169 F 
ENDBRANCH   8  23
BRANCH   6  27
HETATM   27  C   UNL     1      43.573 -17.667   3.895  1.00  0.00    -0.035 A 
HETATM   28  C   UNL     1      43.984 -18.499   4.950  1.00  0.00     0.012 A 
HETATM   29  C   UNL     1      44.167 -19.867   4.740  1.00  0.00     0.043 A 
HETATM   30  C   UNL     1      43.939 -20.410   3.481  1.00  0.00     0.116 A 
HETATM   31  F   UNL     1      44.115 -21.722   3.285  1.00  0.00    -0.206 F 
HETATM   32  C   UNL     1      43.532 -19.608   2.422  1.00  0.00     0.043 A 
HETATM   33  C   UNL     1      43.351 -18.241   2.628  1.00  0.00     0.012 A 
ENDBRANCH   6  27
TORSDOF 5
ENDMDL
MODEL 9
REMARK VINA RESULT:      -8.6      5.093      9.225
REMARK  5 active torsions:
REMARK  status: ('A' for Active; 'I' for Inactive)
REMARK    1  A    between atoms: C_3  and  O_4 
REMARK    2  A    between atoms: C_6  and  N_7 
REMARK       I    between atoms: N_7  and  C_8 
REMARK    3  A    between atoms: C_8  and  C_9 
REMARK    4  A    between atoms: C_14  and  C_15 
REMARK    5  A    between atoms: C_23  and  C_24 
ROOT
HETATM    1  C   UNL     1      40.914 -13.082   1.778  1.00  0.00     0.148 A 
HETATM    2  N   UNL     1      40.331 -13.365   2.970  1.00  0.00    -0.165 NA
HETATM    3  N   UNL     1      41.221 -14.186   3.557  1.00  0.00    -0.240 N 
HETATM    4  C   UNL     1      42.269 -14.539   2.756  1.00  0.00     0.123 A 
HETATM    5  N   UNL     1      43.157 -15.477   3.140  1.00  0.00    -0.366 N 
HETATM    6  C   UNL     1      42.974 -16.295   4.336  1.00  0.00     0.118 C 
HETATM    7  C   UNL     1      41.531 -16.199   4.879  1.00  0.00     0.066 C 
HETATM    8  C   UNL     1      41.004 -14.756   4.872  1.00  0.00     0.221 C 
HETATM    9  C   UNL     1      42.144 -13.782   1.623  1.00  0.00     0.089 A 
HETATM   10  H   UNL     1      43.960 -15.717   2.558  1.00  0.00     0.161 HD
ENDROOT
BRANCH   1  11
HETATM   11  C   UNL     1      40.279 -12.196   0.784  1.00  0.00     0.276 C 
HETATM   12  N   UNL     1      41.161 -11.839  -0.217  1.00  0.00    -0.322 N 
HETATM   13  H   UNL     1      42.085 -12.250  -0.104  1.00  0.00     0.169 HD
HETATM   14  O   UNL     1      39.116 -11.832   0.907  1.00  0.00    -0.266 OA
BRANCH  12  15
HETATM   15  C   UNL     1      40.949 -10.970  -1.300  1.00  0.00     0.037 A 
HETATM   16  C   UNL     1      41.608  -9.751  -1.462  1.00  0.00     0.066 A 
HETATM   17  C   UNL     1      41.336  -8.956  -2.576  1.00  0.00     0.067 A 
HETATM   18  C   UNL     1      40.418  -9.356  -3.539  1.00  0.00     0.036 A 
HETATM   19  C   UNL     1      39.755 -10.572  -3.383  1.00  0.00     0.005 A 
HETATM   20  C   UNL     1      40.017 -11.372  -2.267  1.00  0.00     0.029 A 
BRANCH  17  21
HETATM   21  O   UNL     1      42.002  -7.769  -2.686  1.00  0.00    -0.361 OA
HETATM   22  H   UNL     1      41.482  -7.169  -3.245  1.00  0.00     0.217 HD
ENDBRANCH  17  21
ENDBRANCH  12  15
ENDBRANCH   1  11
BRANCH   8  23
HETATM   23  C   UNL     1      41.655 -13.889   5.925  1.00  0.00     0.409 C 
HETATM   24  F   UNL     1      42.720 -13.210   5.447  1.00  0.00    -0.169 F 
HETATM   25  F   UNL     1      40.766 -12.957   6.359  1.00  0.00    -0.169 F 
HETATM   26  F   UNL     1      42.056 -14.573   7.017  1.00  0.00    -0.169 F 
ENDBRANCH   8  23
BRANCH   6  27
HETATM   27  C   UNL     1      43.331 -17.736   4.004  1.00  0.00    -0.035 A 
HETATM   28  C   UNL     1      43.849 -18.587   4.994  1.00  0.00     0.012 A 
HETATM   29  C   UNL     1      44.177 -19.910   4.688  1.00  0.00     0.043 A 
HETATM   30  C   UNL     1      43.987 -20.387   3.397  1.00  0.00     0.116 A 
HETATM   31  F   UNL     1      44.303 -21.656   3.109  1.00  0.00    -0.206 F 
HETATM   32  C   UNL     1      43.477 -19.566   2.400  1.00  0.00     0.043 A 
HETATM   33  C   UNL     1      43.151 -18.244   2.702  1.00  0.00     0.012 A 
ENDBRANCH   6  27
TORSDOF 5
ENDMDL
MODEL 10
REMARK VINA RESULT:      -8.6      5.183      9.505
REMARK  5 active torsions:
REMARK  status: ('A' for Active; 'I' for Inactive)
REMARK    1  A    between atoms: C_3  and  O_4 
REMARK    2  A    between atoms: C_6  and  N_7 
REMARK       I    between atoms: N_7  and  C_8 
REMARK    3  A    between atoms: C_8  and  C_9 
REMARK    4  A    between atoms: C_14  and  C_15 
REMARK    5  A    between atoms: C_23  and  C_24 
ROOT
HETATM    1  C   UNL     1      40.292 -13.548   1.080  1.00  0.00     0.148 A 
HETATM    2  N   UNL     1      40.255 -13.426   2.430  1.00  0.00    -0.165 NA
HETATM    3  N   UNL     1      41.321 -14.144   2.830  1.00  0.00    -0.240 N 
HETATM    4  C   UNL     1      41.952 -14.815   1.823  1.00  0.00     0.123 A 
HETATM    5  N   UNL     1      42.935 -15.700   2.082  1.00  0.00    -0.366 N 
HETATM    6  C   UNL     1      43.272 -16.131   3.437  1.00  0.00     0.118 C 
HETATM    7  C   UNL     1      42.179 -15.733   4.453  1.00  0.00     0.066 C 
HETATM    8  C   UNL     1      41.672 -14.301   4.228  1.00  0.00     0.221 C 
HETATM    9  C   UNL     1      41.360 -14.392   0.665  1.00  0.00     0.089 A 
HETATM   10  H   UNL     1      43.432 -16.177   1.329  1.00  0.00     0.161 HD
ENDROOT
BRANCH   1  11
HETATM   11  C   UNL     1      39.290 -12.909   0.205  1.00  0.00     0.276 C 
HETATM   12  N   UNL     1      38.762 -11.771   0.781  1.00  0.00    -0.322 N 
HETATM   13  H   UNL     1      39.156 -11.564   1.696  1.00  0.00     0.169 HD
HETATM   14  O   UNL     1      38.985 -13.399  -0.876  1.00  0.00    -0.266 OA
BRANCH  12  15
HETATM   15  C   UNL     1      37.751 -10.930   0.287  1.00  0.00     0.037 A 
HETATM   16  C   UNL     1      36.607 -10.581   1.006  1.00  0.00     0.066 A 
HETATM   17  C   UNL     1      35.658  -9.733   0.435  1.00  0.00     0.067 A 
HETATM   18  C   UNL     1      35.831  -9.219  -0.845  1.00  0.00     0.036 A 
HETATM   19  C   UNL     1      36.970  -9.563  -1.568  1.00  0.00     0.005 A 
HETATM   20  C   UNL     1      37.923 -10.418  -1.006  1.00  0.00     0.029 A 
BRANCH  17  21
HETATM   21  O   UNL     1      34.553  -9.427   1.176  1.00  0.00    -0.361 OA
HETATM   22  H   UNL     1      33.805  -9.953   0.854  1.00  0.00     0.217 HD
ENDBRANCH  17  21
ENDBRANCH  12  15
ENDBRANCH   1  11
BRANCH   8  23
HETATM   23  C   UNL     1      42.685 -13.251   4.627  1.00  0.00     0.409 C 
HETATM   24  F   UNL     1      43.394 -12.792   3.574  1.00  0.00    -0.169 F 
HETATM   25  F   UNL     1      42.041 -12.177   5.157  1.00  0.00    -0.169 F 
HETATM   26  F   UNL     1      43.561 -13.673   5.563  1.00  0.00    -0.169 F 
ENDBRANCH   8  23
BRANCH   6  27
HETATM   27  C   UNL     1      43.485 -17.637   3.434  1.00  0.00    -0.035 A 
HETATM   28  C   UNL     1      43.122 -18.406   2.317  1.00  0.00     0.012 A 
HETATM   29  C   UNL     1      43.318 -19.789   2.317  1.00  0.00     0.043 A 
HETATM   30  C   UNL     1      43.878 -20.407   3.428  1.00  0.00     0.116 A 
HETATM   31  F   UNL     1      44.064 -21.732   3.423  1.00  0.00    -0.206 F 
HETATM   32  C   UNL     1      44.245 -19.669   4.546  1.00  0.00     0.043 A 
HETATM   33  C   UNL     1      44.048 -18.289   4.550  1.00  0.00     0.012 A 
ENDBRANCH   6  27
TORSDOF 5
ENDMDL
