MODEL 1
REMARK VINA RESULT:      -9.2      0.000      0.000
REMARK  5 active torsions:
REMARK  status: ('A' for Active; 'I' for Inactive)
REMARK    1  A    between atoms: C_4  and  C_5 
REMARK    2  A    between atoms: C_5  and  N_6 
REMARK    3  A    between atoms: C_7  and  C_8 
REMARK       I    between atoms: C_8  and  N_9 
REMARK    4  A    between atoms: N_9  and  N_10 
REMARK       I    between atoms: N_10  and  C_11 
REMARK    5  A    between atoms: C_11  and  C_12 
ROOT
HETATM    1  N   UNL     1      43.623 -17.041   3.800  1.00  0.00    -0.337 N 
HETATM    2  C   UNL     1      43.290 -16.816   2.468  1.00  0.00     0.106 A 
HETATM    3  C   UNL     1      43.280 -18.066   1.862  1.00  0.00     0.049 A 
HETATM    4  C   UNL     1      43.562 -19.058   2.834  1.00  0.00    -0.007 A 
HETATM    5  C   UNL     1      43.757 -18.401   4.047  1.00  0.00     0.045 A 
HETATM    6  C   UNL     1      43.658 -20.462   2.786  1.00  0.00     0.014 A 
HETATM    7  C   UNL     1      43.946 -21.174   3.955  1.00  0.00     0.001 A 
HETATM    8  C   UNL     1      44.135 -20.504   5.158  1.00  0.00     0.002 A 
HETATM    9  C   UNL     1      44.046 -19.110   5.227  1.00  0.00     0.030 A 
ENDROOT
BRANCH   2  10
HETATM   10  C   UNL     1      42.994 -15.522   1.877  1.00  0.00     0.286 C 
HETATM   11  N   UNL     1      41.824 -15.468   1.146  1.00  0.00    -0.262 N 
HETATM   12  H   UNL     1      41.236 -16.274   0.955  1.00  0.00     0.190 HD
HETATM   13  O   UNL     1      43.693 -14.517   2.016  1.00  0.00    -0.264 OA
BRANCH  11  14
HETATM   14  N   UNL     1      41.404 -14.242   0.619  1.00  0.00    -0.262 N 
HETATM   15  C   UNL     1      40.229 -14.189  -0.098  1.00  0.00     0.286 C 
HETATM   16  O   UNL     1      39.571 -15.202  -0.342  1.00  0.00    -0.264 OA
HETATM   17  H   UNL     1      41.973 -13.430   0.837  1.00  0.00     0.190 HD
BRANCH  15  18
HETATM   18  C   UNL     1      39.825 -12.873  -0.542  1.00  0.00     0.102 A 
HETATM   19  N   UNL     1      38.492 -12.542  -0.685  1.00  0.00    -0.361 N 
HETATM   20  H   UNL     1      37.731 -13.184  -0.498  1.00  0.00     0.165 HD
HETATM   21  C   UNL     1      38.366 -11.248  -1.110  1.00  0.00     0.088 A 
HETATM   22  C   UNL     1      39.631 -10.722  -1.238  1.00  0.00     0.019 A 
HETATM   23  C   UNL     1      40.548 -11.741  -0.883  1.00  0.00     0.036 A 
ENDBRANCH  15  18
ENDBRANCH  11  14
ENDBRANCH   2  10
BRANCH   1  24
HETATM   24  C   UNL     1      43.813 -16.005   4.818  1.00  0.00     0.168 C 
BRANCH  24  25
HETATM   25  C   UNL     1      42.505 -15.447   5.331  1.00  0.00    -0.040 A 
HETATM   26  C   UNL     1      41.539 -16.308   5.874  1.00  0.00     0.009 A 
HETATM   27  C   UNL     1      40.346 -15.803   6.395  1.00  0.00     0.001 A 
HETATM   28  C   UNL     1      40.103 -14.431   6.383  1.00  0.00     0.000 A 
HETATM   29  C   UNL     1      41.052 -13.564   5.848  1.00  0.00     0.001 A 
HETATM   30  C   UNL     1      42.247 -14.066   5.331  1.00  0.00     0.009 A 
ENDBRANCH  24  25
ENDBRANCH   1  24
TORSDOF 5
ENDMDL
MODEL 2
REMARK VINA RESULT:      -8.9      3.987      6.625
REMARK  5 active torsions:
REMARK  status: ('A' for Active; 'I' for Inactive)
REMARK    1  A    between atoms: C_4  and  C_5 
REMARK    2  A    between atoms: C_5  and  N_6 
REMARK    3  A    between atoms: C_7  and  C_8 
REMARK       I    between atoms: C_8  and  N_9 
REMARK    4  A    between atoms: N_9  and  N_10 
REMARK       I    between atoms: N_10  and  C_11 
REMARK    5  A    between atoms: C_11  and  C_12 
ROOT
HETATM    1  N   UNL     1      42.421 -16.043   4.925  1.00  0.00    -0.337 N 
HETATM    2  C   UNL     1      43.336 -15.941   5.968  1.00  0.00     0.106 A 
HETATM    3  C   UNL     1      44.275 -16.942   5.752  1.00  0.00     0.049 A 
HETATM    4  C   UNL     1      43.959 -17.626   4.551  1.00  0.00    -0.007 A 
HETATM    5  C   UNL     1      42.805 -17.038   4.036  1.00  0.00     0.045 A 
HETATM    6  C   UNL     1      44.564 -18.689   3.853  1.00  0.00     0.014 A 
HETATM    7  C   UNL     1      43.998 -19.137   2.656  1.00  0.00     0.001 A 
HETATM    8  C   UNL     1      42.848 -18.540   2.153  1.00  0.00     0.002 A 
HETATM    9  C   UNL     1      42.231 -17.484   2.831  1.00  0.00     0.030 A 
ENDROOT
BRANCH   2  10
HETATM   10  C   UNL     1      43.296 -14.954   7.035  1.00  0.00     0.286 C 
HETATM   11  N   UNL     1      43.642 -13.672   6.657  1.00  0.00    -0.262 N 
HETATM   12  H   UNL     1      43.977 -13.424   5.730  1.00  0.00     0.190 HD
HETATM   13  O   UNL     1      42.959 -15.197   8.195  1.00  0.00    -0.264 OA
BRANCH  11  14
HETATM   14  N   UNL     1      43.541 -12.634   7.590  1.00  0.00    -0.262 N 
HETATM   15  C   UNL     1      44.501 -11.646   7.599  1.00  0.00     0.286 C 
HETATM   16  O   UNL     1      45.478 -11.684   6.850  1.00  0.00    -0.264 OA
HETATM   17  H   UNL     1      42.724 -12.638   8.193  1.00  0.00     0.190 HD
BRANCH  15  18
HETATM   18  C   UNL     1      44.283 -10.570   8.540  1.00  0.00     0.102 A 
HETATM   19  N   UNL     1      43.103 -10.465   9.249  1.00  0.00    -0.361 N 
HETATM   20  H   UNL     1      42.332 -11.116   9.155  1.00  0.00     0.165 HD
HETATM   21  C   UNL     1      43.138  -9.373  10.073  1.00  0.00     0.088 A 
HETATM   22  C   UNL     1      44.359  -8.762   9.909  1.00  0.00     0.019 A 
HETATM   23  C   UNL     1      45.079  -9.510   8.946  1.00  0.00     0.036 A 
ENDBRANCH  15  18
ENDBRANCH  11  14
ENDBRANCH   2  10
BRANCH   1  24
HETATM   24  C   UNL     1      41.216 -15.228   4.766  1.00  0.00     0.168 C 
BRANCH  24  25
HETATM   25  C   UNL     1      41.292 -14.304   3.570  1.00  0.00    -0.040 A 
HETATM   26  C   UNL     1      40.273 -14.321   2.606  1.00  0.00     0.009 A 
HETATM   27  C   UNL     1      40.304 -13.442   1.521  1.00  0.00     0.001 A 
HETATM   28  C   UNL     1      41.351 -12.533   1.387  1.00  0.00     0.000 A 
HETATM   29  C   UNL     1      42.369 -12.504   2.337  1.00  0.00     0.001 A 
HETATM   30  C   UNL     1      42.338 -13.379   3.424  1.00  0.00     0.009 A 
ENDBRANCH  24  25
ENDBRANCH   1  24
TORSDOF 5
ENDMDL
MODEL 3
REMARK VINA RESULT:      -8.8      3.885      7.488
REMARK  5 active torsions:
REMARK  status: ('A' for Active; 'I' for Inactive)
REMARK    1  A    between atoms: C_4  and  C_5 
REMARK    2  A    between atoms: C_5  and  N_6 
REMARK    3  A    between atoms: C_7  and  C_8 
REMARK       I    between atoms: C_8  and  N_9 
REMARK    4  A    between atoms: N_9  and  N_10 
REMARK       I    between atoms: N_10  and  C_11 
REMARK    5  A    between atoms: C_11  and  C_12 
ROOT
HETATM    1  N   UNL     1      41.429 -14.616   3.418  1.00  0.00    -0.337 N 
HETATM    2  C   UNL     1      42.111 -13.463   3.791  1.00  0.00     0.106 A 
HETATM    3  C   UNL     1      42.109 -12.640   2.672  1.00  0.00     0.049 A 
HETATM    4  C   UNL     1      41.386 -13.272   1.630  1.00  0.00    -0.007 A 
HETATM    5  C   UNL     1      40.951 -14.501   2.119  1.00  0.00     0.045 A 
HETATM    6  C   UNL     1      41.055 -12.895   0.313  1.00  0.00     0.014 A 
HETATM    7  C   UNL     1      40.296 -13.761  -0.480  1.00  0.00     0.001 A 
HETATM    8  C   UNL     1      39.868 -14.984   0.023  1.00  0.00     0.002 A 
HETATM    9  C   UNL     1      40.186 -15.377   1.326  1.00  0.00     0.030 A 
ENDROOT
BRANCH   2  10
HETATM   10  C   UNL     1      42.673 -13.201   5.106  1.00  0.00     0.286 C 
HETATM   11  N   UNL     1      42.353 -11.970   5.643  1.00  0.00    -0.262 N 
HETATM   12  H   UNL     1      41.830 -11.253   5.148  1.00  0.00     0.190 HD
HETATM   13  O   UNL     1      43.367 -13.999   5.737  1.00  0.00    -0.264 OA
BRANCH  11  14
HETATM   14  N   UNL     1      42.767 -11.664   6.944  1.00  0.00    -0.262 N 
HETATM   15  C   UNL     1      43.986 -11.049   7.131  1.00  0.00     0.286 C 
HETATM   16  O   UNL     1      44.747 -10.819   6.191  1.00  0.00    -0.264 OA
HETATM   17  H   UNL     1      42.115 -11.873   7.694  1.00  0.00     0.190 HD
BRANCH  15  18
HETATM   18  C   UNL     1      44.306 -10.697   8.497  1.00  0.00     0.102 A 
HETATM   19  N   UNL     1      43.408 -10.914   9.523  1.00  0.00    -0.361 N 
HETATM   20  H   UNL     1      42.489 -11.319   9.388  1.00  0.00     0.165 HD
HETATM   21  C   UNL     1      43.940 -10.504  10.715  1.00  0.00     0.088 A 
HETATM   22  C   UNL     1      45.204 -10.023  10.468  1.00  0.00     0.019 A 
HETATM   23  C   UNL     1      45.436 -10.141   9.076  1.00  0.00     0.036 A 
ENDBRANCH  15  18
ENDBRANCH  11  14
ENDBRANCH   2  10
BRANCH   1  24
HETATM   24  C   UNL     1      41.230 -15.798   4.258  1.00  0.00     0.168 C 
BRANCH  24  25
HETATM   25  C   UNL     1      42.345 -16.810   4.113  1.00  0.00    -0.040 A 
HETATM   26  C   UNL     1      43.013 -17.284   5.252  1.00  0.00     0.009 A 
HETATM   27  C   UNL     1      44.013 -18.253   5.140  1.00  0.00     0.001 A 
HETATM   28  C   UNL     1      44.356 -18.762   3.890  1.00  0.00     0.000 A 
HETATM   29  C   UNL     1      43.700 -18.303   2.750  1.00  0.00     0.001 A 
HETATM   30  C   UNL     1      42.699 -17.337   2.861  1.00  0.00     0.009 A 
ENDBRANCH  24  25
ENDBRANCH   1  24
TORSDOF 5
ENDMDL
MODEL 4
REMARK VINA RESULT:      -8.8      1.730      2.505
REMARK  5 active torsions:
REMARK  status: ('A' for Active; 'I' for Inactive)
REMARK    1  A    between atoms: C_4  and  C_5 
REMARK    2  A    between atoms: C_5  and  N_6 
REMARK    3  A    between atoms: C_7  and  C_8 
REMARK       I    between atoms: C_8  and  N_9 
REMARK    4  A    between atoms: N_9  and  N_10 
REMARK       I    between atoms: N_10  and  C_11 
REMARK    5  A    between atoms: C_11  and  C_12 
ROOT
HETATM    1  N   UNL     1      42.134 -15.772   4.016  1.00  0.00    -0.337 N 
HETATM    2  C   UNL     1      41.954 -15.733   2.637  1.00  0.00     0.106 A 
HETATM    3  C   UNL     1      42.614 -16.847   2.134  1.00  0.00     0.049 A 
HETATM    4  C   UNL     1      43.159 -17.591   3.210  1.00  0.00    -0.007 A 
HETATM    5  C   UNL     1      42.834 -16.914   4.383  1.00  0.00     0.045 A 
HETATM    6  C   UNL     1      43.893 -18.791   3.285  1.00  0.00     0.014 A 
HETATM    7  C   UNL     1      44.282 -19.283   4.535  1.00  0.00     0.001 A 
HETATM    8  C   UNL     1      43.948 -18.597   5.697  1.00  0.00     0.002 A 
HETATM    9  C   UNL     1      43.221 -17.405   5.644  1.00  0.00     0.030 A 
ENDROOT
BRANCH   2  10
HETATM   10  C   UNL     1      41.197 -14.726   1.911  1.00  0.00     0.286 C 
HETATM   11  N   UNL     1      41.549 -14.575   0.584  1.00  0.00    -0.262 N 
HETATM   12  H   UNL     1      42.324 -15.062   0.144  1.00  0.00     0.190 HD
HETATM   13  O   UNL     1      40.287 -14.055   2.399  1.00  0.00    -0.264 OA
BRANCH  11  14
HETATM   14  N   UNL     1      40.814 -13.699  -0.221  1.00  0.00    -0.262 N 
HETATM   15  C   UNL     1      39.695 -14.170  -0.875  1.00  0.00     0.286 C 
HETATM   16  O   UNL     1      39.362 -15.354  -0.818  1.00  0.00    -0.264 OA
HETATM   17  H   UNL     1      41.121 -12.732  -0.247  1.00  0.00     0.190 HD
BRANCH  15  18
HETATM   18  C   UNL     1      38.947 -13.185  -1.624  1.00  0.00     0.102 A 
HETATM   19  N   UNL     1      37.593 -13.330  -1.846  1.00  0.00    -0.361 N 
HETATM   20  H   UNL     1      37.050 -14.117  -1.511  1.00  0.00     0.165 HD
HETATM   21  C   UNL     1      37.114 -12.274  -2.572  1.00  0.00     0.088 A 
HETATM   22  C   UNL     1      38.165 -11.422  -2.820  1.00  0.00     0.019 A 
HETATM   23  C   UNL     1      39.318 -11.993  -2.227  1.00  0.00     0.036 A 
ENDBRANCH  15  18
ENDBRANCH  11  14
ENDBRANCH   2  10
BRANCH   1  24
HETATM   24  C   UNL     1      41.662 -14.764   4.966  1.00  0.00     0.168 C 
BRANCH  24  25
HETATM   25  C   UNL     1      42.706 -13.710   5.263  1.00  0.00    -0.040 A 
HETATM   26  C   UNL     1      42.901 -12.646   4.370  1.00  0.00     0.009 A 
HETATM   27  C   UNL     1      43.828 -11.639   4.653  1.00  0.00     0.001 A 
HETATM   28  C   UNL     1      44.568 -11.682   5.832  1.00  0.00     0.000 A 
HETATM   29  C   UNL     1      44.384 -12.732   6.729  1.00  0.00     0.001 A 
HETATM   30  C   UNL     1      43.456 -13.736   6.450  1.00  0.00     0.009 A 
ENDBRANCH  24  25
ENDBRANCH   1  24
TORSDOF 5
ENDMDL
MODEL 5
REMARK VINA RESULT:      -8.7      2.419      4.959
REMARK  5 active torsions:
REMARK  status: ('A' for Active; 'I' for Inactive)
REMARK    1  A    between atoms: C_4  and  C_5 
REMARK    2  A    between atoms: C_5  and  N_6 
REMARK    3  A    between atoms: C_7  and  C_8 
REMARK       I    between atoms: C_8  and  N_9 
REMARK    4  A    between atoms: N_9  and  N_10 
REMARK       I    between atoms: N_10  and  C_11 
REMARK    5  A    between atoms: C_11  and  C_12 
ROOT
HETATM    1  N   UNL     1      42.025 -13.362   3.969  1.00  0.00    -0.337 N 
HETATM    2  C   UNL     1      41.910 -12.318   3.056  1.00  0.00     0.106 A 
HETATM    3  C   UNL     1      42.759 -11.317   3.513  1.00  0.00     0.049 A 
HETATM    4  C   UNL     1      43.425 -11.768   4.679  1.00  0.00    -0.007 A 
HETATM    5  C   UNL     1      42.968 -13.057   4.941  1.00  0.00     0.045 A 
HETATM    6  C   UNL     1      44.389 -11.190   5.529  1.00  0.00     0.014 A 
HETATM    7  C   UNL     1      44.871 -11.920   6.620  1.00  0.00     0.001 A 
HETATM    8  C   UNL     1      44.406 -13.207   6.868  1.00  0.00     0.002 A 
HETATM    9  C   UNL     1      43.449 -13.798   6.037  1.00  0.00     0.030 A 
ENDROOT
BRANCH   2  10
HETATM   10  C   UNL     1      41.079 -12.325   1.863  1.00  0.00     0.286 C 
HETATM   11  N   UNL     1      41.562 -13.089   0.819  1.00  0.00    -0.262 N 
HETATM   12  H   UNL     1      42.464 -13.558   0.829  1.00  0.00     0.190 HD
HETATM   13  O   UNL     1      40.006 -11.729   1.760  1.00  0.00    -0.264 OA
BRANCH  11  14
HETATM   14  N   UNL     1      40.786 -13.236  -0.335  1.00  0.00    -0.262 N 
HETATM   15  C   UNL     1      39.887 -14.277  -0.409  1.00  0.00     0.286 C 
HETATM   16  O   UNL     1      39.793 -15.118   0.486  1.00  0.00    -0.264 OA
HETATM   17  H   UNL     1      40.894 -12.526  -1.054  1.00  0.00     0.190 HD
BRANCH  15  18
HETATM   18  C   UNL     1      39.069 -14.314  -1.601  1.00  0.00     0.102 A 
HETATM   19  N   UNL     1      37.952 -13.513  -1.730  1.00  0.00    -0.361 N 
HETATM   20  H   UNL     1      37.639 -12.867  -1.015  1.00  0.00     0.165 HD
HETATM   21  C   UNL     1      37.352 -13.725  -2.941  1.00  0.00     0.088 A 
HETATM   22  C   UNL     1      38.089 -14.669  -3.617  1.00  0.00     0.019 A 
HETATM   23  C   UNL     1      39.168 -15.042  -2.777  1.00  0.00     0.036 A 
ENDBRANCH  15  18
ENDBRANCH  11  14
ENDBRANCH   2  10
BRANCH   1  24
HETATM   24  C   UNL     1      41.267 -14.614   3.931  1.00  0.00     0.168 C 
BRANCH  24  25
HETATM   25  C   UNL     1      42.132 -15.808   3.593  1.00  0.00    -0.040 A 
HETATM   26  C   UNL     1      42.449 -16.747   4.586  1.00  0.00     0.009 A 
HETATM   27  C   UNL     1      43.207 -17.879   4.280  1.00  0.00     0.001 A 
HETATM   28  C   UNL     1      43.656 -18.089   2.978  1.00  0.00     0.000 A 
HETATM   29  C   UNL     1      43.349 -17.166   1.982  1.00  0.00     0.001 A 
HETATM   30  C   UNL     1      42.588 -16.036   2.285  1.00  0.00     0.009 A 
ENDBRANCH  24  25
ENDBRANCH   1  24
TORSDOF 5
ENDMDL
MODEL 6
REMARK VINA RESULT:      -8.6      4.051      6.415
REMARK  5 active torsions:
REMARK  status: ('A' for Active; 'I' for Inactive)
REMARK    1  A    between atoms: C_4  and  C_5 
REMARK    2  A    between atoms: C_5  and  N_6 
REMARK    3  A    between atoms: C_7  and  C_8 
REMARK       I    between atoms: C_8  and  N_9 
REMARK    4  A    between atoms: N_9  and  N_10 
REMARK       I    between atoms: N_10  and  C_11 
REMARK    5  A    between atoms: C_11  and  C_12 
ROOT
HETATM    1  N   UNL     1      43.076 -15.667   4.844  1.00  0.00    -0.337 N 
HETATM    2  C   UNL     1      42.649 -15.283   6.111  1.00  0.00     0.106 A 
HETATM    3  C   UNL     1      42.684 -16.433   6.890  1.00  0.00     0.049 A 
HETATM    4  C   UNL     1      43.175 -17.510   6.110  1.00  0.00    -0.007 A 
HETATM    5  C   UNL     1      43.433 -17.009   4.836  1.00  0.00     0.045 A 
HETATM    6  C   UNL     1      43.432 -18.867   6.384  1.00  0.00     0.014 A 
HETATM    7  C   UNL     1      43.943 -19.689   5.374  1.00  0.00     0.001 A 
HETATM    8  C   UNL     1      44.198 -19.174   4.109  1.00  0.00     0.002 A 
HETATM    9  C   UNL     1      43.949 -17.830   3.816  1.00  0.00     0.030 A 
ENDROOT
BRANCH   2  10
HETATM   10  C   UNL     1      42.277 -13.934   6.506  1.00  0.00     0.286 C 
HETATM   11  N   UNL     1      43.277 -13.211   7.125  1.00  0.00    -0.262 N 
HETATM   12  H   UNL     1      44.187 -13.592   7.368  1.00  0.00     0.190 HD
HETATM   13  O   UNL     1      41.173 -13.429   6.299  1.00  0.00    -0.264 OA
BRANCH  11  14
HETATM   14  N   UNL     1      43.046 -11.871   7.455  1.00  0.00    -0.262 N 
HETATM   15  C   UNL     1      44.106 -11.088   7.857  1.00  0.00     0.286 C 
HETATM   16  O   UNL     1      45.239 -11.551   7.993  1.00  0.00    -0.264 OA
HETATM   17  H   UNL     1      42.098 -11.526   7.334  1.00  0.00     0.190 HD
BRANCH  15  18
HETATM   18  C   UNL     1      43.798  -9.697   8.104  1.00  0.00     0.102 A 
HETATM   19  N   UNL     1      42.526  -9.198   7.909  1.00  0.00    -0.361 N 
HETATM   20  H   UNL     1      41.747  -9.758   7.585  1.00  0.00     0.165 HD
HETATM   21  C   UNL     1      42.485  -7.865   8.214  1.00  0.00     0.088 A 
HETATM   22  C   UNL     1      43.743  -7.488   8.622  1.00  0.00     0.019 A 
HETATM   23  C   UNL     1      44.570  -8.637   8.553  1.00  0.00     0.036 A 
ENDBRANCH  15  18
ENDBRANCH  11  14
ENDBRANCH   2  10
BRANCH   1  24
HETATM   24  C   UNL     1      43.147 -14.797   3.669  1.00  0.00     0.168 C 
BRANCH  24  25
HETATM   25  C   UNL     1      42.009 -15.031   2.700  1.00  0.00    -0.040 A 
HETATM   26  C   UNL     1      40.815 -15.614   3.150  1.00  0.00     0.009 A 
HETATM   27  C   UNL     1      39.738 -15.794   2.279  1.00  0.00     0.001 A 
HETATM   28  C   UNL     1      39.841 -15.393   0.948  1.00  0.00     0.000 A 
HETATM   29  C   UNL     1      41.019 -14.813   0.488  1.00  0.00     0.001 A 
HETATM   30  C   UNL     1      42.095 -14.628   1.358  1.00  0.00     0.009 A 
ENDBRANCH  24  25
ENDBRANCH   1  24
TORSDOF 5
ENDMDL
MODEL 7
REMARK VINA RESULT:      -7.8      4.412      7.171
REMARK  5 active torsions:
REMARK  status: ('A' for Active; 'I' for Inactive)
REMARK    1  A    between atoms: C_4  and  C_5 
REMARK    2  A    between atoms: C_5  and  N_6 
REMARK    3  A    between atoms: C_7  and  C_8 
REMARK       I    between atoms: C_8  and  N_9 
REMARK    4  A    between atoms: N_9  and  N_10 
REMARK       I    between atoms: N_10  and  C_11 
REMARK    5  A    between atoms: C_11  and  C_12 
ROOT
HETATM    1  N   UNL     1      42.493 -13.926   3.724  1.00  0.00    -0.337 N 
HETATM    2  C   UNL     1      42.181 -13.976   5.079  1.00  0.00     0.106 A 
HETATM    3  C   UNL     1      42.247 -15.316   5.437  1.00  0.00     0.049 A 
HETATM    4  C   UNL     1      42.645 -16.080   4.311  1.00  0.00    -0.007 A 
HETATM    5  C   UNL     1      42.813 -15.192   3.251  1.00  0.00     0.045 A 
HETATM    6  C   UNL     1      42.887 -17.453   4.108  1.00  0.00     0.014 A 
HETATM    7  C   UNL     1      43.292 -17.901   2.847  1.00  0.00     0.001 A 
HETATM    8  C   UNL     1      43.457 -17.003   1.799  1.00  0.00     0.002 A 
HETATM    9  C   UNL     1      43.221 -15.637   1.980  1.00  0.00     0.030 A 
ENDROOT
BRANCH   2  10
HETATM   10  C   UNL     1      41.878 -12.829   5.919  1.00  0.00     0.286 C 
HETATM   11  N   UNL     1      42.940 -12.353   6.663  1.00  0.00    -0.262 N 
HETATM   12  H   UNL     1      43.853 -12.798   6.697  1.00  0.00     0.190 HD
HETATM   13  O   UNL     1      40.778 -12.278   5.974  1.00  0.00    -0.264 OA
BRANCH  11  14
HETATM   14  N   UNL     1      42.773 -11.195   7.428  1.00  0.00    -0.262 N 
HETATM   15  C   UNL     1      43.846 -10.702   8.139  1.00  0.00     0.286 C 
HETATM   16  O   UNL     1      44.929 -11.288   8.168  1.00  0.00    -0.264 OA
HETATM   17  H   UNL     1      41.866 -10.742   7.383  1.00  0.00     0.190 HD
BRANCH  15  18
HETATM   18  C   UNL     1      43.613  -9.460   8.842  1.00  0.00     0.102 A 
HETATM   19  N   UNL     1      42.707  -9.382   9.880  1.00  0.00    -0.361 N 
HETATM   20  H   UNL     1      42.158 -10.168  10.206  1.00  0.00     0.165 HD
HETATM   21  C   UNL     1      42.669  -8.110  10.384  1.00  0.00     0.088 A 
HETATM   22  C   UNL     1      43.567  -7.349   9.674  1.00  0.00     0.019 A 
HETATM   23  C   UNL     1      44.161  -8.193   8.704  1.00  0.00     0.036 A 
ENDBRANCH  15  18
ENDBRANCH  11  14
ENDBRANCH   2  10
BRANCH   1  24
HETATM   24  C   UNL     1      42.492 -12.722   2.893  1.00  0.00     0.168 C 
BRANCH  24  25
HETATM   25  C   UNL     1      41.229 -12.579   2.074  1.00  0.00    -0.040 A 
HETATM   26  C   UNL     1      40.066 -12.062   2.664  1.00  0.00     0.009 A 
HETATM   27  C   UNL     1      38.904 -11.881   1.910  1.00  0.00     0.001 A 
HETATM   28  C   UNL     1      38.891 -12.212   0.557  1.00  0.00     0.000 A 
HETATM   29  C   UNL     1      40.038 -12.725  -0.043  1.00  0.00     0.001 A 
HETATM   30  C   UNL     1      41.200 -12.903   0.708  1.00  0.00     0.009 A 
ENDBRANCH  24  25
ENDBRANCH   1  24
TORSDOF 5
ENDMDL
MODEL 8
REMARK VINA RESULT:      -7.7      2.245      3.208
REMARK  5 active torsions:
REMARK  status: ('A' for Active; 'I' for Inactive)
REMARK    1  A    between atoms: C_4  and  C_5 
REMARK    2  A    between atoms: C_5  and  N_6 
REMARK    3  A    between atoms: C_7  and  C_8 
REMARK       I    between atoms: C_8  and  N_9 
REMARK    4  A    between atoms: N_9  and  N_10 
REMARK       I    between atoms: N_10  and  C_11 
REMARK    5  A    between atoms: C_11  and  C_12 
ROOT
HETATM    1  N   UNL     1      42.620 -14.919   4.222  1.00  0.00    -0.337 N 
HETATM    2  C   UNL     1      42.323 -15.952   3.338  1.00  0.00     0.106 A 
HETATM    3  C   UNL     1      42.574 -17.130   4.031  1.00  0.00     0.049 A 
HETATM    4  C   UNL     1      42.980 -16.816   5.352  1.00  0.00    -0.007 A 
HETATM    5  C   UNL     1      42.986 -15.427   5.461  1.00  0.00     0.045 A 
HETATM    6  C   UNL     1      43.332 -17.598   6.469  1.00  0.00     0.014 A 
HETATM    7  C   UNL     1      43.682 -16.969   7.668  1.00  0.00     0.001 A 
HETATM    8  C   UNL     1      43.681 -15.582   7.762  1.00  0.00     0.002 A 
HETATM    9  C   UNL     1      43.335 -14.788   6.665  1.00  0.00     0.030 A 
ENDROOT
BRANCH   2  10
HETATM   10  C   UNL     1      41.828 -15.788   1.981  1.00  0.00     0.286 C 
HETATM   11  N   UNL     1      40.462 -15.621   1.875  1.00  0.00    -0.262 N 
HETATM   12  H   UNL     1      39.820 -15.681   2.660  1.00  0.00     0.190 HD
HETATM   13  O   UNL     1      42.543 -15.769   0.978  1.00  0.00    -0.264 OA
BRANCH  11  14
HETATM   14  N   UNL     1      39.902 -15.360   0.620  1.00  0.00    -0.262 N 
HETATM   15  C   UNL     1      39.748 -14.052   0.215  1.00  0.00     0.286 C 
HETATM   16  O   UNL     1      40.031 -13.107   0.952  1.00  0.00    -0.264 OA
HETATM   17  H   UNL     1      39.677 -16.164   0.041  1.00  0.00     0.190 HD
BRANCH  15  18
HETATM   18  C   UNL     1      39.234 -13.868  -1.125  1.00  0.00     0.102 A 
HETATM   19  N   UNL     1      37.967 -13.365  -1.344  1.00  0.00    -0.361 N 
HETATM   20  H   UNL     1      37.330 -13.105  -0.601  1.00  0.00     0.165 HD
HETATM   21  C   UNL     1      37.715 -13.281  -2.686  1.00  0.00     0.088 A 
HETATM   22  C   UNL     1      38.833 -13.723  -3.353  1.00  0.00     0.019 A 
HETATM   23  C   UNL     1      39.788 -14.094  -2.375  1.00  0.00     0.036 A 
ENDBRANCH  15  18
ENDBRANCH  11  14
ENDBRANCH   2  10
BRANCH   1  24
HETATM   24  C   UNL     1      42.563 -13.490   3.911  1.00  0.00     0.168 C 
BRANCH  24  25
HETATM   25  C   UNL     1      41.530 -12.755   4.737  1.00  0.00    -0.040 A 
HETATM   26  C   UNL     1      41.898 -11.613   5.464  1.00  0.00     0.009 A 
HETATM   27  C   UNL     1      40.947 -10.896   6.195  1.00  0.00     0.001 A 
HETATM   28  C   UNL     1      39.616 -11.311   6.205  1.00  0.00     0.000 A 
HETATM   29  C   UNL     1      39.236 -12.441   5.488  1.00  0.00     0.001 A 
HETATM   30  C   UNL     1      40.185 -13.156   4.755  1.00  0.00     0.009 A 
ENDBRANCH  24  25
ENDBRANCH   1  24
TORSDOF 5
ENDMDL
MODEL 9
REMARK VINA RESULT:      -7.6     14.353     16.202
REMARK  5 active torsions:
REMARK  status: ('A' for Active; 'I' for Inactive)
REMARK    1  A    between atoms: C_4  and  C_5 
REMARK    2  A    between atoms: C_5  and  N_6 
REMARK    3  A    between atoms: C_7  and  C_8 
REMARK       I    between atoms: C_8  and  N_9 
REMARK    4  A    between atoms: N_9  and  N_10 
REMARK       I    between atoms: N_10  and  C_11 
REMARK    5  A    between atoms: C_11  and  C_12 
ROOT
HETATM    1  N   UNL     1      45.686 -29.122   1.612  1.00  0.00    -0.337 N 
HETATM    2  C   UNL     1      44.490 -29.833   1.575  1.00  0.00     0.106 A 
HETATM    3  C   UNL     1      44.092 -29.841   0.244  1.00  0.00     0.049 A 
HETATM    4  C   UNL     1      45.068 -29.174  -0.538  1.00  0.00    -0.007 A 
HETATM    5  C   UNL     1      46.069 -28.746   0.332  1.00  0.00     0.045 A 
HETATM    6  C   UNL     1      45.190 -28.909  -1.916  1.00  0.00     0.014 A 
HETATM    7  C   UNL     1      46.312 -28.221  -2.388  1.00  0.00     0.001 A 
HETATM    8  C   UNL     1      47.303 -27.802  -1.509  1.00  0.00     0.002 A 
HETATM    9  C   UNL     1      47.201 -28.054  -0.137  1.00  0.00     0.030 A 
ENDROOT
BRANCH   2  10
HETATM   10  C   UNL     1      43.837 -30.449   2.719  1.00  0.00     0.286 C 
HETATM   11  N   UNL     1      42.675 -29.828   3.132  1.00  0.00    -0.262 N 
HETATM   12  H   UNL     1      42.323 -28.961   2.735  1.00  0.00     0.190 HD
HETATM   13  O   UNL     1      44.243 -31.464   3.288  1.00  0.00    -0.264 OA
BRANCH  11  14
HETATM   14  N   UNL     1      41.924 -30.402   4.163  1.00  0.00    -0.262 N 
HETATM   15  C   UNL     1      40.843 -31.194   3.842  1.00  0.00     0.286 C 
HETATM   16  O   UNL     1      40.483 -31.358   2.675  1.00  0.00    -0.264 OA
HETATM   17  H   UNL     1      42.248 -30.241   5.112  1.00  0.00     0.190 HD
BRANCH  15  18
HETATM   18  C   UNL     1      40.166 -31.812   4.960  1.00  0.00     0.102 A 
HETATM   19  N   UNL     1      38.965 -32.473   4.795  1.00  0.00    -0.361 N 
HETATM   20  H   UNL     1      38.491 -32.561   3.904  1.00  0.00     0.165 HD
HETATM   21  C   UNL     1      38.529 -32.973   5.991  1.00  0.00     0.088 A 
HETATM   22  C   UNL     1      39.459 -32.645   6.949  1.00  0.00     0.019 A 
HETATM   23  C   UNL     1      40.488 -31.914   6.304  1.00  0.00     0.036 A 
ENDBRANCH  15  18
ENDBRANCH  11  14
ENDBRANCH   2  10
BRANCH   1  24
HETATM   24  C   UNL     1      46.450 -28.802   2.819  1.00  0.00     0.168 C 
BRANCH  24  25
HETATM   25  C   UNL     1      47.720 -29.615   2.937  1.00  0.00    -0.040 A 
HETATM   26  C   UNL     1      48.856 -29.056   3.542  1.00  0.00     0.009 A 
HETATM   27  C   UNL     1      50.022 -29.808   3.700  1.00  0.00     0.001 A 
HETATM   28  C   UNL     1      50.067 -31.129   3.258  1.00  0.00     0.000 A 
HETATM   29  C   UNL     1      48.947 -31.697   2.656  1.00  0.00     0.001 A 
HETATM   30  C   UNL     1      47.780 -30.948   2.501  1.00  0.00     0.009 A 
ENDBRANCH  24  25
ENDBRANCH   1  24
TORSDOF 5
ENDMDL
MODEL 10
REMARK VINA RESULT:      -7.6      3.070      5.999
REMARK  5 active torsions:
REMARK  status: ('A' for Active; 'I' for Inactive)
REMARK    1  A    between atoms: C_4  and  C_5 
REMARK    2  A    between atoms: C_5  and  N_6 
REMARK    3  A    between atoms: C_7  and  C_8 
REMARK       I    between atoms: C_8  and  N_9 
REMARK    4  A    between atoms: N_9  and  N_10 
REMARK       I    between atoms: N_10  and  C_11 
REMARK    5  A    between atoms: C_11  and  C_12 
ROOT
HETATM    1  N   UNL     1      40.970 -13.635   1.614  1.00  0.00    -0.337 N 
HETATM    2  C   UNL     1      39.934 -13.399   2.512  1.00  0.00     0.106 A 
HETATM    3  C   UNL     1      39.963 -14.455   3.414  1.00  0.00     0.049 A 
HETATM    4  C   UNL     1      41.045 -15.313   3.094  1.00  0.00    -0.007 A 
HETATM    5  C   UNL     1      41.677 -14.775   1.975  1.00  0.00     0.045 A 
HETATM    6  C   UNL     1      41.547 -16.496   3.669  1.00  0.00     0.014 A 
HETATM    7  C   UNL     1      42.671 -17.111   3.109  1.00  0.00     0.001 A 
HETATM    8  C   UNL     1      43.292 -16.562   1.994  1.00  0.00     0.002 A 
HETATM    9  C   UNL     1      42.809 -15.388   1.407  1.00  0.00     0.030 A 
ENDROOT
BRANCH   2  10
HETATM   10  C   UNL     1      39.042 -12.252   2.491  1.00  0.00     0.286 C 
HETATM   11  N   UNL     1      37.988 -12.348   1.604  1.00  0.00    -0.262 N 
HETATM   12  H   UNL     1      37.865 -13.116   0.950  1.00  0.00     0.190 HD
HETATM   13  O   UNL     1      39.167 -11.260   3.211  1.00  0.00    -0.264 OA
BRANCH  11  14
HETATM   14  N   UNL     1      37.021 -11.337   1.580  1.00  0.00    -0.262 N 
HETATM   15  C   UNL     1      36.842 -10.610   0.423  1.00  0.00     0.286 C 
HETATM   16  O   UNL     1      37.552 -10.783  -0.568  1.00  0.00    -0.264 OA
HETATM   17  H   UNL     1      36.458 -11.221   2.417  1.00  0.00     0.190 HD
BRANCH  15  18
HETATM   18  C   UNL     1      35.773  -9.637   0.455  1.00  0.00     0.102 A 
HETATM   19  N   UNL     1      35.634  -8.758   1.510  1.00  0.00    -0.361 N 
HETATM   20  H   UNL     1      36.253  -8.740   2.311  1.00  0.00     0.165 HD
HETATM   21  C   UNL     1      34.556  -7.939   1.308  1.00  0.00     0.088 A 
HETATM   22  C   UNL     1      33.989  -8.280   0.102  1.00  0.00     0.019 A 
HETATM   23  C   UNL     1      34.750  -9.347  -0.435  1.00  0.00     0.036 A 
ENDBRANCH  15  18
ENDBRANCH  11  14
ENDBRANCH   2  10
BRANCH   1  24
HETATM   24  C   UNL     1      41.290 -12.813   0.446  1.00  0.00     0.168 C 
BRANCH  24  25
HETATM   25  C   UNL     1      40.509 -13.219  -0.784  1.00  0.00    -0.040 A 
HETATM   26  C   UNL     1      39.794 -14.426  -0.793  1.00  0.00     0.009 A 
HETATM   27  C   UNL     1      39.031 -14.794  -1.904  1.00  0.00     0.001 A 
HETATM   28  C   UNL     1      38.970 -13.958  -3.017  1.00  0.00     0.000 A 
HETATM   29  C   UNL     1      39.674 -12.757  -3.022  1.00  0.00     0.001 A 
HETATM   30  C   UNL     1      40.434 -12.387  -1.912  1.00  0.00     0.009 A 
ENDBRANCH  24  25
ENDBRANCH   1  24
TORSDOF 5
ENDMDL
