MODEL 1
REMARK VINA RESULT:      -7.9      0.000      0.000
REMARK  3 active torsions:
REMARK  status: ('A' for Active; 'I' for Inactive)
REMARK    1  A    between atoms: C_7  and  C_8 
REMARK       I    between atoms: C_8  and  N_9 
REMARK    2  A    between atoms: N_9  and  N_10 
REMARK    3  A    between atoms: C_11  and  C_12 
ROOT
HETATM    1  N   UNL     1      41.845 -10.626   1.087  1.00  0.00    -0.184 NA
HETATM    2  C   UNL     1      42.147 -10.953   2.302  1.00  0.00     0.148 C 
ENDROOT
BRANCH   1   3
HETATM    3  N   UNL     1      41.295 -11.577   0.279  1.00  0.00    -0.243 N 
HETATM    4  C   UNL     1      39.916 -11.690   0.127  1.00  0.00     0.280 C 
HETATM    5  O   UNL     1      39.117 -10.979   0.732  1.00  0.00    -0.265 OA
HETATM    6  H   UNL     1      41.895 -12.212  -0.233  1.00  0.00     0.192 HD
BRANCH   4   7
HETATM    7  C   UNL     1      39.496 -12.699  -0.834  1.00  0.00     0.102 A 
HETATM    8  C   UNL     1      39.584 -14.079  -0.726  1.00  0.00     0.056 A 
HETATM    9  C   UNL     1      40.147 -14.855   0.413  1.00  0.00     0.072 C 
HETATM   10  N   UNL     1      39.072 -14.785  -1.806  1.00  0.00    -0.228 NA
HETATM   11  C   UNL     1      38.602 -13.963  -2.708  1.00  0.00     0.165 A 
HETATM   12  N   UNL     1      38.042 -14.377  -3.854  1.00  0.00    -0.378 N 
HETATM   13  S   UNL     1      38.762 -12.300  -2.338  1.00  0.00    -0.045 SA
HETATM   14  H   UNL     1      38.215 -15.348  -4.093  1.00  0.00     0.158 HD
HETATM   15  H   UNL     1      38.042 -13.749  -4.647  1.00  0.00     0.158 HD
ENDBRANCH   4   7
ENDBRANCH   1   3
BRANCH   2  16
HETATM   16  C   UNL     1      42.080 -12.273   2.979  1.00  0.00    -0.014 C 
HETATM   17  C   UNL     1      41.191 -12.381   4.179  1.00  0.00     0.216 C 
HETATM   18  O   UNL     1      41.474 -13.486   5.053  1.00  0.00    -0.344 OA
HETATM   19  C   UNL     1      42.042 -14.599   4.490  1.00  0.00     0.101 A 
HETATM   20  C   UNL     1      42.736 -14.546   3.272  1.00  0.00     0.001 A 
HETATM   21  C   UNL     1      41.966 -15.812   5.190  1.00  0.00     0.069 A 
HETATM   22  C   UNL     1      43.322 -15.705   2.753  1.00  0.00     0.038 A 
HETATM   23  C   UNL     1      42.858 -13.278   2.564  1.00  0.00     0.025 C 
HETATM   24  C   UNL     1      43.217 -16.908   3.450  1.00  0.00     0.036 A 
HETATM   25  C   UNL     1      42.546 -16.968   4.668  1.00  0.00     0.050 A 
HETATM   26 CL   UNL     1      43.927 -18.332   2.797  1.00  0.00    -0.084 Cl
HETATM   27 CL   UNL     1      41.144 -15.922   6.705  1.00  0.00    -0.081 Cl
ENDBRANCH   2  16
TORSDOF 3
ENDMDL
MODEL 2
REMARK VINA RESULT:      -7.6      4.912      7.305
REMARK  3 active torsions:
REMARK  status: ('A' for Active; 'I' for Inactive)
REMARK    1  A    between atoms: C_7  and  C_8 
REMARK       I    between atoms: C_8  and  N_9 
REMARK    2  A    between atoms: N_9  and  N_10 
REMARK    3  A    between atoms: C_11  and  C_12 
ROOT
HETATM    1  N   UNL     1      39.649 -11.171   6.139  1.00  0.00    -0.184 NA
HETATM    2  C   UNL     1      39.544 -11.994   5.146  1.00  0.00     0.148 C 
ENDROOT
BRANCH   1   3
HETATM    3  N   UNL     1      40.802 -11.177   6.867  1.00  0.00    -0.243 N 
HETATM    4  C   UNL     1      41.878 -10.364   6.525  1.00  0.00     0.280 C 
HETATM    5  O   UNL     1      41.875  -9.630   5.540  1.00  0.00    -0.265 OA
HETATM    6  H   UNL     1      40.881 -11.775   7.680  1.00  0.00     0.192 HD
BRANCH   4   7
HETATM    7  C   UNL     1      42.999 -10.428   7.451  1.00  0.00     0.102 A 
HETATM    8  C   UNL     1      43.984 -11.401   7.544  1.00  0.00     0.056 A 
HETATM    9  C   UNL     1      44.115 -12.625   6.709  1.00  0.00     0.072 C 
HETATM   10  N   UNL     1      44.944 -11.171   8.520  1.00  0.00    -0.228 NA
HETATM   11  C   UNL     1      44.698 -10.052   9.149  1.00  0.00     0.165 A 
HETATM   12  N   UNL     1      45.472  -9.584  10.140  1.00  0.00    -0.378 N 
HETATM   13  S   UNL     1      43.296  -9.214   8.635  1.00  0.00    -0.045 SA
HETATM   14  H   UNL     1      46.120 -10.256  10.535  1.00  0.00     0.158 HD
HETATM   15  H   UNL     1      45.062  -8.954  10.817  1.00  0.00     0.158 HD
ENDBRANCH   4   7
ENDBRANCH   1   3
BRANCH   2  16
HETATM   16  C   UNL     1      40.472 -13.062   4.692  1.00  0.00    -0.014 C 
HETATM   17  C   UNL     1      41.110 -12.886   3.349  1.00  0.00     0.216 C 
HETATM   18  O   UNL     1      41.625 -14.088   2.754  1.00  0.00    -0.344 OA
HETATM   19  C   UNL     1      42.028 -15.085   3.605  1.00  0.00     0.101 A 
HETATM   20  C   UNL     1      41.570 -15.165   4.928  1.00  0.00     0.001 A 
HETATM   21  C   UNL     1      42.886 -16.077   3.110  1.00  0.00     0.069 A 
HETATM   22  C   UNL     1      41.990 -16.216   5.749  1.00  0.00     0.038 A 
HETATM   23  C   UNL     1      40.641 -14.161   5.434  1.00  0.00     0.025 C 
HETATM   24  C   UNL     1      42.861 -17.182   5.248  1.00  0.00     0.036 A 
HETATM   25  C   UNL     1      43.309 -17.122   3.931  1.00  0.00     0.050 A 
HETATM   26 CL   UNL     1      43.385 -18.464   6.269  1.00  0.00    -0.084 Cl
HETATM   27 CL   UNL     1      43.459 -16.035   1.481  1.00  0.00    -0.081 Cl
ENDBRANCH   2  16
TORSDOF 3
ENDMDL
MODEL 3
REMARK VINA RESULT:      -7.4      7.348      9.423
REMARK  3 active torsions:
REMARK  status: ('A' for Active; 'I' for Inactive)
REMARK    1  A    between atoms: C_7  and  C_8 
REMARK       I    between atoms: C_8  and  N_9 
REMARK    2  A    between atoms: N_9  and  N_10 
REMARK    3  A    between atoms: C_11  and  C_12 
ROOT
HETATM    1  N   UNL     1      45.953 -10.833   7.676  1.00  0.00    -0.184 NA
HETATM    2  C   UNL     1      46.003  -9.783   8.430  1.00  0.00     0.148 C 
ENDROOT
BRANCH   1   3
HETATM    3  N   UNL     1      44.735 -11.392   7.425  1.00  0.00    -0.243 N 
HETATM    4  C   UNL     1      44.282 -11.589   6.125  1.00  0.00     0.280 C 
HETATM    5  O   UNL     1      44.921 -11.241   5.134  1.00  0.00    -0.265 OA
HETATM    6  H   UNL     1      44.146 -11.683   8.196  1.00  0.00     0.192 HD
BRANCH   4   7
HETATM    7  C   UNL     1      43.001 -12.274   6.029  1.00  0.00     0.102 A 
HETATM    8  C   UNL     1      42.730 -13.621   6.218  1.00  0.00     0.056 A 
HETATM    9  C   UNL     1      43.705 -14.692   6.559  1.00  0.00     0.072 C 
HETATM   10  N   UNL     1      41.394 -13.974   6.082  1.00  0.00    -0.228 NA
HETATM   11  C   UNL     1      40.669 -12.923   5.803  1.00  0.00     0.165 A 
HETATM   12  N   UNL     1      39.341 -12.976   5.624  1.00  0.00    -0.378 N 
HETATM   13  S   UNL     1      41.534 -11.452   5.661  1.00  0.00    -0.045 SA
HETATM   14  H   UNL     1      38.962 -13.906   5.483  1.00  0.00     0.158 HD
HETATM   15  H   UNL     1      38.899 -12.258   5.065  1.00  0.00     0.158 HD
ENDBRANCH   4   7
ENDBRANCH   1   3
BRANCH   2  16
HETATM   16  C   UNL     1      44.921  -9.097   9.182  1.00  0.00    -0.014 C 
HETATM   17  C   UNL     1      44.140  -8.049   8.452  1.00  0.00     0.216 C 
HETATM   18  O   UNL     1      43.433  -7.119   9.288  1.00  0.00    -0.344 OA
HETATM   19  C   UNL     1      43.041  -7.561  10.525  1.00  0.00     0.101 A 
HETATM   20  C   UNL     1      43.653  -8.656  11.152  1.00  0.00     0.001 A 
HETATM   21  C   UNL     1      42.031  -6.857  11.195  1.00  0.00     0.069 A 
HETATM   22  C   UNL     1      43.236  -9.052  12.427  1.00  0.00     0.038 A 
HETATM   23  C   UNL     1      44.736  -9.363  10.479  1.00  0.00     0.025 C 
HETATM   24  C   UNL     1      42.214  -8.355  13.070  1.00  0.00     0.036 A 
HETATM   25  C   UNL     1      41.611  -7.257  12.464  1.00  0.00     0.050 A 
HETATM   26 CL   UNL     1      41.695  -8.858  14.632  1.00  0.00    -0.084 Cl
HETATM   27 CL   UNL     1      41.263  -5.488  10.474  1.00  0.00    -0.081 Cl
ENDBRANCH   2  16
TORSDOF 3
ENDMDL
MODEL 4
REMARK VINA RESULT:      -7.4      5.259      7.856
REMARK  3 active torsions:
REMARK  status: ('A' for Active; 'I' for Inactive)
REMARK    1  A    between atoms: C_7  and  C_8 
REMARK       I    between atoms: C_8  and  N_9 
REMARK    2  A    between atoms: N_9  and  N_10 
REMARK    3  A    between atoms: C_11  and  C_12 
ROOT
HETATM    1  N   UNL     1      40.102 -10.668   6.954  1.00  0.00    -0.184 NA
HETATM    2  C   UNL     1      39.798 -11.728   6.277  1.00  0.00     0.148 C 
ENDROOT
BRANCH   1   3
HETATM    3  N   UNL     1      41.414 -10.304   7.032  1.00  0.00    -0.243 N 
HETATM    4  C   UNL     1      41.899  -9.573   8.111  1.00  0.00     0.280 C 
HETATM    5  O   UNL     1      41.183  -9.178   9.028  1.00  0.00    -0.265 OA
HETATM    6  H   UNL     1      42.057 -10.578   6.300  1.00  0.00     0.192 HD
BRANCH   4   7
HETATM    7  C   UNL     1      43.336  -9.340   8.084  1.00  0.00     0.102 A 
HETATM    8  C   UNL     1      44.034  -8.223   8.520  1.00  0.00     0.056 A 
HETATM    9  C   UNL     1      43.463  -6.985   9.116  1.00  0.00     0.072 C 
HETATM   10  N   UNL     1      45.413  -8.305   8.385  1.00  0.00    -0.228 NA
HETATM   11  C   UNL     1      45.754  -9.455   7.865  1.00  0.00     0.165 A 
HETATM   12  N   UNL     1      47.028  -9.803   7.630  1.00  0.00    -0.378 N 
HETATM   13  S   UNL     1      44.454 -10.501   7.483  1.00  0.00    -0.045 SA
HETATM   14  H   UNL     1      47.695  -9.040   7.654  1.00  0.00     0.158 HD
HETATM   15  H   UNL     1      47.216 -10.496   6.917  1.00  0.00     0.158 HD
ENDBRANCH   4   7
ENDBRANCH   1   3
BRANCH   2  16
HETATM   16  C   UNL     1      40.680 -12.720   5.611  1.00  0.00    -0.014 C 
HETATM   17  C   UNL     1      41.300 -12.316   4.309  1.00  0.00     0.216 C 
HETATM   18  O   UNL     1      41.763 -13.402   3.490  1.00  0.00    -0.344 OA
HETATM   19  C   UNL     1      42.148 -14.551   4.131  1.00  0.00     0.101 A 
HETATM   20  C   UNL     1      41.711 -14.862   5.427  1.00  0.00     0.001 A 
HETATM   21  C   UNL     1      42.963 -15.459   3.440  1.00  0.00     0.069 A 
HETATM   22  C   UNL     1      42.110 -16.059   6.029  1.00  0.00     0.038 A 
HETATM   23  C   UNL     1      40.826 -13.942   6.132  1.00  0.00     0.025 C 
HETATM   24  C   UNL     1      42.939 -16.941   5.337  1.00  0.00     0.036 A 
HETATM   25  C   UNL     1      43.365 -16.650   4.044  1.00  0.00     0.050 A 
HETATM   26 CL   UNL     1      43.438 -18.405   6.091  1.00  0.00    -0.084 Cl
HETATM   27 CL   UNL     1      43.507 -15.132   1.834  1.00  0.00    -0.081 Cl
ENDBRANCH   2  16
TORSDOF 3
ENDMDL
MODEL 5
REMARK VINA RESULT:      -7.3      7.124      9.215
REMARK  3 active torsions:
REMARK  status: ('A' for Active; 'I' for Inactive)
REMARK    1  A    between atoms: C_7  and  C_8 
REMARK       I    between atoms: C_8  and  N_9 
REMARK    2  A    between atoms: N_9  and  N_10 
REMARK    3  A    between atoms: C_11  and  C_12 
ROOT
HETATM    1  N   UNL     1      46.171 -10.850   7.043  1.00  0.00    -0.184 NA
HETATM    2  C   UNL     1      46.364  -9.900   7.900  1.00  0.00     0.148 C 
ENDROOT
BRANCH   1   3
HETATM    3  N   UNL     1      44.923 -11.393   6.949  1.00  0.00    -0.243 N 
HETATM    4  C   UNL     1      44.317 -11.606   5.715  1.00  0.00     0.280 C 
HETATM    5  O   UNL     1      44.840 -11.289   4.650  1.00  0.00    -0.265 OA
HETATM    6  H   UNL     1      44.425 -11.659   7.790  1.00  0.00     0.192 HD
BRANCH   4   7
HETATM    7  C   UNL     1      43.024 -12.269   5.785  1.00  0.00     0.102 A 
HETATM    8  C   UNL     1      42.746 -13.574   6.167  1.00  0.00     0.056 A 
HETATM    9  C   UNL     1      43.725 -14.612   6.589  1.00  0.00     0.072 C 
HETATM   10  N   UNL     1      41.399 -13.913   6.156  1.00  0.00    -0.228 NA
HETATM   11  C   UNL     1      40.674 -12.892   5.781  1.00  0.00     0.165 A 
HETATM   12  N   UNL     1      39.337 -12.940   5.688  1.00  0.00    -0.378 N 
HETATM   13  S   UNL     1      41.549 -11.473   5.395  1.00  0.00    -0.045 SA
HETATM   14  H   UNL     1      38.937 -13.872   5.693  1.00  0.00     0.158 HD
HETATM   15  H   UNL     1      38.872 -12.292   5.064  1.00  0.00     0.158 HD
ENDBRANCH   4   7
ENDBRANCH   1   3
BRANCH   2  16
HETATM   16  C   UNL     1      45.442  -9.328   8.914  1.00  0.00    -0.014 C 
HETATM   17  C   UNL     1      45.346 -10.038  10.229  1.00  0.00     0.216 C 
HETATM   18  O   UNL     1      44.166  -9.749  10.995  1.00  0.00    -0.344 OA
HETATM   19  C   UNL     1      43.582  -8.522  10.808  1.00  0.00     0.101 A 
HETATM   20  C   UNL     1      43.800  -7.763   9.649  1.00  0.00     0.001 A 
HETATM   21  C   UNL     1      42.702  -8.047  11.791  1.00  0.00     0.069 A 
HETATM   22  C   UNL     1      43.160  -6.529   9.493  1.00  0.00     0.038 A 
HETATM   23  C   UNL     1      44.678  -8.275   8.604  1.00  0.00     0.025 C 
HETATM   24  C   UNL     1      42.305  -6.061  10.490  1.00  0.00     0.036 A 
HETATM   25  C   UNL     1      42.069  -6.814  11.636  1.00  0.00     0.050 A 
HETATM   26 CL   UNL     1      41.534  -4.535  10.298  1.00  0.00    -0.084 Cl
HETATM   27 CL   UNL     1      42.383  -8.956  13.224  1.00  0.00    -0.081 Cl
ENDBRANCH   2  16
TORSDOF 3
ENDMDL
MODEL 6
REMARK VINA RESULT:      -7.2      3.769      5.992
REMARK  3 active torsions:
REMARK  status: ('A' for Active; 'I' for Inactive)
REMARK    1  A    between atoms: C_7  and  C_8 
REMARK       I    between atoms: C_8  and  N_9 
REMARK    2  A    between atoms: N_9  and  N_10 
REMARK    3  A    between atoms: C_11  and  C_12 
ROOT
HETATM    1  N   UNL     1      39.798 -13.161   2.733  1.00  0.00    -0.184 NA
HETATM    2  C   UNL     1      39.827 -14.440   2.534  1.00  0.00     0.148 C 
ENDROOT
BRANCH   1   3
HETATM    3  N   UNL     1      40.766 -12.605   3.516  1.00  0.00    -0.243 N 
HETATM    4  C   UNL     1      40.495 -12.188   4.815  1.00  0.00     0.280 C 
HETATM    5  O   UNL     1      39.377 -12.255   5.320  1.00  0.00    -0.265 OA
HETATM    6  H   UNL     1      41.706 -12.500   3.156  1.00  0.00     0.192 HD
BRANCH   4   7
HETATM    7  C   UNL     1      41.655 -11.696   5.544  1.00  0.00     0.102 A 
HETATM    8  C   UNL     1      41.927 -10.398   5.951  1.00  0.00     0.056 A 
HETATM    9  C   UNL     1      41.086  -9.192   5.723  1.00  0.00     0.072 C 
HETATM   10  N   UNL     1      43.113 -10.242   6.656  1.00  0.00    -0.228 NA
HETATM   11  C   UNL     1      43.722 -11.391   6.786  1.00  0.00     0.165 A 
HETATM   12  N   UNL     1      44.889 -11.532   7.432  1.00  0.00    -0.378 N 
HETATM   13  S   UNL     1      42.935 -12.725   6.058  1.00  0.00    -0.045 SA
HETATM   14  H   UNL     1      45.391 -10.668   7.608  1.00  0.00     0.158 HD
HETATM   15  H   UNL     1      45.482 -12.316   7.193  1.00  0.00     0.158 HD
ENDBRANCH   4   7
ENDBRANCH   1   3
BRANCH   2  16
HETATM   16  C   UNL     1      40.724 -15.473   3.111  1.00  0.00    -0.014 C 
HETATM   17  C   UNL     1      40.865 -15.501   4.601  1.00  0.00     0.216 C 
HETATM   18  O   UNL     1      42.033 -16.179   5.093  1.00  0.00    -0.344 OA
HETATM   19  C   UNL     1      42.549 -17.182   4.313  1.00  0.00     0.101 A 
HETATM   20  C   UNL     1      42.284 -17.268   2.939  1.00  0.00     0.001 A 
HETATM   21  C   UNL     1      43.409 -18.114   4.911  1.00  0.00     0.069 A 
HETATM   22  C   UNL     1      42.857 -18.295   2.181  1.00  0.00     0.038 A 
HETATM   23  C   UNL     1      41.428 -16.274   2.304  1.00  0.00     0.025 C 
HETATM   24  C   UNL     1      43.691 -19.228   2.796  1.00  0.00     0.036 A 
HETATM   25  C   UNL     1      43.974 -19.141   4.156  1.00  0.00     0.050 A 
HETATM   26 CL   UNL     1      44.379 -20.497   1.860  1.00  0.00    -0.084 Cl
HETATM   27 CL   UNL     1      43.785 -18.036   6.595  1.00  0.00    -0.081 Cl
ENDBRANCH   2  16
TORSDOF 3
ENDMDL
MODEL 7
REMARK VINA RESULT:      -7.1      6.652      8.976
REMARK  3 active torsions:
REMARK  status: ('A' for Active; 'I' for Inactive)
REMARK    1  A    between atoms: C_7  and  C_8 
REMARK       I    between atoms: C_8  and  N_9 
REMARK    2  A    between atoms: N_9  and  N_10 
REMARK    3  A    between atoms: C_11  and  C_12 
ROOT
HETATM    1  N   UNL     1      44.953 -10.622   9.133  1.00  0.00    -0.184 NA
HETATM    2  C   UNL     1      45.058 -11.119   7.943  1.00  0.00     0.148 C 
ENDROOT
BRANCH   1   3
HETATM    3  N   UNL     1      43.728 -10.632   9.732  1.00  0.00    -0.243 N 
HETATM    4  C   UNL     1      43.173  -9.473  10.267  1.00  0.00     0.280 C 
HETATM    5  O   UNL     1      43.758  -8.393  10.270  1.00  0.00    -0.265 OA
HETATM    6  H   UNL     1      43.199 -11.494   9.783  1.00  0.00     0.192 HD
BRANCH   4   7
HETATM    7  C   UNL     1      41.827  -9.637  10.793  1.00  0.00     0.102 A 
HETATM    8  C   UNL     1      40.618  -9.459  10.135  1.00  0.00     0.056 A 
HETATM    9  C   UNL     1      40.422  -9.045   8.719  1.00  0.00     0.072 C 
HETATM   10  N   UNL     1      39.490  -9.716  10.902  1.00  0.00    -0.228 NA
HETATM   11  C   UNL     1      39.832 -10.083  12.109  1.00  0.00     0.165 A 
HETATM   12  N   UNL     1      38.938 -10.398  13.059  1.00  0.00    -0.378 N 
HETATM   13  S   UNL     1      41.516 -10.124  12.414  1.00  0.00    -0.045 SA
HETATM   14  H   UNL     1      37.986 -10.109  12.867  1.00  0.00     0.158 HD
HETATM   15  H   UNL     1      39.212 -10.309  14.029  1.00  0.00     0.158 HD
ENDBRANCH   4   7
ENDBRANCH   1   3
BRANCH   2  16
HETATM   16  C   UNL     1      44.009 -11.645   7.032  1.00  0.00    -0.014 C 
HETATM   17  C   UNL     1      42.974 -10.676   6.551  1.00  0.00     0.216 C 
HETATM   18  O   UNL     1      41.761 -11.269   6.060  1.00  0.00    -0.344 OA
HETATM   19  C   UNL     1      41.851 -12.531   5.531  1.00  0.00     0.101 A 
HETATM   20  C   UNL     1      42.912 -13.394   5.840  1.00  0.00     0.001 A 
HETATM   21  C   UNL     1      40.817 -12.979   4.697  1.00  0.00     0.069 A 
HETATM   22  C   UNL     1      42.945 -14.682   5.295  1.00  0.00     0.038 A 
HETATM   23  C   UNL     1      43.966 -12.950   6.743  1.00  0.00     0.025 C 
HETATM   24  C   UNL     1      41.920 -15.104   4.449  1.00  0.00     0.036 A 
HETATM   25  C   UNL     1      40.853 -14.261   4.150  1.00  0.00     0.050 A 
HETATM   26 CL   UNL     1      41.975 -16.684   3.771  1.00  0.00    -0.084 Cl
HETATM   27 CL   UNL     1      39.477 -11.961   4.307  1.00  0.00    -0.081 Cl
ENDBRANCH   2  16
TORSDOF 3
ENDMDL
MODEL 8
REMARK VINA RESULT:      -7.1      4.510      6.693
REMARK  3 active torsions:
REMARK  status: ('A' for Active; 'I' for Inactive)
REMARK    1  A    between atoms: C_7  and  C_8 
REMARK       I    between atoms: C_8  and  N_9 
REMARK    2  A    between atoms: N_9  and  N_10 
REMARK    3  A    between atoms: C_11  and  C_12 
ROOT
HETATM    1  N   UNL     1      40.628 -13.753   5.224  1.00  0.00    -0.184 NA
HETATM    2  C   UNL     1      40.367 -12.775   4.417  1.00  0.00     0.148 C 
ENDROOT
BRANCH   1   3
HETATM    3  N   UNL     1      41.209 -14.876   4.714  1.00  0.00    -0.243 N 
HETATM    4  C   UNL     1      42.585 -15.071   4.773  1.00  0.00     0.280 C 
HETATM    5  O   UNL     1      43.358 -14.240   5.245  1.00  0.00    -0.265 OA
HETATM    6  H   UNL     1      40.633 -15.593   4.291  1.00  0.00     0.192 HD
BRANCH   4   7
HETATM    7  C   UNL     1      43.035 -16.357   4.261  1.00  0.00     0.102 A 
HETATM    8  C   UNL     1      43.188 -16.750   2.939  1.00  0.00     0.056 A 
HETATM    9  C   UNL     1      42.915 -15.935   1.724  1.00  0.00     0.072 C 
HETATM   10  N   UNL     1      43.662 -18.043   2.764  1.00  0.00    -0.228 NA
HETATM   11  C   UNL     1      43.868 -18.615   3.921  1.00  0.00     0.165 A 
HETATM   12  N   UNL     1      44.332 -19.867   4.046  1.00  0.00    -0.378 N 
HETATM   13  S   UNL     1      43.488 -17.659   5.290  1.00  0.00    -0.045 SA
HETATM   14  H   UNL     1      44.291 -20.429   3.203  1.00  0.00     0.158 HD
HETATM   15  H   UNL     1      44.125 -20.377   4.895  1.00  0.00     0.158 HD
ENDBRANCH   4   7
ENDBRANCH   1   3
BRANCH   2  16
HETATM   16  C   UNL     1      40.514 -12.692   2.941  1.00  0.00    -0.014 C 
HETATM   17  C   UNL     1      41.427 -11.634   2.404  1.00  0.00     0.216 C 
HETATM   18  O   UNL     1      41.216 -11.286   1.026  1.00  0.00    -0.344 OA
HETATM   19  C   UNL     1      40.697 -12.256   0.208  1.00  0.00     0.101 A 
HETATM   20  C   UNL     1      39.982 -13.352   0.713  1.00  0.00     0.001 A 
HETATM   21  C   UNL     1      40.848 -12.109  -1.179  1.00  0.00     0.069 A 
HETATM   22  C   UNL     1      39.449 -14.302  -0.165  1.00  0.00     0.038 A 
HETATM   23  C   UNL     1      39.783 -13.485   2.151  1.00  0.00     0.025 C 
HETATM   24  C   UNL     1      39.628 -14.152  -1.540  1.00  0.00     0.036 A 
HETATM   25  C   UNL     1      40.320 -13.060  -2.053  1.00  0.00     0.050 A 
HETATM   26 CL   UNL     1      38.982 -15.333  -2.612  1.00  0.00    -0.084 Cl
HETATM   27 CL   UNL     1      41.699 -10.764  -1.850  1.00  0.00    -0.081 Cl
ENDBRANCH   2  16
TORSDOF 3
ENDMDL
MODEL 9
REMARK VINA RESULT:      -7.1     14.022     16.598
REMARK  3 active torsions:
REMARK  status: ('A' for Active; 'I' for Inactive)
REMARK    1  A    between atoms: C_7  and  C_8 
REMARK       I    between atoms: C_8  and  N_9 
REMARK    2  A    between atoms: N_9  and  N_10 
REMARK    3  A    between atoms: C_11  and  C_12 
ROOT
HETATM    1  N   UNL     1      41.349  -4.724  16.610  1.00  0.00    -0.184 NA
HETATM    2  C   UNL     1      41.320  -4.804  15.319  1.00  0.00     0.148 C 
ENDROOT
BRANCH   1   3
HETATM    3  N   UNL     1      41.473  -5.877  17.327  1.00  0.00    -0.243 N 
HETATM    4  C   UNL     1      41.081  -5.947  18.661  1.00  0.00     0.280 C 
HETATM    5  O   UNL     1      40.643  -4.981  19.280  1.00  0.00    -0.265 OA
HETATM    6  H   UNL     1      41.847  -6.708  16.885  1.00  0.00     0.192 HD
BRANCH   4   7
HETATM    7  C   UNL     1      41.200  -7.270  19.256  1.00  0.00     0.102 A 
HETATM    8  C   UNL     1      42.322  -7.862  19.817  1.00  0.00     0.056 A 
HETATM    9  C   UNL     1      43.683  -7.273  19.933  1.00  0.00     0.072 C 
HETATM   10  N   UNL     1      42.116  -9.136  20.330  1.00  0.00    -0.228 NA
HETATM   11  C   UNL     1      40.871  -9.499  20.168  1.00  0.00     0.165 A 
HETATM   12  N   UNL     1      40.395 -10.684  20.577  1.00  0.00    -0.378 N 
HETATM   13  S   UNL     1      39.872  -8.359  19.373  1.00  0.00    -0.045 SA
HETATM   14  H   UNL     1      41.100 -11.377  20.805  1.00  0.00     0.158 HD
HETATM   15  H   UNL     1      39.576 -11.061  20.118  1.00  0.00     0.158 HD
ENDBRANCH   4   7
ENDBRANCH   1   3
BRANCH   2  16
HETATM   16  C   UNL     1      41.307  -6.000  14.438  1.00  0.00    -0.014 C 
HETATM   17  C   UNL     1      39.977  -6.626  14.155  1.00  0.00     0.216 C 
HETATM   18  O   UNL     1      40.027  -7.986  13.694  1.00  0.00    -0.344 OA
HETATM   19  C   UNL     1      41.153  -8.377  13.015  1.00  0.00     0.101 A 
HETATM   20  C   UNL     1      42.371  -7.692  13.138  1.00  0.00     0.001 A 
HETATM   21  C   UNL     1      41.084  -9.528  12.218  1.00  0.00     0.069 A 
HETATM   22  C   UNL     1      43.499  -8.146  12.446  1.00  0.00     0.038 A 
HETATM   23  C   UNL     1      42.459  -6.522  14.003  1.00  0.00     0.025 C 
HETATM   24  C   UNL     1      43.407  -9.279  11.639  1.00  0.00     0.036 A 
HETATM   25  C   UNL     1      42.208  -9.975  11.523  1.00  0.00     0.050 A 
HETATM   26 CL   UNL     1      44.795  -9.822  10.778  1.00  0.00    -0.084 Cl
HETATM   27 CL   UNL     1      39.613 -10.418  12.054  1.00  0.00    -0.081 Cl
ENDBRANCH   2  16
TORSDOF 3
ENDMDL
MODEL 10
REMARK VINA RESULT:      -7.0      7.561     10.046
REMARK  3 active torsions:
REMARK  status: ('A' for Active; 'I' for Inactive)
REMARK    1  A    between atoms: C_7  and  C_8 
REMARK       I    between atoms: C_8  and  N_9 
REMARK    2  A    between atoms: N_9  and  N_10 
REMARK    3  A    between atoms: C_11  and  C_12 
ROOT
HETATM    1  N   UNL     1      44.062  -7.802   9.553  1.00  0.00    -0.184 NA
HETATM    2  C   UNL     1      44.400  -8.404   8.458  1.00  0.00     0.148 C 
ENDROOT
BRANCH   1   3
HETATM    3  N   UNL     1      43.255  -8.462  10.431  1.00  0.00    -0.243 N 
HETATM    4  C   UNL     1      42.025  -7.939  10.818  1.00  0.00     0.280 C 
HETATM    5  O   UNL     1      41.611  -6.848  10.431  1.00  0.00    -0.265 OA
HETATM    6  H   UNL     1      43.543  -9.357  10.807  1.00  0.00     0.192 HD
BRANCH   4   7
HETATM    7  C   UNL     1      41.249  -8.805  11.694  1.00  0.00     0.102 A 
HETATM    8  C   UNL     1      41.394  -8.998  13.060  1.00  0.00     0.056 A 
HETATM    9  C   UNL     1      42.397  -8.358  13.954  1.00  0.00     0.072 C 
HETATM   10  N   UNL     1      40.481  -9.876  13.627  1.00  0.00    -0.228 NA
HETATM   11  C   UNL     1      39.662 -10.335  12.717  1.00  0.00     0.165 A 
HETATM   12  N   UNL     1      38.674 -11.199  12.992  1.00  0.00    -0.378 N 
HETATM   13  S   UNL     1      39.941  -9.768  11.127  1.00  0.00    -0.045 SA
HETATM   14  H   UNL     1      38.742 -11.661  13.892  1.00  0.00     0.158 HD
HETATM   15  H   UNL     1      38.328 -11.791  12.247  1.00  0.00     0.158 HD
ENDBRANCH   4   7
ENDBRANCH   1   3
BRANCH   2  16
HETATM   16  C   UNL     1      43.969  -9.720   7.922  1.00  0.00    -0.014 C 
HETATM   17  C   UNL     1      44.784 -10.916   8.307  1.00  0.00     0.216 C 
HETATM   18  O   UNL     1      44.632 -12.061   7.453  1.00  0.00    -0.344 OA
HETATM   19  C   UNL     1      43.434 -12.201   6.801  1.00  0.00     0.101 A 
HETATM   20  C   UNL     1      42.574 -11.115   6.582  1.00  0.00     0.001 A 
HETATM   21  C   UNL     1      43.094 -13.464   6.296  1.00  0.00     0.069 A 
HETATM   22  C   UNL     1      41.375 -11.304   5.888  1.00  0.00     0.038 A 
HETATM   23  C   UNL     1      42.945  -9.790   7.064  1.00  0.00     0.025 C 
HETATM   24  C   UNL     1      41.041 -12.572   5.412  1.00  0.00     0.036 A 
HETATM   25  C   UNL     1      41.895 -13.652   5.609  1.00  0.00     0.050 A 
HETATM   26 CL   UNL     1      39.557 -12.799   4.572  1.00  0.00    -0.084 Cl
HETATM   27 CL   UNL     1      44.131 -14.827   6.519  1.00  0.00    -0.081 Cl
ENDBRANCH   2  16
TORSDOF 3
ENDMDL
