MODEL 1
REMARK VINA RESULT:      -9.6      0.000      0.000
REMARK  4 active torsions:
REMARK  status: ('A' for Active; 'I' for Inactive)
REMARK    1  A    between atoms: C_5  and  C_6 
REMARK    2  A    between atoms: C_6  and  N_7 
REMARK       I    between atoms: N_7  and  C_8 
REMARK    3  A    between atoms: C_8  and  C_10 
REMARK    4  A    between atoms: C_16  and  C_20 
ROOT
HETATM    1  C   UNL     1      42.641 -13.546   3.250  1.00  0.00     0.059 A 
HETATM    2  C   UNL     1      42.780 -13.336   4.612  1.00  0.00     0.106 A 
HETATM    3  N   UNL     1      43.060 -14.527   5.217  1.00  0.00    -0.364 N 
HETATM    4  H   UNL     1      43.202 -14.657   6.209  1.00  0.00     0.165 HD
HETATM    5  C   UNL     1      43.141 -15.526   4.275  1.00  0.00     0.044 A 
HETATM    6  C   UNL     1      43.414 -16.892   4.445  1.00  0.00     0.042 A 
HETATM    7  C   UNL     1      43.481 -17.709   3.306  1.00  0.00    -0.021 A 
HETATM    8  C   UNL     1      43.285 -17.141   2.043  1.00  0.00     0.013 A 
HETATM    9  C   UNL     1      43.010 -15.773   1.890  1.00  0.00     0.016 A 
HETATM   10  C   UNL     1      42.913 -14.942   3.027  1.00  0.00     0.008 A 
ENDROOT
BRANCH   1  11
HETATM   11  C   UNL     1      42.302 -12.477   2.313  1.00  0.00     0.254 C 
HETATM   12  N   UNL     1      41.381 -12.821   1.352  1.00  0.00    -0.353 N 
HETATM   13  H   UNL     1      40.939 -13.726   1.404  1.00  0.00     0.163 HD
HETATM   14  O   UNL     1      42.763 -11.345   2.419  1.00  0.00    -0.268 OA
BRANCH  12  15
HETATM   15  C   UNL     1      40.907 -11.874   0.376  1.00  0.00     0.161 C 
BRANCH  15  16
HETATM   16  C   UNL     1      40.214 -12.569  -0.768  1.00  0.00    -0.037 A 
HETATM   17  C   UNL     1      39.952 -11.875  -1.962  1.00  0.00     0.012 A 
HETATM   18  C   UNL     1      39.321 -12.513  -3.034  1.00  0.00     0.046 A 
HETATM   19  C   UNL     1      38.958 -13.850  -2.916  1.00  0.00     0.154 A 
HETATM   20  F   UNL     1      38.352 -14.459  -3.944  1.00  0.00    -0.203 F 
HETATM   21  C   UNL     1      39.225 -14.549  -1.746  1.00  0.00     0.155 A 
HETATM   22  C   UNL     1      39.852 -13.920  -0.673  1.00  0.00     0.054 A 
HETATM   23  F   UNL     1      38.882 -15.840  -1.639  1.00  0.00    -0.203 F 
ENDBRANCH  15  16
ENDBRANCH  12  15
ENDBRANCH   1  11
BRANCH   7  24
HETATM   24  C   UNL     1      43.759 -19.129   3.454  1.00  0.00     0.010 A 
HETATM   25  C   UNL     1      43.689 -20.187   2.516  1.00  0.00     0.152 A 
HETATM   26  N   UNL     1      44.009 -21.372   3.045  1.00  0.00    -0.187 NA
HETATM   27  N   UNL     1      44.281 -21.079   4.326  1.00  0.00    -0.289 N 
HETATM   28  H   UNL     1      44.550 -21.836   4.946  1.00  0.00     0.188 HD
HETATM   29  C   UNL     1      44.147 -19.753   4.621  1.00  0.00     0.123 A 
ENDBRANCH   7  24
TORSDOF 4
ENDMDL
MODEL 2
REMARK VINA RESULT:      -9.5      3.523      7.772
REMARK  4 active torsions:
REMARK  status: ('A' for Active; 'I' for Inactive)
REMARK    1  A    between atoms: C_5  and  C_6 
REMARK    2  A    between atoms: C_6  and  N_7 
REMARK       I    between atoms: N_7  and  C_8 
REMARK    3  A    between atoms: C_8  and  C_10 
REMARK    4  A    between atoms: C_16  and  C_20 
ROOT
HETATM    1  C   UNL     1      42.148 -13.342   2.906  1.00  0.00     0.059 A 
HETATM    2  C   UNL     1      42.380 -11.991   2.713  1.00  0.00     0.106 A 
HETATM    3  N   UNL     1      41.784 -11.602   1.549  1.00  0.00    -0.364 N 
HETATM    4  H   UNL     1      41.804 -10.666   1.168  1.00  0.00     0.165 HD
HETATM    5  C   UNL     1      41.131 -12.667   0.975  1.00  0.00     0.044 A 
HETATM    6  C   UNL     1      40.385 -12.722  -0.213  1.00  0.00     0.042 A 
HETATM    7  C   UNL     1      39.776 -13.936  -0.566  1.00  0.00    -0.021 A 
HETATM    8  C   UNL     1      39.921 -15.045   0.273  1.00  0.00     0.013 A 
HETATM    9  C   UNL     1      40.672 -14.975   1.457  1.00  0.00     0.016 A 
HETATM   10  C   UNL     1      41.313 -13.769   1.815  1.00  0.00     0.008 A 
ENDROOT
BRANCH   1  11
HETATM   11  C   UNL     1      42.684 -14.084   4.046  1.00  0.00     0.254 C 
HETATM   12  N   UNL     1      43.081 -15.369   3.764  1.00  0.00    -0.353 N 
HETATM   13  H   UNL     1      43.070 -15.683   2.806  1.00  0.00     0.163 HD
HETATM   14  O   UNL     1      42.820 -13.572   5.153  1.00  0.00    -0.268 OA
BRANCH  12  15
HETATM   15  C   UNL     1      43.668 -16.222   4.766  1.00  0.00     0.161 C 
BRANCH  15  16
HETATM   16  C   UNL     1      43.739 -17.652   4.292  1.00  0.00    -0.037 A 
HETATM   17  C   UNL     1      43.445 -17.968   2.954  1.00  0.00     0.012 A 
HETATM   18  C   UNL     1      43.519 -19.289   2.501  1.00  0.00     0.046 A 
HETATM   19  C   UNL     1      43.898 -20.294   3.383  1.00  0.00     0.154 A 
HETATM   20  F   UNL     1      43.968 -21.559   2.947  1.00  0.00    -0.203 F 
HETATM   21  C   UNL     1      44.205 -19.990   4.704  1.00  0.00     0.155 A 
HETATM   22  C   UNL     1      44.132 -18.678   5.163  1.00  0.00     0.054 A 
HETATM   23  F   UNL     1      44.577 -20.961   5.550  1.00  0.00    -0.203 F 
ENDBRANCH  15  16
ENDBRANCH  12  15
ENDBRANCH   1  11
BRANCH   7  24
HETATM   24  C   UNL     1      39.000 -14.022  -1.794  1.00  0.00     0.010 A 
HETATM   25  C   UNL     1      39.114 -14.898  -2.899  1.00  0.00     0.152 A 
HETATM   26  N   UNL     1      38.215 -14.647  -3.855  1.00  0.00    -0.187 NA
HETATM   27  N   UNL     1      37.523 -13.605  -3.369  1.00  0.00    -0.289 N 
HETATM   28  H   UNL     1      36.771 -13.222  -3.931  1.00  0.00     0.188 HD
HETATM   29  C   UNL     1      37.952 -13.194  -2.140  1.00  0.00     0.123 A 
ENDBRANCH   7  24
TORSDOF 4
ENDMDL
MODEL 3
REMARK VINA RESULT:      -9.1      4.101      6.538
REMARK  4 active torsions:
REMARK  status: ('A' for Active; 'I' for Inactive)
REMARK    1  A    between atoms: C_5  and  C_6 
REMARK    2  A    between atoms: C_6  and  N_7 
REMARK       I    between atoms: N_7  and  C_8 
REMARK    3  A    between atoms: C_8  and  C_10 
REMARK    4  A    between atoms: C_16  and  C_20 
ROOT
HETATM    1  C   UNL     1      42.251 -13.564   2.381  1.00  0.00     0.059 A 
HETATM    2  C   UNL     1      41.719 -13.804   1.125  1.00  0.00     0.106 A 
HETATM    3  N   UNL     1      41.852 -15.130   0.834  1.00  0.00    -0.364 N 
HETATM    4  H   UNL     1      41.552 -15.572  -0.024  1.00  0.00     0.165 HD
HETATM    5  C   UNL     1      42.436 -15.788   1.891  1.00  0.00     0.044 A 
HETATM    6  C   UNL     1      42.754 -17.148   2.031  1.00  0.00     0.042 A 
HETATM    7  C   UNL     1      43.317 -17.584   3.240  1.00  0.00    -0.021 A 
HETATM    8  C   UNL     1      43.538 -16.660   4.266  1.00  0.00     0.013 A 
HETATM    9  C   UNL     1      43.217 -15.302   4.110  1.00  0.00     0.016 A 
HETATM   10  C   UNL     1      42.673 -14.842   2.891  1.00  0.00     0.008 A 
ENDROOT
BRANCH   1  11
HETATM   11  C   UNL     1      42.301 -12.232   2.980  1.00  0.00     0.254 C 
HETATM   12  N   UNL     1      41.846 -12.163   4.275  1.00  0.00    -0.353 N 
HETATM   13  H   UNL     1      41.604 -13.018   4.752  1.00  0.00     0.163 HD
HETATM   14  O   UNL     1      42.769 -11.266   2.386  1.00  0.00    -0.268 OA
BRANCH  12  15
HETATM   15  C   UNL     1      41.865 -10.933   5.025  1.00  0.00     0.161 C 
BRANCH  15  16
HETATM   16  C   UNL     1      43.019 -10.903   5.995  1.00  0.00    -0.037 A 
HETATM   17  C   UNL     1      42.814 -10.495   7.325  1.00  0.00     0.012 A 
HETATM   18  C   UNL     1      43.874 -10.474   8.236  1.00  0.00     0.046 A 
HETATM   19  C   UNL     1      45.140 -10.871   7.821  1.00  0.00     0.154 A 
HETATM   20  F   UNL     1      46.156 -10.848   8.695  1.00  0.00    -0.203 F 
HETATM   21  C   UNL     1      45.351 -11.290   6.513  1.00  0.00     0.155 A 
HETATM   22  C   UNL     1      44.301 -11.311   5.599  1.00  0.00     0.054 A 
HETATM   23  F   UNL     1      46.571 -11.678   6.118  1.00  0.00    -0.203 F 
ENDBRANCH  15  16
ENDBRANCH  12  15
ENDBRANCH   1  11
BRANCH   7  24
HETATM   24  C   UNL     1      43.659 -18.988   3.410  1.00  0.00     0.010 A 
HETATM   25  C   UNL     1      43.586 -20.073   2.504  1.00  0.00     0.152 A 
HETATM   26  N   UNL     1      43.979 -21.229   3.046  1.00  0.00    -0.187 NA
HETATM   27  N   UNL     1      44.303 -20.891   4.303  1.00  0.00    -0.289 N 
HETATM   28  H   UNL     1      44.633 -21.619   4.927  1.00  0.00     0.188 HD
HETATM   29  C   UNL     1      44.130 -19.564   4.571  1.00  0.00     0.123 A 
ENDBRANCH   7  24
TORSDOF 4
ENDMDL
MODEL 4
REMARK VINA RESULT:      -8.8      4.367      8.034
REMARK  4 active torsions:
REMARK  status: ('A' for Active; 'I' for Inactive)
REMARK    1  A    between atoms: C_5  and  C_6 
REMARK    2  A    between atoms: C_6  and  N_7 
REMARK       I    between atoms: N_7  and  C_8 
REMARK    3  A    between atoms: C_8  and  C_10 
REMARK    4  A    between atoms: C_16  and  C_20 
ROOT
HETATM    1  C   UNL     1      42.472 -13.263   3.172  1.00  0.00     0.059 A 
HETATM    2  C   UNL     1      42.337 -12.082   2.460  1.00  0.00     0.106 A 
HETATM    3  N   UNL     1      42.662 -11.036   3.275  1.00  0.00    -0.364 N 
HETATM    4  H   UNL     1      42.641 -10.062   3.008  1.00  0.00     0.165 HD
HETATM    5  C   UNL     1      43.042 -11.502   4.511  1.00  0.00     0.044 A 
HETATM    6  C   UNL     1      43.461 -10.788   5.645  1.00  0.00     0.042 A 
HETATM    7  C   UNL     1      43.839 -11.507   6.789  1.00  0.00    -0.021 A 
HETATM    8  C   UNL     1      43.796 -12.905   6.765  1.00  0.00     0.013 A 
HETATM    9  C   UNL     1      43.372 -13.605   5.624  1.00  0.00     0.016 A 
HETATM   10  C   UNL     1      42.964 -12.897   4.473  1.00  0.00     0.008 A 
ENDROOT
BRANCH   1  11
HETATM   11  C   UNL     1      42.164 -14.572   2.600  1.00  0.00     0.254 C 
HETATM   12  N   UNL     1      43.259 -15.357   2.330  1.00  0.00    -0.353 N 
HETATM   13  H   UNL     1      44.171 -15.036   2.618  1.00  0.00     0.163 HD
HETATM   14  O   UNL     1      41.011 -14.958   2.432  1.00  0.00    -0.268 OA
BRANCH  12  15
HETATM   15  C   UNL     1      43.130 -16.691   1.802  1.00  0.00     0.161 C 
BRANCH  15  16
HETATM   16  C   UNL     1      43.480 -17.726   2.841  1.00  0.00    -0.037 A 
HETATM   17  C   UNL     1      43.704 -17.342   4.174  1.00  0.00     0.012 A 
HETATM   18  C   UNL     1      44.017 -18.294   5.148  1.00  0.00     0.046 A 
HETATM   19  C   UNL     1      44.097 -19.636   4.792  1.00  0.00     0.154 A 
HETATM   20  F   UNL     1      44.399 -20.547   5.726  1.00  0.00    -0.203 F 
HETATM   21  C   UNL     1      43.863 -20.029   3.479  1.00  0.00     0.155 A 
HETATM   22  C   UNL     1      43.553 -19.086   2.503  1.00  0.00     0.054 A 
HETATM   23  F   UNL     1      43.934 -21.323   3.141  1.00  0.00    -0.203 F 
ENDBRANCH  15  16
ENDBRANCH  12  15
ENDBRANCH   1  11
BRANCH   7  24
HETATM   24  C   UNL     1      44.274 -10.791   7.978  1.00  0.00     0.010 A 
HETATM   25  C   UNL     1      43.529 -10.118   8.976  1.00  0.00     0.152 A 
HETATM   26  N   UNL     1      44.300  -9.561   9.913  1.00  0.00    -0.187 NA
HETATM   27  N   UNL     1      45.545  -9.871   9.518  1.00  0.00    -0.289 N 
HETATM   28  H   UNL     1      46.323  -9.545  10.081  1.00  0.00     0.188 HD
HETATM   29  C   UNL     1      45.583 -10.605   8.368  1.00  0.00     0.123 A 
ENDBRANCH   7  24
TORSDOF 4
ENDMDL
MODEL 5
REMARK VINA RESULT:      -8.7      3.652      7.896
REMARK  4 active torsions:
REMARK  status: ('A' for Active; 'I' for Inactive)
REMARK    1  A    between atoms: C_5  and  C_6 
REMARK    2  A    between atoms: C_6  and  N_7 
REMARK       I    between atoms: N_7  and  C_8 
REMARK    3  A    between atoms: C_8  and  C_10 
REMARK    4  A    between atoms: C_16  and  C_20 
ROOT
HETATM    1  C   UNL     1      40.614 -13.951   4.280  1.00  0.00     0.059 A 
HETATM    2  C   UNL     1      40.399 -12.589   4.410  1.00  0.00     0.106 A 
HETATM    3  N   UNL     1      40.102 -12.070   3.184  1.00  0.00    -0.364 N 
HETATM    4  H   UNL     1      39.907 -11.096   2.994  1.00  0.00     0.165 HD
HETATM    5  C   UNL     1      40.085 -13.070   2.240  1.00  0.00     0.044 A 
HETATM    6  C   UNL     1      39.821 -12.994   0.863  1.00  0.00     0.042 A 
HETATM    7  C   UNL     1      39.826 -14.180   0.114  1.00  0.00    -0.021 A 
HETATM    8  C   UNL     1      40.083 -15.396   0.755  1.00  0.00     0.013 A 
HETATM    9  C   UNL     1      40.348 -15.454   2.133  1.00  0.00     0.016 A 
HETATM   10  C   UNL     1      40.372 -14.268   2.898  1.00  0.00     0.008 A 
ENDROOT
BRANCH   1  11
HETATM   11  C   UNL     1      40.990 -14.804   5.405  1.00  0.00     0.254 C 
HETATM   12  N   UNL     1      42.233 -15.382   5.303  1.00  0.00    -0.353 N 
HETATM   13  H   UNL     1      42.829 -15.119   4.534  1.00  0.00     0.163 HD
HETATM   14  O   UNL     1      40.271 -14.943   6.390  1.00  0.00    -0.268 OA
BRANCH  12  15
HETATM   15  C   UNL     1      42.773 -16.219   6.343  1.00  0.00     0.161 C 
BRANCH  15  16
HETATM   16  C   UNL     1      43.267 -17.531   5.787  1.00  0.00    -0.037 A 
HETATM   17  C   UNL     1      43.247 -18.689   6.584  1.00  0.00     0.012 A 
HETATM   18  C   UNL     1      43.691 -19.912   6.075  1.00  0.00     0.046 A 
HETATM   19  C   UNL     1      44.149 -19.982   4.763  1.00  0.00     0.154 A 
HETATM   20  F   UNL     1      44.576 -21.155   4.278  1.00  0.00    -0.203 F 
HETATM   21  C   UNL     1      44.160 -18.846   3.963  1.00  0.00     0.155 A 
HETATM   22  C   UNL     1      43.720 -17.623   4.463  1.00  0.00     0.054 A 
HETATM   23  F   UNL     1      44.594 -18.919   2.697  1.00  0.00    -0.203 F 
ENDBRANCH  15  16
ENDBRANCH  12  15
ENDBRANCH   1  11
BRANCH   7  24
HETATM   24  C   UNL     1      39.559 -14.130  -1.316  1.00  0.00     0.010 A 
HETATM   25  C   UNL     1      39.941 -13.181  -2.294  1.00  0.00     0.152 A 
HETATM   26  N   UNL     1      39.482 -13.479  -3.513  1.00  0.00    -0.187 NA
HETATM   27  N   UNL     1      38.800 -14.618  -3.321  1.00  0.00    -0.289 N 
HETATM   28  H   UNL     1      38.345 -15.047  -4.119  1.00  0.00     0.188 HD
HETATM   29  C   UNL     1      38.816 -15.049  -2.026  1.00  0.00     0.123 A 
ENDBRANCH   7  24
TORSDOF 4
ENDMDL
MODEL 6
REMARK VINA RESULT:      -8.7      4.555      6.788
REMARK  4 active torsions:
REMARK  status: ('A' for Active; 'I' for Inactive)
REMARK    1  A    between atoms: C_5  and  C_6 
REMARK    2  A    between atoms: C_6  and  N_7 
REMARK       I    between atoms: N_7  and  C_8 
REMARK    3  A    between atoms: C_8  and  C_10 
REMARK    4  A    between atoms: C_16  and  C_20 
ROOT
HETATM    1  C   UNL     1      42.264 -13.353   2.410  1.00  0.00     0.059 A 
HETATM    2  C   UNL     1      41.735 -13.579   1.150  1.00  0.00     0.106 A 
HETATM    3  N   UNL     1      41.850 -14.906   0.855  1.00  0.00    -0.364 N 
HETATM    4  H   UNL     1      41.548 -15.340  -0.007  1.00  0.00     0.165 HD
HETATM    5  C   UNL     1      42.421 -15.577   1.911  1.00  0.00     0.044 A 
HETATM    6  C   UNL     1      42.719 -16.942   2.046  1.00  0.00     0.042 A 
HETATM    7  C   UNL     1      43.271 -17.391   3.256  1.00  0.00    -0.021 A 
HETATM    8  C   UNL     1      43.500 -16.474   4.287  1.00  0.00     0.013 A 
HETATM    9  C   UNL     1      43.199 -15.112   4.135  1.00  0.00     0.016 A 
HETATM   10  C   UNL     1      42.667 -14.638   2.916  1.00  0.00     0.008 A 
ENDROOT
BRANCH   1  11
HETATM   11  C   UNL     1      42.330 -12.024   3.015  1.00  0.00     0.254 C 
HETATM   12  N   UNL     1      41.858 -11.951   4.304  1.00  0.00    -0.353 N 
HETATM   13  H   UNL     1      41.592 -12.803   4.773  1.00  0.00     0.163 HD
HETATM   14  O   UNL     1      42.825 -11.064   2.432  1.00  0.00    -0.268 OA
BRANCH  12  15
HETATM   15  C   UNL     1      41.888 -10.725   5.059  1.00  0.00     0.161 C 
BRANCH  15  16
HETATM   16  C   UNL     1      42.979 -10.751   6.099  1.00  0.00    -0.037 A 
HETATM   17  C   UNL     1      44.077 -11.616   5.950  1.00  0.00     0.012 A 
HETATM   18  C   UNL     1      45.100 -11.640   6.902  1.00  0.00     0.046 A 
HETATM   19  C   UNL     1      45.033 -10.790   8.000  1.00  0.00     0.154 A 
HETATM   20  F   UNL     1      46.014 -10.816   8.912  1.00  0.00    -0.203 F 
HETATM   21  C   UNL     1      43.959  -9.920   8.150  1.00  0.00     0.155 A 
HETATM   22  C   UNL     1      42.935  -9.892   7.207  1.00  0.00     0.054 A 
HETATM   23  F   UNL     1      43.901  -9.098   9.206  1.00  0.00    -0.203 F 
ENDBRANCH  15  16
ENDBRANCH  12  15
ENDBRANCH   1  11
BRANCH   7  24
HETATM   24  C   UNL     1      43.592 -18.800   3.421  1.00  0.00     0.010 A 
HETATM   25  C   UNL     1      44.074 -19.513   4.545  1.00  0.00     0.152 A 
HETATM   26  N   UNL     1      44.265 -20.811   4.294  1.00  0.00    -0.187 NA
HETATM   27  N   UNL     1      43.910 -20.936   3.006  1.00  0.00    -0.289 N 
HETATM   28  H   UNL     1      43.976 -21.852   2.576  1.00  0.00     0.188 HD
HETATM   29  C   UNL     1      43.500 -19.764   2.439  1.00  0.00     0.123 A 
ENDBRANCH   7  24
TORSDOF 4
ENDMDL
MODEL 7
REMARK VINA RESULT:      -8.3      1.622      2.116
REMARK  4 active torsions:
REMARK  status: ('A' for Active; 'I' for Inactive)
REMARK    1  A    between atoms: C_5  and  C_6 
REMARK    2  A    between atoms: C_6  and  N_7 
REMARK       I    between atoms: N_7  and  C_8 
REMARK    3  A    between atoms: C_8  and  C_10 
REMARK    4  A    between atoms: C_16  and  C_20 
ROOT
HETATM    1  C   UNL     1      42.775 -13.678   4.696  1.00  0.00     0.059 A 
HETATM    2  C   UNL     1      43.207 -13.720   6.012  1.00  0.00     0.106 A 
HETATM    3  N   UNL     1      43.576 -14.998   6.314  1.00  0.00    -0.364 N 
HETATM    4  H   UNL     1      43.924 -15.308   7.212  1.00  0.00     0.165 HD
HETATM    5  C   UNL     1      43.427 -15.806   5.211  1.00  0.00     0.044 A 
HETATM    6  C   UNL     1      43.693 -17.177   5.066  1.00  0.00     0.042 A 
HETATM    7  C   UNL     1      43.493 -17.769   3.809  1.00  0.00    -0.021 A 
HETATM    8  C   UNL     1      43.047 -16.981   2.743  1.00  0.00     0.013 A 
HETATM    9  C   UNL     1      42.784 -15.611   2.906  1.00  0.00     0.016 A 
HETATM   10  C   UNL     1      42.954 -15.005   4.169  1.00  0.00     0.008 A 
ENDROOT
BRANCH   1  11
HETATM   11  C   UNL     1      42.272 -12.459   4.066  1.00  0.00     0.254 C 
HETATM   12  N   UNL     1      42.417 -12.413   2.700  1.00  0.00    -0.353 N 
HETATM   13  H   UNL     1      42.761 -13.230   2.219  1.00  0.00     0.163 HD
HETATM   14  O   UNL     1      41.711 -11.575   4.706  1.00  0.00    -0.268 OA
BRANCH  12  15
HETATM   15  C   UNL     1      41.939 -11.300   1.920  1.00  0.00     0.161 C 
BRANCH  15  16
HETATM   16  C   UNL     1      40.842 -11.726   0.977  1.00  0.00    -0.037 A 
HETATM   17  C   UNL     1      40.933 -12.951   0.293  1.00  0.00     0.012 A 
HETATM   18  C   UNL     1      39.917 -13.361  -0.575  1.00  0.00     0.046 A 
HETATM   19  C   UNL     1      38.801 -12.551  -0.752  1.00  0.00     0.154 A 
HETATM   20  F   UNL     1      37.828 -12.945  -1.585  1.00  0.00    -0.203 F 
HETATM   21  C   UNL     1      38.693 -11.345  -0.069  1.00  0.00     0.155 A 
HETATM   22  C   UNL     1      39.702 -10.929   0.795  1.00  0.00     0.054 A 
HETATM   23  F   UNL     1      37.613 -10.570  -0.237  1.00  0.00    -0.203 F 
ENDBRANCH  15  16
ENDBRANCH  12  15
ENDBRANCH   1  11
BRANCH   7  24
HETATM   24  C   UNL     1      43.757 -19.188   3.632  1.00  0.00     0.010 A 
HETATM   25  C   UNL     1      43.634 -20.016   2.491  1.00  0.00     0.152 A 
HETATM   26  N   UNL     1      43.959 -21.289   2.734  1.00  0.00    -0.187 NA
HETATM   27  N   UNL     1      44.288 -21.284   4.035  1.00  0.00    -0.289 N 
HETATM   28  H   UNL     1      44.572 -22.158   4.463  1.00  0.00     0.188 HD
HETATM   29  C   UNL     1      44.184 -20.053   4.617  1.00  0.00     0.123 A 
ENDBRANCH   7  24
TORSDOF 4
ENDMDL
MODEL 8
REMARK VINA RESULT:      -8.3      3.161      5.763
REMARK  4 active torsions:
REMARK  status: ('A' for Active; 'I' for Inactive)
REMARK    1  A    between atoms: C_5  and  C_6 
REMARK    2  A    between atoms: C_6  and  N_7 
REMARK       I    between atoms: N_7  and  C_8 
REMARK    3  A    between atoms: C_8  and  C_10 
REMARK    4  A    between atoms: C_16  and  C_20 
ROOT
HETATM    1  C   UNL     1      42.157 -15.921   4.356  1.00  0.00     0.059 A 
HETATM    2  C   UNL     1      42.244 -16.737   5.472  1.00  0.00     0.106 A 
HETATM    3  N   UNL     1      42.878 -16.055   6.470  1.00  0.00    -0.364 N 
HETATM    4  H   UNL     1      43.078 -16.421   7.390  1.00  0.00     0.165 HD
HETATM    5  C   UNL     1      43.189 -14.783   6.048  1.00  0.00     0.044 A 
HETATM    6  C   UNL     1      43.830 -13.745   6.740  1.00  0.00     0.042 A 
HETATM    7  C   UNL     1      43.997 -12.510   6.094  1.00  0.00    -0.021 A 
HETATM    8  C   UNL     1      43.515 -12.349   4.791  1.00  0.00     0.013 A 
HETATM    9  C   UNL     1      42.878 -13.399   4.111  1.00  0.00     0.016 A 
HETATM   10  C   UNL     1      42.725 -14.654   4.736  1.00  0.00     0.008 A 
ENDROOT
BRANCH   1  11
HETATM   11  C   UNL     1      41.564 -16.363   3.096  1.00  0.00     0.254 C 
HETATM   12  N   UNL     1      40.541 -15.572   2.630  1.00  0.00    -0.353 N 
HETATM   13  H   UNL     1      40.330 -14.714   3.115  1.00  0.00     0.163 HD
HETATM   14  O   UNL     1      41.992 -17.332   2.476  1.00  0.00    -0.268 OA
BRANCH  12  15
HETATM   15  C   UNL     1      39.875 -15.844   1.382  1.00  0.00     0.161 C 
BRANCH  15  16
HETATM   16  C   UNL     1      40.090 -14.726   0.393  1.00  0.00    -0.037 A 
HETATM   17  C   UNL     1      39.622 -14.849  -0.927  1.00  0.00     0.012 A 
HETATM   18  C   UNL     1      39.805 -13.814  -1.848  1.00  0.00     0.046 A 
HETATM   19  C   UNL     1      40.449 -12.649  -1.448  1.00  0.00     0.154 A 
HETATM   20  F   UNL     1      40.625 -11.658  -2.333  1.00  0.00    -0.203 F 
HETATM   21  C   UNL     1      40.903 -12.510  -0.142  1.00  0.00     0.155 A 
HETATM   22  C   UNL     1      40.726 -13.538   0.781  1.00  0.00     0.054 A 
HETATM   23  F   UNL     1      41.516 -11.382   0.243  1.00  0.00    -0.203 F 
ENDBRANCH  15  16
ENDBRANCH  12  15
ENDBRANCH   1  11
BRANCH   7  24
HETATM   24  C   UNL     1      44.662 -11.418   6.788  1.00  0.00     0.010 A 
HETATM   25  C   UNL     1      44.140 -10.397   7.617  1.00  0.00     0.152 A 
HETATM   26  N   UNL     1      45.081  -9.557   8.060  1.00  0.00    -0.187 NA
HETATM   27  N   UNL     1      46.209 -10.035   7.514  1.00  0.00    -0.289 N 
HETATM   28  H   UNL     1      47.079  -9.550   7.706  1.00  0.00     0.188 HD
HETATM   29  C   UNL     1      46.013 -11.146   6.745  1.00  0.00     0.123 A 
ENDBRANCH   7  24
TORSDOF 4
ENDMDL
MODEL 9
REMARK VINA RESULT:      -8.1      5.128      7.551
REMARK  4 active torsions:
REMARK  status: ('A' for Active; 'I' for Inactive)
REMARK    1  A    between atoms: C_5  and  C_6 
REMARK    2  A    between atoms: C_6  and  N_7 
REMARK       I    between atoms: N_7  and  C_8 
REMARK    3  A    between atoms: C_8  and  C_10 
REMARK    4  A    between atoms: C_16  and  C_20 
ROOT
HETATM    1  C   UNL     1      40.220 -12.832   5.159  1.00  0.00     0.059 A 
HETATM    2  C   UNL     1      39.346 -12.839   4.085  1.00  0.00     0.106 A 
HETATM    3  N   UNL     1      39.641 -13.902   3.282  1.00  0.00    -0.364 N 
HETATM    4  H   UNL     1      39.160 -14.137   2.425  1.00  0.00     0.165 HD
HETATM    5  C   UNL     1      40.680 -14.625   3.820  1.00  0.00     0.044 A 
HETATM    6  C   UNL     1      41.301 -15.789   3.340  1.00  0.00     0.042 A 
HETATM    7  C   UNL     1      42.327 -16.365   4.104  1.00  0.00    -0.021 A 
HETATM    8  C   UNL     1      42.695 -15.773   5.316  1.00  0.00     0.013 A 
HETATM    9  C   UNL     1      42.066 -14.607   5.781  1.00  0.00     0.016 A 
HETATM   10  C   UNL     1      41.048 -14.000   5.014  1.00  0.00     0.008 A 
ENDROOT
BRANCH   1  11
HETATM   11  C   UNL     1      40.198 -11.799   6.192  1.00  0.00     0.254 C 
HETATM   12  N   UNL     1      41.372 -11.100   6.336  1.00  0.00    -0.353 N 
HETATM   13  H   UNL     1      42.122 -11.269   5.683  1.00  0.00     0.163 HD
HETATM   14  O   UNL     1      39.186 -11.540   6.837  1.00  0.00    -0.268 OA
BRANCH  12  15
HETATM   15  C   UNL     1      41.507 -10.021   7.282  1.00  0.00     0.161 C 
BRANCH  15  16
HETATM   16  C   UNL     1      42.956  -9.751   7.598  1.00  0.00    -0.037 A 
HETATM   17  C   UNL     1      43.323  -8.580   8.284  1.00  0.00     0.012 A 
HETATM   18  C   UNL     1      44.662  -8.325   8.594  1.00  0.00     0.046 A 
HETATM   19  C   UNL     1      45.637  -9.246   8.226  1.00  0.00     0.154 A 
HETATM   20  F   UNL     1      46.920  -8.999   8.522  1.00  0.00    -0.203 F 
HETATM   21  C   UNL     1      45.283 -10.413   7.561  1.00  0.00     0.155 A 
HETATM   22  C   UNL     1      43.952 -10.674   7.247  1.00  0.00     0.054 A 
HETATM   23  F   UNL     1      46.224 -11.302   7.214  1.00  0.00    -0.203 F 
ENDBRANCH  15  16
ENDBRANCH  12  15
ENDBRANCH   1  11
BRANCH   7  24
HETATM   24  C   UNL     1      42.990 -17.569   3.628  1.00  0.00     0.010 A 
HETATM   25  C   UNL     1      43.927 -18.420   4.260  1.00  0.00     0.152 A 
HETATM   26  N   UNL     1      44.322 -19.430   3.479  1.00  0.00    -0.187 NA
HETATM   27  N   UNL     1      43.642 -19.229   2.340  1.00  0.00    -0.289 N 
HETATM   28  H   UNL     1      43.782 -19.879   1.575  1.00  0.00     0.188 HD
HETATM   29  C   UNL     1      42.832 -18.130   2.378  1.00  0.00     0.123 A 
ENDBRANCH   7  24
TORSDOF 4
ENDMDL
MODEL 10
REMARK VINA RESULT:      -8.1      7.267     10.153
REMARK  4 active torsions:
REMARK  status: ('A' for Active; 'I' for Inactive)
REMARK    1  A    between atoms: C_5  and  C_6 
REMARK    2  A    between atoms: C_6  and  N_7 
REMARK       I    between atoms: N_7  and  C_8 
REMARK    3  A    between atoms: C_8  and  C_10 
REMARK    4  A    between atoms: C_16  and  C_20 
ROOT
HETATM    1  C   UNL     1      43.566 -11.204   7.413  1.00  0.00     0.059 A 
HETATM    2  C   UNL     1      42.802 -10.263   6.743  1.00  0.00     0.106 A 
HETATM    3  N   UNL     1      42.233 -10.852   5.651  1.00  0.00    -0.364 N 
HETATM    4  H   UNL     1      41.631 -10.387   4.986  1.00  0.00     0.165 HD
HETATM    5  C   UNL     1      42.581 -12.181   5.598  1.00  0.00     0.044 A 
HETATM    6  C   UNL     1      42.221 -13.161   4.660  1.00  0.00     0.042 A 
HETATM    7  C   UNL     1      42.681 -14.473   4.851  1.00  0.00    -0.021 A 
HETATM    8  C   UNL     1      43.472 -14.767   5.966  1.00  0.00     0.013 A 
HETATM    9  C   UNL     1      43.826 -13.774   6.894  1.00  0.00     0.016 A 
HETATM   10  C   UNL     1      43.393 -12.444   6.704  1.00  0.00     0.008 A 
ENDROOT
BRANCH   1  11
HETATM   11  C   UNL     1      44.342 -10.888   8.610  1.00  0.00     0.254 C 
HETATM   12  N   UNL     1      43.592 -10.601   9.726  1.00  0.00    -0.353 N 
HETATM   13  H   UNL     1      42.591 -10.713   9.681  1.00  0.00     0.163 HD
HETATM   14  O   UNL     1      45.568 -10.936   8.626  1.00  0.00    -0.268 OA
BRANCH  12  15
HETATM   15  C   UNL     1      44.200 -10.307  10.998  1.00  0.00     0.161 C 
BRANCH  15  16
HETATM   16  C   UNL     1      43.220  -9.642  11.931  1.00  0.00    -0.037 A 
HETATM   17  C   UNL     1      43.451  -8.329  12.379  1.00  0.00     0.012 A 
HETATM   18  C   UNL     1      42.543  -7.698  13.235  1.00  0.00     0.046 A 
HETATM   19  C   UNL     1      41.397  -8.375  13.636  1.00  0.00     0.154 A 
HETATM   20  F   UNL     1      40.529  -7.769  14.457  1.00  0.00    -0.203 F 
HETATM   21  C   UNL     1      41.152  -9.668  13.188  1.00  0.00     0.155 A 
HETATM   22  C   UNL     1      42.053 -10.304  12.337  1.00  0.00     0.054 A 
HETATM   23  F   UNL     1      40.043 -10.315  13.570  1.00  0.00    -0.203 F 
ENDBRANCH  15  16
ENDBRANCH  12  15
ENDBRANCH   1  11
BRANCH   7  24
HETATM   24  C   UNL     1      42.325 -15.508   3.892  1.00  0.00     0.010 A 
HETATM   25  C   UNL     1      43.015 -16.679   3.497  1.00  0.00     0.152 A 
HETATM   26  N   UNL     1      42.361 -17.377   2.564  1.00  0.00    -0.187 NA
HETATM   27  N   UNL     1      41.251 -16.654   2.353  1.00  0.00    -0.289 N 
HETATM   28  H   UNL     1      40.584 -16.987   1.666  1.00  0.00     0.188 HD
HETATM   29  C   UNL     1      41.181 -15.528   3.122  1.00  0.00     0.123 A 
ENDBRANCH   7  24
TORSDOF 4
ENDMDL
