MODEL 1
REMARK VINA RESULT:     -10.6      0.000      0.000
REMARK  4 active torsions:
REMARK  status: ('A' for Active; 'I' for Inactive)
REMARK    1  A    between atoms: C_2  and  C_3 
REMARK    2  A    between atoms: N_16  and  C_17 
REMARK    3  A    between atoms: C_17  and  C_18 
REMARK       I    between atoms: C_18  and  N_19 
REMARK    4  A    between atoms: N_19  and  C_20 
ROOT
HETATM    1  C   UNL     1      43.919 -13.893   6.595  1.00  0.00     0.054 C 
HETATM    2  C   UNL     1      42.759 -14.086   5.618  1.00  0.00     0.140 C 
HETATM    3  N   UNL     1      41.509 -14.062   6.350  1.00  0.00    -0.321 N 
HETATM    4  C   UNL     1      40.621 -13.147   5.838  1.00  0.00     0.326 C 
HETATM    5  O   UNL     1      39.451 -13.085   6.171  1.00  0.00    -0.247 OA
HETATM    6  N   UNL     1      41.264 -12.386   4.915  1.00  0.00    -0.259 N 
HETATM    7  C   UNL     1      42.551 -12.815   4.754  1.00  0.00     0.261 C 
HETATM    8  O   UNL     1      43.383 -12.299   4.018  1.00  0.00    -0.270 OA
HETATM    9  H   UNL     1      41.193 -14.786   6.981  1.00  0.00     0.165 HD
ENDROOT
BRANCH   6  10
HETATM   10  C   UNL     1      40.612 -11.369   4.120  1.00  0.00     0.240 C 
BRANCH  10  11
HETATM   11  C   UNL     1      39.960 -11.941   2.864  1.00  0.00     0.240 C 
HETATM   12  N   UNL     1      40.851 -12.374   1.902  1.00  0.00    -0.324 N 
HETATM   13  H   UNL     1      41.834 -12.477   2.156  1.00  0.00     0.169 HD
HETATM   14  O   UNL     1      38.741 -12.102   2.823  1.00  0.00    -0.271 OA
BRANCH  12  15
HETATM   15  C   UNL     1      40.527 -12.958   0.649  1.00  0.00     0.064 A 
HETATM   16  C   UNL     1      40.679 -12.145  -0.485  1.00  0.00     0.093 A 
HETATM   17  C   UNL     1      40.391 -12.701  -1.753  1.00  0.00    -0.005 A 
HETATM   18  N   UNL     1      41.112 -10.869  -0.353  1.00  0.00    -0.258 NA
HETATM   19  C   UNL     1      40.575 -11.902  -2.889  1.00  0.00     0.015 A 
HETATM   20  C   UNL     1      39.940 -14.025  -1.865  1.00  0.00     0.014 A 
HETATM   21  C   UNL     1      41.032 -10.598  -2.750  1.00  0.00     0.020 A 
HETATM   22  C   UNL     1      41.283 -10.132  -1.473  1.00  0.00     0.117 A 
HETATM   23  C   UNL     1      39.775 -14.807  -0.729  1.00  0.00     0.003 A 
HETATM   24  C   UNL     1      40.068 -14.276   0.526  1.00  0.00     0.032 A 
ENDBRANCH  12  15
ENDBRANCH  10  11
ENDBRANCH   6  10
BRANCH   2  25
HETATM   25  C   UNL     1      42.887 -15.326   4.728  1.00  0.00    -0.020 A 
HETATM   26  C   UNL     1      43.427 -16.539   5.206  1.00  0.00     0.022 A 
HETATM   27  C   UNL     1      43.520 -17.689   4.400  1.00  0.00    -0.025 A 
HETATM   28  C   UNL     1      43.057 -17.638   3.070  1.00  0.00    -0.026 A 
HETATM   29  C   UNL     1      44.059 -18.890   4.893  1.00  0.00     0.012 A 
HETATM   30  C   UNL     1      42.506 -16.443   2.588  1.00  0.00     0.013 A 
HETATM   31  C   UNL     1      43.149 -18.786   2.263  1.00  0.00     0.012 A 
HETATM   32  C   UNL     1      42.415 -15.311   3.405  1.00  0.00     0.011 A 
HETATM   33  C   UNL     1      43.689 -19.970   2.768  1.00  0.00     0.001 A 
HETATM   34  C   UNL     1      44.143 -20.023   4.082  1.00  0.00     0.001 A 
ENDBRANCH   2  25
TORSDOF 4
ENDMDL
MODEL 2
REMARK VINA RESULT:     -10.4      3.304      7.223
REMARK  4 active torsions:
REMARK  status: ('A' for Active; 'I' for Inactive)
REMARK    1  A    between atoms: C_2  and  C_3 
REMARK    2  A    between atoms: N_16  and  C_17 
REMARK    3  A    between atoms: C_17  and  C_18 
REMARK       I    between atoms: C_18  and  N_19 
REMARK    4  A    between atoms: N_19  and  C_20 
ROOT
HETATM    1  C   UNL     1      41.477 -14.535   1.132  1.00  0.00     0.054 C 
HETATM    2  C   UNL     1      42.205 -14.352   2.464  1.00  0.00     0.140 C 
HETATM    3  N   UNL     1      43.276 -13.390   2.297  1.00  0.00    -0.321 N 
HETATM    4  C   UNL     1      43.207 -12.368   3.211  1.00  0.00     0.326 C 
HETATM    5  O   UNL     1      44.096 -11.553   3.379  1.00  0.00    -0.247 OA
HETATM    6  N   UNL     1      42.025 -12.457   3.876  1.00  0.00    -0.259 N 
HETATM    7  C   UNL     1      41.328 -13.558   3.466  1.00  0.00     0.261 C 
HETATM    8  O   UNL     1      40.213 -13.877   3.859  1.00  0.00    -0.270 OA
HETATM    9  H   UNL     1      44.124 -13.554   1.772  1.00  0.00     0.165 HD
ENDROOT
BRANCH   6  10
HETATM   10  C   UNL     1      41.651 -11.583   4.966  1.00  0.00     0.240 C 
BRANCH  10  11
HETATM   11  C   UNL     1      42.615 -11.674   6.144  1.00  0.00     0.240 C 
HETATM   12  N   UNL     1      42.987 -10.455   6.675  1.00  0.00    -0.324 N 
HETATM   13  H   UNL     1      42.464  -9.622   6.404  1.00  0.00     0.169 HD
HETATM   14  O   UNL     1      42.898 -12.772   6.624  1.00  0.00    -0.271 OA
BRANCH  12  15
HETATM   15  C   UNL     1      43.857 -10.242   7.778  1.00  0.00     0.064 A 
HETATM   16  C   UNL     1      43.284  -9.695   8.937  1.00  0.00     0.093 A 
HETATM   17  C   UNL     1      44.114  -9.492  10.064  1.00  0.00    -0.005 A 
HETATM   18  N   UNL     1      41.964  -9.394   8.966  1.00  0.00    -0.258 NA
HETATM   19  C   UNL     1      43.537  -8.978  11.233  1.00  0.00     0.015 A 
HETATM   20  C   UNL     1      45.480  -9.808  10.010  1.00  0.00     0.014 A 
HETATM   21  C   UNL     1      42.180  -8.684  11.263  1.00  0.00     0.020 A 
HETATM   22  C   UNL     1      41.445  -8.906  10.115  1.00  0.00     0.117 A 
HETATM   23  C   UNL     1      46.033 -10.328   8.846  1.00  0.00     0.003 A 
HETATM   24  C   UNL     1      45.224 -10.545   7.732  1.00  0.00     0.032 A 
ENDBRANCH  12  15
ENDBRANCH  10  11
ENDBRANCH   6  10
BRANCH   2  25
HETATM   25  C   UNL     1      42.694 -15.660   3.097  1.00  0.00    -0.020 A 
HETATM   26  C   UNL     1      42.715 -16.876   2.381  1.00  0.00     0.022 A 
HETATM   27  C   UNL     1      43.190 -18.073   2.949  1.00  0.00    -0.025 A 
HETATM   28  C   UNL     1      43.665 -18.066   4.276  1.00  0.00    -0.026 A 
HETATM   29  C   UNL     1      43.206 -19.275   2.221  1.00  0.00     0.012 A 
HETATM   30  C   UNL     1      43.662 -16.862   4.992  1.00  0.00     0.013 A 
HETATM   31  C   UNL     1      44.140 -19.261   4.844  1.00  0.00     0.012 A 
HETATM   32  C   UNL     1      43.193 -15.679   4.409  1.00  0.00     0.011 A 
HETATM   33  C   UNL     1      44.147 -20.447   4.109  1.00  0.00     0.001 A 
HETATM   34  C   UNL     1      43.682 -20.454   2.797  1.00  0.00     0.001 A 
ENDBRANCH   2  25
TORSDOF 4
ENDMDL
MODEL 3
REMARK VINA RESULT:     -10.1      4.276      8.060
REMARK  4 active torsions:
REMARK  status: ('A' for Active; 'I' for Inactive)
REMARK    1  A    between atoms: C_2  and  C_3 
REMARK    2  A    between atoms: N_16  and  C_17 
REMARK    3  A    between atoms: C_17  and  C_18 
REMARK       I    between atoms: C_18  and  N_19 
REMARK    4  A    between atoms: N_19  and  C_20 
ROOT
HETATM    1  C   UNL     1      41.320 -13.302   6.034  1.00  0.00     0.054 C 
HETATM    2  C   UNL     1      42.781 -13.502   5.629  1.00  0.00     0.140 C 
HETATM    3  N   UNL     1      43.110 -12.586   4.556  1.00  0.00    -0.321 N 
HETATM    4  C   UNL     1      44.220 -11.828   4.839  1.00  0.00     0.326 C 
HETATM    5  O   UNL     1      44.786 -11.130   4.017  1.00  0.00    -0.247 OA
HETATM    6  N   UNL     1      44.560 -12.022   6.140  1.00  0.00    -0.259 N 
HETATM    7  C   UNL     1      43.735 -12.945   6.717  1.00  0.00     0.261 C 
HETATM    8  O   UNL     1      43.775 -13.296   7.890  1.00  0.00    -0.270 OA
HETATM    9  H   UNL     1      42.762 -12.654   3.609  1.00  0.00     0.165 HD
ENDROOT
BRANCH   6  10
HETATM   10  C   UNL     1      45.729 -11.436   6.759  1.00  0.00     0.240 C 
BRANCH  10  11
HETATM   11  C   UNL     1      45.404 -10.158   7.525  1.00  0.00     0.240 C 
HETATM   12  N   UNL     1      44.118 -10.100   8.024  1.00  0.00    -0.324 N 
HETATM   13  H   UNL     1      43.557 -10.952   8.034  1.00  0.00     0.169 HD
HETATM   14  O   UNL     1      46.293  -9.341   7.763  1.00  0.00    -0.271 OA
BRANCH  12  15
HETATM   15  C   UNL     1      43.550  -9.042   8.783  1.00  0.00     0.064 A 
HETATM   16  C   UNL     1      43.282  -9.309  10.135  1.00  0.00     0.093 A 
HETATM   17  C   UNL     1      42.741  -8.271  10.929  1.00  0.00    -0.005 A 
HETATM   18  N   UNL     1      43.561 -10.528  10.656  1.00  0.00    -0.258 NA
HETATM   19  C   UNL     1      42.505  -8.524  12.286  1.00  0.00     0.015 A 
HETATM   20  C   UNL     1      42.458  -7.017  10.367  1.00  0.00     0.014 A 
HETATM   21  C   UNL     1      42.805  -9.771  12.820  1.00  0.00     0.020 A 
HETATM   22  C   UNL     1      43.324 -10.730  11.971  1.00  0.00     0.117 A 
HETATM   23  C   UNL     1      42.710  -6.779   9.021  1.00  0.00     0.003 A 
HETATM   24  C   UNL     1      43.255  -7.789   8.231  1.00  0.00     0.032 A 
ENDBRANCH  12  15
ENDBRANCH  10  11
ENDBRANCH   6  10
BRANCH   2  25
HETATM   25  C   UNL     1      43.144 -14.951   5.286  1.00  0.00    -0.020 A 
HETATM   26  C   UNL     1      42.764 -15.550   4.066  1.00  0.00     0.022 A 
HETATM   27  C   UNL     1      43.120 -16.871   3.736  1.00  0.00    -0.025 A 
HETATM   28  C   UNL     1      43.884 -17.628   4.646  1.00  0.00    -0.026 A 
HETATM   29  C   UNL     1      42.735 -17.451   2.515  1.00  0.00     0.012 A 
HETATM   30  C   UNL     1      44.279 -17.039   5.855  1.00  0.00     0.013 A 
HETATM   31  C   UNL     1      44.241 -18.947   4.317  1.00  0.00     0.012 A 
HETATM   32  C   UNL     1      43.923 -15.722   6.165  1.00  0.00     0.011 A 
HETATM   33  C   UNL     1      43.849 -19.510   3.102  1.00  0.00     0.001 A 
HETATM   34  C   UNL     1      43.097 -18.762   2.200  1.00  0.00     0.001 A 
ENDBRANCH   2  25
TORSDOF 4
ENDMDL
MODEL 4
REMARK VINA RESULT:     -10.1      1.537      2.000
REMARK  4 active torsions:
REMARK  status: ('A' for Active; 'I' for Inactive)
REMARK    1  A    between atoms: C_2  and  C_3 
REMARK    2  A    between atoms: N_16  and  C_17 
REMARK    3  A    between atoms: C_17  and  C_18 
REMARK       I    between atoms: C_18  and  N_19 
REMARK    4  A    between atoms: N_19  and  C_20 
ROOT
HETATM    1  C   UNL     1      44.073 -13.100   6.825  1.00  0.00     0.054 C 
HETATM    2  C   UNL     1      42.975 -13.721   5.960  1.00  0.00     0.140 C 
HETATM    3  N   UNL     1      41.715 -13.665   6.672  1.00  0.00    -0.321 N 
HETATM    4  C   UNL     1      40.724 -13.066   5.934  1.00  0.00     0.326 C 
HETATM    5  O   UNL     1      39.548 -13.074   6.252  1.00  0.00    -0.247 OA
HETATM    6  N   UNL     1      41.280 -12.516   4.823  1.00  0.00    -0.259 N 
HETATM    7  C   UNL     1      42.618 -12.789   4.773  1.00  0.00     0.261 C 
HETATM    8  O   UNL     1      43.390 -12.393   3.909  1.00  0.00    -0.270 OA
HETATM    9  H   UNL     1      41.486 -14.217   7.488  1.00  0.00     0.165 HD
ENDROOT
BRANCH   6  10
HETATM   10  C   UNL     1      40.515 -11.868   3.781  1.00  0.00     0.240 C 
BRANCH  10  11
HETATM   11  C   UNL     1      40.025 -12.850   2.721  1.00  0.00     0.240 C 
HETATM   12  N   UNL     1      39.948 -12.325   1.446  1.00  0.00    -0.324 N 
HETATM   13  H   UNL     1      40.395 -11.428   1.257  1.00  0.00     0.169 HD
HETATM   14  O   UNL     1      39.858 -14.034   3.010  1.00  0.00    -0.271 OA
BRANCH  12  15
HETATM   15  C   UNL     1      39.540 -13.012   0.271  1.00  0.00     0.064 A 
HETATM   16  C   UNL     1      38.635 -12.343  -0.569  1.00  0.00     0.093 A 
HETATM   17  C   UNL     1      38.226 -12.985  -1.761  1.00  0.00    -0.005 A 
HETATM   18  N   UNL     1      38.190 -11.107  -0.240  1.00  0.00    -0.258 NA
HETATM   19  C   UNL     1      37.350 -12.305  -2.616  1.00  0.00     0.015 A 
HETATM   20  C   UNL     1      38.698 -14.268  -2.078  1.00  0.00     0.014 A 
HETATM   21  C   UNL     1      36.907 -11.032  -2.283  1.00  0.00     0.020 A 
HETATM   22  C   UNL     1      37.350 -10.483  -1.096  1.00  0.00     0.117 A 
HETATM   23  C   UNL     1      39.577 -14.922  -1.223  1.00  0.00     0.003 A 
HETATM   24  C   UNL     1      39.998 -14.296  -0.051  1.00  0.00     0.032 A 
ENDBRANCH  12  15
ENDBRANCH  10  11
ENDBRANCH   6  10
BRANCH   2  25
HETATM   25  C   UNL     1      43.296 -15.133   5.458  1.00  0.00    -0.020 A 
HETATM   26  C   UNL     1      42.781 -15.629   4.241  1.00  0.00     0.022 A 
HETATM   27  C   UNL     1      43.096 -16.916   3.763  1.00  0.00    -0.025 A 
HETATM   28  C   UNL     1      43.955 -17.740   4.516  1.00  0.00    -0.026 A 
HETATM   29  C   UNL     1      42.576 -17.393   2.547  1.00  0.00     0.012 A 
HETATM   30  C   UNL     1      44.483 -17.253   5.718  1.00  0.00     0.013 A 
HETATM   31  C   UNL     1      44.270 -19.025   4.038  1.00  0.00     0.012 A 
HETATM   32  C   UNL     1      44.166 -15.969   6.176  1.00  0.00     0.011 A 
HETATM   33  C   UNL     1      43.745 -19.485   2.831  1.00  0.00     0.001 A 
HETATM   34  C   UNL     1      42.899 -18.670   2.084  1.00  0.00     0.001 A 
ENDBRANCH   2  25
TORSDOF 4
ENDMDL
MODEL 5
REMARK VINA RESULT:     -10.1      1.323      2.513
REMARK  4 active torsions:
REMARK  status: ('A' for Active; 'I' for Inactive)
REMARK    1  A    between atoms: C_2  and  C_3 
REMARK    2  A    between atoms: N_16  and  C_17 
REMARK    3  A    between atoms: C_17  and  C_18 
REMARK       I    between atoms: C_18  and  N_19 
REMARK    4  A    between atoms: N_19  and  C_20 
ROOT
HETATM    1  C   UNL     1      42.841 -15.326   7.925  1.00  0.00     0.054 C 
HETATM    2  C   UNL     1      42.503 -14.851   6.511  1.00  0.00     0.140 C 
HETATM    3  N   UNL     1      41.135 -14.375   6.481  1.00  0.00    -0.321 N 
HETATM    4  C   UNL     1      41.036 -13.103   5.974  1.00  0.00     0.326 C 
HETATM    5  O   UNL     1      39.978 -12.574   5.683  1.00  0.00    -0.247 OA
HETATM    6  N   UNL     1      42.287 -12.588   5.842  1.00  0.00    -0.259 N 
HETATM    7  C   UNL     1      43.225 -13.516   6.193  1.00  0.00     0.261 C 
HETATM    8  O   UNL     1      44.436 -13.328   6.211  1.00  0.00    -0.270 OA
HETATM    9  H   UNL     1      40.316 -14.963   6.558  1.00  0.00     0.165 HD
ENDROOT
BRANCH   6  10
HETATM   10  C   UNL     1      42.563 -11.291   5.265  1.00  0.00     0.240 C 
BRANCH  10  11
HETATM   11  C   UNL     1      42.695 -11.345   3.746  1.00  0.00     0.240 C 
HETATM   12  N   UNL     1      41.505 -11.192   3.061  1.00  0.00    -0.324 N 
HETATM   13  H   UNL     1      40.685 -10.861   3.571  1.00  0.00     0.169 HD
HETATM   14  O   UNL     1      43.810 -11.386   3.226  1.00  0.00    -0.271 OA
BRANCH  12  15
HETATM   15  C   UNL     1      41.334 -11.186   1.651  1.00  0.00     0.064 A 
HETATM   16  C   UNL     1      40.902 -12.386   1.063  1.00  0.00     0.093 A 
HETATM   17  C   UNL     1      40.695 -12.410  -0.336  1.00  0.00    -0.005 A 
HETATM   18  N   UNL     1      40.673 -13.476   1.832  1.00  0.00    -0.258 NA
HETATM   19  C   UNL     1      40.231 -13.596  -0.920  1.00  0.00     0.015 A 
HETATM   20  C   UNL     1      40.942 -11.268  -1.114  1.00  0.00     0.014 A 
HETATM   21  C   UNL     1      39.984 -14.708  -0.126  1.00  0.00     0.020 A 
HETATM   22  C   UNL     1      40.220 -14.599   1.231  1.00  0.00     0.117 A 
HETATM   23  C   UNL     1      41.391 -10.097  -0.515  1.00  0.00     0.003 A 
HETATM   24  C   UNL     1      41.586 -10.056   0.864  1.00  0.00     0.032 A 
ENDBRANCH  12  15
ENDBRANCH  10  11
ENDBRANCH   6  10
BRANCH   2  25
HETATM   25  C   UNL     1      42.782 -15.888   5.417  1.00  0.00    -0.020 A 
HETATM   26  C   UNL     1      43.215 -17.196   5.719  1.00  0.00     0.022 A 
HETATM   27  C   UNL     1      43.445 -18.160   4.718  1.00  0.00    -0.025 A 
HETATM   28  C   UNL     1      43.234 -17.816   3.368  1.00  0.00    -0.026 A 
HETATM   29  C   UNL     1      43.874 -19.460   5.036  1.00  0.00     0.012 A 
HETATM   30  C   UNL     1      42.791 -16.523   3.058  1.00  0.00     0.013 A 
HETATM   31  C   UNL     1      43.463 -18.777   2.368  1.00  0.00     0.012 A 
HETATM   32  C   UNL     1      42.561 -15.580   4.065  1.00  0.00     0.011 A 
HETATM   33  C   UNL     1      43.891 -20.063   2.700  1.00  0.00     0.001 A 
HETATM   34  C   UNL     1      44.096 -20.405   4.034  1.00  0.00     0.001 A 
ENDBRANCH   2  25
TORSDOF 4
ENDMDL
MODEL 6
REMARK VINA RESULT:     -10.1      1.123      1.903
REMARK  4 active torsions:
REMARK  status: ('A' for Active; 'I' for Inactive)
REMARK    1  A    between atoms: C_2  and  C_3 
REMARK    2  A    between atoms: N_16  and  C_17 
REMARK    3  A    between atoms: C_17  and  C_18 
REMARK       I    between atoms: C_18  and  N_19 
REMARK    4  A    between atoms: N_19  and  C_20 
ROOT
HETATM    1  C   UNL     1      44.466 -11.967   6.925  1.00  0.00     0.054 C 
HETATM    2  C   UNL     1      43.319 -12.422   6.023  1.00  0.00     0.140 C 
HETATM    3  N   UNL     1      42.056 -12.127   6.669  1.00  0.00    -0.321 N 
HETATM    4  C   UNL     1      41.217 -11.394   5.866  1.00  0.00     0.326 C 
HETATM    5  O   UNL     1      40.044 -11.191   6.125  1.00  0.00    -0.247 OA
HETATM    6  N   UNL     1      41.909 -10.987   4.770  1.00  0.00    -0.259 N 
HETATM    7  C   UNL     1      43.180 -11.486   4.795  1.00  0.00     0.261 C 
HETATM    8  O   UNL     1      44.047 -11.257   3.961  1.00  0.00    -0.270 OA
HETATM    9  H   UNL     1      41.698 -12.603   7.487  1.00  0.00     0.165 HD
ENDROOT
BRANCH   6  10
HETATM   10  C   UNL     1      41.314 -10.255   3.674  1.00  0.00     0.240 C 
BRANCH  10  11
HETATM   11  C   UNL     1      40.511 -11.155   2.740  1.00  0.00     0.240 C 
HETATM   12  N   UNL     1      41.276 -11.910   1.873  1.00  0.00    -0.324 N 
HETATM   13  H   UNL     1      42.281 -11.979   2.039  1.00  0.00     0.169 HD
HETATM   14  O   UNL     1      39.293 -11.259   2.884  1.00  0.00    -0.271 OA
BRANCH  12  15
HETATM   15  C   UNL     1      40.798 -12.839   0.911  1.00  0.00     0.064 A 
HETATM   16  C   UNL     1      40.780 -12.410  -0.426  1.00  0.00     0.093 A 
HETATM   17  C   UNL     1      40.334 -13.316  -1.416  1.00  0.00    -0.005 A 
HETATM   18  N   UNL     1      41.202 -11.163  -0.745  1.00  0.00    -0.258 NA
HETATM   19  C   UNL     1      40.348 -12.901  -2.754  1.00  0.00     0.015 A 
HETATM   20  C   UNL     1      39.898 -14.602  -1.061  1.00  0.00     0.014 A 
HETATM   21  C   UNL     1      40.794 -11.627  -3.078  1.00  0.00     0.020 A 
HETATM   22  C   UNL     1      41.205 -10.803  -2.048  1.00  0.00     0.117 A 
HETATM   23  C   UNL     1      39.903 -15.001   0.270  1.00  0.00     0.003 A 
HETATM   24  C   UNL     1      40.352 -14.122   1.254  1.00  0.00     0.032 A 
ENDBRANCH  12  15
ENDBRANCH  10  11
ENDBRANCH   6  10
BRANCH   2  25
HETATM   25  C   UNL     1      43.414 -13.885   5.576  1.00  0.00    -0.020 A 
HETATM   26  C   UNL     1      43.098 -14.288   4.261  1.00  0.00     0.022 A 
HETATM   27  C   UNL     1      43.211 -15.626   3.838  1.00  0.00    -0.025 A 
HETATM   28  C   UNL     1      43.657 -16.602   4.752  1.00  0.00    -0.026 A 
HETATM   29  C   UNL     1      42.896 -16.009   2.524  1.00  0.00     0.012 A 
HETATM   30  C   UNL     1      43.986 -16.212   6.057  1.00  0.00     0.013 A 
HETATM   31  C   UNL     1      43.770 -17.939   4.331  1.00  0.00     0.012 A 
HETATM   32  C   UNL     1      43.874 -14.876   6.458  1.00  0.00     0.011 A 
HETATM   33  C   UNL     1      43.451 -18.304   3.022  1.00  0.00     0.001 A 
HETATM   34  C   UNL     1      43.015 -17.340   2.118  1.00  0.00     0.001 A 
ENDBRANCH   2  25
TORSDOF 4
ENDMDL
MODEL 7
REMARK VINA RESULT:      -9.9      3.736      7.288
REMARK  4 active torsions:
REMARK  status: ('A' for Active; 'I' for Inactive)
REMARK    1  A    between atoms: C_2  and  C_3 
REMARK    2  A    between atoms: N_16  and  C_17 
REMARK    3  A    between atoms: C_17  and  C_18 
REMARK       I    between atoms: C_18  and  N_19 
REMARK    4  A    between atoms: N_19  and  C_20 
ROOT
HETATM    1  C   UNL     1      40.472 -13.476   5.305  1.00  0.00     0.054 C 
HETATM    2  C   UNL     1      41.942 -13.678   4.938  1.00  0.00     0.140 C 
HETATM    3  N   UNL     1      42.413 -12.524   4.199  1.00  0.00    -0.321 N 
HETATM    4  C   UNL     1      43.547 -11.978   4.750  1.00  0.00     0.326 C 
HETATM    5  O   UNL     1      44.220 -11.125   4.200  1.00  0.00    -0.247 OA
HETATM    6  N   UNL     1      43.773 -12.567   5.954  1.00  0.00    -0.259 N 
HETATM    7  C   UNL     1      42.846 -13.542   6.190  1.00  0.00     0.261 C 
HETATM    8  O   UNL     1      42.772 -14.218   7.210  1.00  0.00    -0.270 OA
HETATM    9  H   UNL     1      42.135 -12.286   3.257  1.00  0.00     0.165 HD
ENDROOT
BRANCH   6  10
HETATM   10  C   UNL     1      44.928 -12.289   6.778  1.00  0.00     0.240 C 
BRANCH  10  11
HETATM   11  C   UNL     1      44.765 -11.012   7.598  1.00  0.00     0.240 C 
HETATM   12  N   UNL     1      43.839 -11.101   8.618  1.00  0.00    -0.324 N 
HETATM   13  H   UNL     1      43.491 -12.022   8.886  1.00  0.00     0.169 HD
HETATM   14  O   UNL     1      45.518 -10.058   7.407  1.00  0.00    -0.271 OA
BRANCH  12  15
HETATM   15  C   UNL     1      43.496 -10.078   9.542  1.00  0.00     0.064 A 
HETATM   16  C   UNL     1      42.397  -9.269   9.209  1.00  0.00     0.093 A 
HETATM   17  C   UNL     1      42.010  -8.256  10.117  1.00  0.00    -0.005 A 
HETATM   18  N   UNL     1      41.724  -9.480   8.053  1.00  0.00    -0.258 NA
HETATM   19  C   UNL     1      40.894  -7.471   9.802  1.00  0.00     0.015 A 
HETATM   20  C   UNL     1      42.725  -8.054  11.307  1.00  0.00     0.014 A 
HETATM   21  C   UNL     1      40.198  -7.699   8.622  1.00  0.00     0.020 A 
HETATM   22  C   UNL     1      40.649  -8.704   7.789  1.00  0.00     0.117 A 
HETATM   23  C   UNL     1      43.823  -8.851  11.609  1.00  0.00     0.003 A 
HETATM   24  C   UNL     1      44.207  -9.861  10.729  1.00  0.00     0.032 A 
ENDBRANCH  12  15
ENDBRANCH  10  11
ENDBRANCH   6  10
BRANCH   2  25
HETATM   25  C   UNL     1      42.232 -14.993   4.206  1.00  0.00    -0.020 A 
HETATM   26  C   UNL     1      43.087 -15.977   4.745  1.00  0.00     0.022 A 
HETATM   27  C   UNL     1      43.334 -17.198   4.089  1.00  0.00    -0.025 A 
HETATM   28  C   UNL     1      42.706 -17.456   2.854  1.00  0.00    -0.026 A 
HETATM   29  C   UNL     1      44.187 -18.169   4.642  1.00  0.00     0.012 A 
HETATM   30  C   UNL     1      41.844 -16.492   2.315  1.00  0.00     0.013 A 
HETATM   31  C   UNL     1      42.951 -18.676   2.198  1.00  0.00     0.012 A 
HETATM   32  C   UNL     1      41.605 -15.286   2.984  1.00  0.00     0.011 A 
HETATM   33  C   UNL     1      43.803 -19.628   2.759  1.00  0.00     0.001 A 
HETATM   34  C   UNL     1      44.420 -19.376   3.981  1.00  0.00     0.001 A 
ENDBRANCH   2  25
TORSDOF 4
ENDMDL
MODEL 8
REMARK VINA RESULT:      -9.5      5.854      9.348
REMARK  4 active torsions:
REMARK  status: ('A' for Active; 'I' for Inactive)
REMARK    1  A    between atoms: C_2  and  C_3 
REMARK    2  A    between atoms: N_16  and  C_17 
REMARK    3  A    between atoms: C_17  and  C_18 
REMARK       I    between atoms: C_18  and  N_19 
REMARK    4  A    between atoms: N_19  and  C_20 
ROOT
HETATM    1  C   UNL     1      45.786  -9.353  10.086  1.00  0.00     0.054 C 
HETATM    2  C   UNL     1      44.278  -9.205   9.881  1.00  0.00     0.140 C 
HETATM    3  N   UNL     1      44.022  -8.075   9.012  1.00  0.00    -0.321 N 
HETATM    4  C   UNL     1      43.238  -8.411   7.935  1.00  0.00     0.326 C 
HETATM    5  O   UNL     1      42.744  -7.593   7.180  1.00  0.00    -0.247 OA
HETATM    6  N   UNL     1      43.104  -9.762   7.899  1.00  0.00    -0.259 N 
HETATM    7  C   UNL     1      43.734 -10.334   8.968  1.00  0.00     0.261 C 
HETATM    8  O   UNL     1      43.817 -11.537   9.181  1.00  0.00    -0.270 OA
HETATM    9  H   UNL     1      44.157  -7.106   9.267  1.00  0.00     0.165 HD
ENDROOT
BRANCH   6  10
HETATM   10  C   UNL     1      42.279 -10.460   6.938  1.00  0.00     0.240 C 
BRANCH  10  11
HETATM   11  C   UNL     1      42.990 -11.661   6.321  1.00  0.00     0.240 C 
HETATM   12  N   UNL     1      42.391 -12.878   6.582  1.00  0.00    -0.324 N 
HETATM   13  H   UNL     1      41.448 -12.886   6.971  1.00  0.00     0.169 HD
HETATM   14  O   UNL     1      43.936 -11.488   5.553  1.00  0.00    -0.271 OA
BRANCH  12  15
HETATM   15  C   UNL     1      42.826 -14.151   6.125  1.00  0.00     0.064 A 
HETATM   16  C   UNL     1      42.118 -14.711   5.050  1.00  0.00     0.093 A 
HETATM   17  C   UNL     1      42.538 -15.966   4.552  1.00  0.00    -0.005 A 
HETATM   18  N   UNL     1      41.075 -14.043   4.501  1.00  0.00    -0.258 NA
HETATM   19  C   UNL     1      41.855 -16.511   3.457  1.00  0.00     0.015 A 
HETATM   20  C   UNL     1      43.620 -16.641   5.139  1.00  0.00     0.014 A 
HETATM   21  C   UNL     1      40.795 -15.817   2.888  1.00  0.00     0.020 A 
HETATM   22  C   UNL     1      40.446 -14.600   3.443  1.00  0.00     0.117 A 
HETATM   23  C   UNL     1      44.294 -16.079   6.217  1.00  0.00     0.003 A 
HETATM   24  C   UNL     1      43.898 -14.837   6.709  1.00  0.00     0.032 A 
ENDBRANCH  12  15
ENDBRANCH  10  11
ENDBRANCH   6  10
BRANCH   2  25
HETATM   25  C   UNL     1      43.472  -9.131  11.182  1.00  0.00    -0.020 A 
HETATM   26  C   UNL     1      43.709  -8.135  12.154  1.00  0.00     0.022 A 
HETATM   27  C   UNL     1      42.951  -8.046  13.337  1.00  0.00    -0.025 A 
HETATM   28  C   UNL     1      41.917  -8.976  13.566  1.00  0.00    -0.026 A 
HETATM   29  C   UNL     1      43.198  -7.046  14.293  1.00  0.00     0.012 A 
HETATM   30  C   UNL     1      41.664  -9.961  12.602  1.00  0.00     0.013 A 
HETATM   31  C   UNL     1      41.160  -8.888  14.747  1.00  0.00     0.012 A 
HETATM   32  C   UNL     1      42.423 -10.031  11.427  1.00  0.00     0.011 A 
HETATM   33  C   UNL     1      41.420  -7.890  15.688  1.00  0.00     0.001 A 
HETATM   34  C   UNL     1      42.437  -6.969  15.461  1.00  0.00     0.001 A 
ENDBRANCH   2  25
TORSDOF 4
ENDMDL
MODEL 9
REMARK VINA RESULT:      -9.3      3.242      7.354
REMARK  4 active torsions:
REMARK  status: ('A' for Active; 'I' for Inactive)
REMARK    1  A    between atoms: C_2  and  C_3 
REMARK    2  A    between atoms: N_16  and  C_17 
REMARK    3  A    between atoms: C_17  and  C_18 
REMARK       I    between atoms: C_18  and  N_19 
REMARK    4  A    between atoms: N_19  and  C_20 
ROOT
HETATM    1  C   UNL     1      39.027  -8.939   6.248  1.00  0.00     0.054 C 
HETATM    2  C   UNL     1      40.075 -10.053   6.247  1.00  0.00     0.140 C 
HETATM    3  N   UNL     1      39.510 -11.242   6.853  1.00  0.00    -0.321 N 
HETATM    4  C   UNL     1      39.628 -12.346   6.045  1.00  0.00     0.326 C 
HETATM    5  O   UNL     1      39.395 -13.482   6.418  1.00  0.00    -0.247 OA
HETATM    6  N   UNL     1      40.061 -11.946   4.821  1.00  0.00    -0.259 N 
HETATM    7  C   UNL     1      40.295 -10.600   4.814  1.00  0.00     0.261 C 
HETATM    8  O   UNL     1      40.655  -9.949   3.840  1.00  0.00    -0.270 OA
HETATM    9  H   UNL     1      39.295 -11.345   7.836  1.00  0.00     0.165 HD
ENDROOT
BRANCH   6  10
HETATM   10  C   UNL     1      40.368 -12.858   3.742  1.00  0.00     0.240 C 
BRANCH  10  11
HETATM   11  C   UNL     1      41.702 -13.571   3.943  1.00  0.00     0.240 C 
HETATM   12  N   UNL     1      41.620 -14.751   4.655  1.00  0.00    -0.324 N 
HETATM   13  H   UNL     1      40.700 -15.164   4.816  1.00  0.00     0.169 HD
HETATM   14  O   UNL     1      42.714 -13.154   3.379  1.00  0.00    -0.271 OA
BRANCH  12  15
HETATM   15  C   UNL     1      42.694 -15.623   4.977  1.00  0.00     0.064 A 
HETATM   16  C   UNL     1      42.900 -16.714   4.118  1.00  0.00     0.093 A 
HETATM   17  C   UNL     1      43.976 -17.590   4.392  1.00  0.00    -0.005 A 
HETATM   18  N   UNL     1      42.093 -16.897   3.046  1.00  0.00    -0.258 NA
HETATM   19  C   UNL     1      44.205 -18.659   3.517  1.00  0.00     0.015 A 
HETATM   20  C   UNL     1      44.797 -17.382   5.511  1.00  0.00     0.014 A 
HETATM   21  C   UNL     1      43.384 -18.835   2.411  1.00  0.00     0.020 A 
HETATM   22  C   UNL     1      42.351 -17.937   2.222  1.00  0.00     0.117 A 
HETATM   23  C   UNL     1      44.563 -16.309   6.362  1.00  0.00     0.003 A 
HETATM   24  C   UNL     1      43.514 -15.431   6.096  1.00  0.00     0.032 A 
ENDBRANCH  12  15
ENDBRANCH  10  11
ENDBRANCH   6  10
BRANCH   2  25
HETATM   25  C   UNL     1      41.412  -9.657   6.883  1.00  0.00    -0.020 A 
HETATM   26  C   UNL     1      42.562 -10.468   6.774  1.00  0.00     0.022 A 
HETATM   27  C   UNL     1      43.799 -10.095   7.332  1.00  0.00    -0.025 A 
HETATM   28  C   UNL     1      43.903  -8.870   8.022  1.00  0.00    -0.026 A 
HETATM   29  C   UNL     1      44.935 -10.913   7.211  1.00  0.00     0.012 A 
HETATM   30  C   UNL     1      42.771  -8.050   8.125  1.00  0.00     0.013 A 
HETATM   31  C   UNL     1      45.138  -8.496   8.579  1.00  0.00     0.012 A 
HETATM   32  C   UNL     1      41.550  -8.434   7.558  1.00  0.00     0.011 A 
HETATM   33  C   UNL     1      46.257  -9.321   8.453  1.00  0.00     0.001 A 
HETATM   34  C   UNL     1      46.156 -10.529   7.769  1.00  0.00     0.001 A 
ENDBRANCH   2  25
TORSDOF 4
ENDMDL
MODEL 10
REMARK VINA RESULT:      -9.2      1.758      6.760
REMARK  4 active torsions:
REMARK  status: ('A' for Active; 'I' for Inactive)
REMARK    1  A    between atoms: C_2  and  C_3 
REMARK    2  A    between atoms: N_16  and  C_17 
REMARK    3  A    between atoms: C_17  and  C_18 
REMARK       I    between atoms: C_18  and  N_19 
REMARK    4  A    between atoms: N_19  and  C_20 
ROOT
HETATM    1  C   UNL     1      40.107  -8.874   2.001  1.00  0.00     0.054 C 
HETATM    2  C   UNL     1      40.609 -10.266   2.383  1.00  0.00     0.140 C 
HETATM    3  N   UNL     1      42.030 -10.203   2.660  1.00  0.00    -0.321 N 
HETATM    4  C   UNL     1      42.346 -10.723   3.892  1.00  0.00     0.326 C 
HETATM    5  O   UNL     1      43.486 -10.943   4.258  1.00  0.00    -0.247 OA
HETATM    6  N   UNL     1      41.194 -10.957   4.574  1.00  0.00    -0.259 N 
HETATM    7  C   UNL     1      40.110 -10.661   3.797  1.00  0.00     0.261 C 
HETATM    8  O   UNL     1      38.941 -10.736   4.155  1.00  0.00    -0.270 OA
HETATM    9  H   UNL     1      42.749 -10.054   1.966  1.00  0.00     0.165 HD
ENDROOT
BRANCH   6  10
HETATM   10  C   UNL     1      41.148 -11.576   5.880  1.00  0.00     0.240 C 
BRANCH  10  11
HETATM   11  C   UNL     1      41.158 -13.100   5.804  1.00  0.00     0.240 C 
HETATM   12  N   UNL     1      42.416 -13.668   5.854  1.00  0.00    -0.324 N 
HETATM   13  H   UNL     1      43.206 -13.086   6.134  1.00  0.00     0.169 HD
HETATM   14  O   UNL     1      40.098 -13.724   5.834  1.00  0.00    -0.271 OA
BRANCH  12  15
HETATM   15  C   UNL     1      42.722 -15.054   5.817  1.00  0.00     0.064 A 
HETATM   16  C   UNL     1      42.927 -15.623   4.550  1.00  0.00     0.093 A 
HETATM   17  C   UNL     1      43.258 -16.995   4.476  1.00  0.00    -0.005 A 
HETATM   18  N   UNL     1      42.826 -14.856   3.438  1.00  0.00    -0.258 NA
HETATM   19  C   UNL     1      43.497 -17.556   3.214  1.00  0.00     0.015 A 
HETATM   20  C   UNL     1      43.353 -17.770   5.642  1.00  0.00     0.014 A 
HETATM   21  C   UNL     1      43.406 -16.764   2.077  1.00  0.00     0.020 A 
HETATM   22  C   UNL     1      43.070 -15.434   2.240  1.00  0.00     0.117 A 
HETATM   23  C   UNL     1      43.125 -17.194   6.886  1.00  0.00     0.003 A 
HETATM   24  C   UNL     1      42.810 -15.839   6.974  1.00  0.00     0.032 A 
ENDBRANCH  12  15
ENDBRANCH  10  11
ENDBRANCH   6  10
BRANCH   2  25
HETATM   25  C   UNL     1      40.264 -11.360   1.366  1.00  0.00    -0.020 A 
HETATM   26  C   UNL     1      39.191 -11.228   0.460  1.00  0.00     0.022 A 
HETATM   27  C   UNL     1      38.888 -12.218  -0.494  1.00  0.00    -0.025 A 
HETATM   28  C   UNL     1      39.681 -13.381  -0.556  1.00  0.00    -0.026 A 
HETATM   29  C   UNL     1      37.817 -12.069  -1.392  1.00  0.00     0.012 A 
HETATM   30  C   UNL     1      40.759 -13.517   0.330  1.00  0.00     0.013 A 
HETATM   31  C   UNL     1      39.381 -14.370  -1.509  1.00  0.00     0.012 A 
HETATM   32  C   UNL     1      41.049 -12.520   1.268  1.00  0.00     0.011 A 
HETATM   33  C   UNL     1      38.312 -14.208  -2.392  1.00  0.00     0.001 A 
HETATM   34  C   UNL     1      37.530 -13.058  -2.334  1.00  0.00     0.001 A 
ENDBRANCH   2  25
TORSDOF 4
ENDMDL
