MODEL 1
REMARK VINA RESULT:      -8.7      0.000      0.000
REMARK  3 active torsions:
REMARK  status: ('A' for Active; 'I' for Inactive)
REMARK    1  A    between atoms: C_2  and  C_3 
REMARK    2  A    between atoms: C_3  and  C_4 
REMARK    3  A    between atoms: C_8  and  C_9 
REMARK       I    between atoms: C_9  and  N_10 
ROOT
HETATM    1  C   UNL     1      45.044  -9.535   8.095  1.00  0.00     0.271 C 
HETATM    2  N   UNL     1      44.366 -10.377   7.203  1.00  0.00    -0.347 N 
HETATM    3  C   UNL     1      42.917 -10.398   7.008  1.00  0.00     0.128 C 
HETATM    4  C   UNL     1      42.523 -10.635   5.556  1.00  0.00     0.055 C 
HETATM    5  C   UNL     1      43.231 -11.846   4.933  1.00  0.00     0.100 C 
HETATM    6  N   UNL     1      42.718 -13.087   5.574  1.00  0.00    -0.273 NA
HETATM    7  C   UNL     1      42.947 -14.275   4.858  1.00  0.00     0.036 A 
HETATM    8  C   UNL     1      43.085 -14.272   3.459  1.00  0.00     0.056 A 
HETATM    9  N   UNL     1      43.058 -13.059   2.763  1.00  0.00    -0.324 N 
HETATM   10  C   UNL     1      42.970 -11.846   3.399  1.00  0.00     0.245 C 
HETATM   11  O   UNL     1      42.813 -10.820   2.734  1.00  0.00    -0.271 OA
HETATM   12  C   UNL     1      42.885 -15.506   5.518  1.00  0.00     0.026 A 
HETATM   13  C   UNL     1      43.029 -16.702   4.810  1.00  0.00     0.002 A 
HETATM   14  C   UNL     1      43.201 -16.681   3.426  1.00  0.00     0.002 A 
HETATM   15  C   UNL     1      43.218 -15.464   2.746  1.00  0.00     0.031 A 
HETATM   16  C   UNL     1      44.750 -11.711   5.142  1.00  0.00     0.055 C 
HETATM   17  C   UNL     1      45.121 -11.469   6.599  1.00  0.00     0.128 C 
HETATM   18  O   UNL     1      46.273  -9.468   8.089  1.00  0.00    -0.266 OA
HETATM   19  H   UNL     1      42.951 -13.185   6.558  1.00  0.00     0.129 HD
HETATM   20  H   UNL     1      42.997 -13.047   1.755  1.00  0.00     0.169 HD
ENDROOT
BRANCH   1  21
HETATM   21  C   UNL     1      44.295  -8.724   9.022  1.00  0.00     0.119 A 
HETATM   22  N   UNL     1      43.956  -7.431   8.725  1.00  0.00    -0.273 N 
HETATM   23  N   UNL     1      43.225  -6.820   9.673  1.00  0.00    -0.179 NA
HETATM   24  H   UNL     1      44.179  -6.924   7.873  1.00  0.00     0.189 HD
HETATM   25  C   UNL     1      43.156  -7.725  10.654  1.00  0.00     0.057 A 
HETATM   26  C   UNL     1      43.849  -8.909  10.317  1.00  0.00     0.065 A 
BRANCH  25  27
HETATM   27  C   UNL     1      42.409  -7.436  11.917  1.00  0.00     0.065 C 
BRANCH  27  28
HETATM   28  C   UNL     1      43.050  -8.095  13.154  1.00  0.00    -0.017 C 
HETATM   29  C   UNL     1      42.203  -9.255  13.683  1.00  0.00     0.010 C 
HETATM   30  C   UNL     1      43.253  -7.055  14.257  1.00  0.00     0.010 C 
ENDBRANCH  27  28
ENDBRANCH  25  27
ENDBRANCH   1  21
TORSDOF 3
ENDMDL
MODEL 2
REMARK VINA RESULT:      -8.6      1.661      8.903
REMARK  3 active torsions:
REMARK  status: ('A' for Active; 'I' for Inactive)
REMARK    1  A    between atoms: C_2  and  C_3 
REMARK    2  A    between atoms: C_3  and  C_4 
REMARK    3  A    between atoms: C_8  and  C_9 
REMARK       I    between atoms: C_9  and  N_10 
ROOT
HETATM    1  C   UNL     1      41.954 -12.419   4.840  1.00  0.00     0.271 C 
HETATM    2  N   UNL     1      42.630 -12.000   5.995  1.00  0.00    -0.347 N 
HETATM    3  C   UNL     1      43.660 -12.770   6.689  1.00  0.00     0.128 C 
HETATM    4  C   UNL     1      44.775 -11.895   7.245  1.00  0.00     0.055 C 
HETATM    5  C   UNL     1      44.252 -10.711   8.070  1.00  0.00     0.100 C 
HETATM    6  N   UNL     1      43.643 -11.229   9.325  1.00  0.00    -0.273 NA
HETATM    7  C   UNL     1      43.492 -10.285  10.356  1.00  0.00     0.036 A 
HETATM    8  C   UNL     1      44.336  -9.165  10.454  1.00  0.00     0.056 A 
HETATM    9  N   UNL     1      45.308  -8.943   9.473  1.00  0.00    -0.324 N 
HETATM   10  C   UNL     1      45.435  -9.743   8.365  1.00  0.00     0.245 C 
HETATM   11  O   UNL     1      46.392  -9.585   7.605  1.00  0.00    -0.271 OA
HETATM   12  C   UNL     1      42.592 -10.533  11.397  1.00  0.00     0.026 A 
HETATM   13  C   UNL     1      42.486  -9.647  12.473  1.00  0.00     0.002 A 
HETATM   14  C   UNL     1      43.305  -8.521  12.537  1.00  0.00     0.002 A 
HETATM   15  C   UNL     1      44.242  -8.284  11.532  1.00  0.00     0.031 A 
HETATM   16  C   UNL     1      43.215  -9.932   7.241  1.00  0.00     0.055 C 
HETATM   17  C   UNL     1      42.113 -10.827   6.691  1.00  0.00     0.128 C 
HETATM   18  O   UNL     1      41.214 -11.649   4.227  1.00  0.00    -0.266 OA
HETATM   19  H   UNL     1      42.804 -11.785   9.193  1.00  0.00     0.129 HD
HETATM   20  H   UNL     1      46.021  -8.240   9.607  1.00  0.00     0.169 HD
ENDROOT
BRANCH   1  21
HETATM   21  C   UNL     1      42.138 -13.763   4.352  1.00  0.00     0.119 A 
HETATM   22  N   UNL     1      41.361 -14.797   4.801  1.00  0.00    -0.273 N 
HETATM   23  N   UNL     1      41.630 -15.980   4.223  1.00  0.00    -0.179 NA
HETATM   24  H   UNL     1      40.613 -14.743   5.486  1.00  0.00     0.189 HD
HETATM   25  C   UNL     1      42.673 -15.717   3.429  1.00  0.00     0.057 A 
HETATM   26  C   UNL     1      43.058 -14.360   3.512  1.00  0.00     0.065 A 
BRANCH  25  27
HETATM   27  C   UNL     1      43.287 -16.788   2.586  1.00  0.00     0.065 C 
BRANCH  27  28
HETATM   28  C   UNL     1      43.256 -18.172   3.263  1.00  0.00    -0.017 C 
HETATM   29  C   UNL     1      44.398 -18.338   4.270  1.00  0.00     0.010 C 
HETATM   30  C   UNL     1      43.332 -19.275   2.207  1.00  0.00     0.010 C 
ENDBRANCH  27  28
ENDBRANCH  25  27
ENDBRANCH   1  21
TORSDOF 3
ENDMDL
MODEL 3
REMARK VINA RESULT:      -8.5      6.554      8.472
REMARK  3 active torsions:
REMARK  status: ('A' for Active; 'I' for Inactive)
REMARK    1  A    between atoms: C_2  and  C_3 
REMARK    2  A    between atoms: C_3  and  C_4 
REMARK    3  A    between atoms: C_8  and  C_9 
REMARK       I    between atoms: C_9  and  N_10 
ROOT
HETATM    1  C   UNL     1      40.263 -13.267   2.355  1.00  0.00     0.271 C 
HETATM    2  N   UNL     1      41.227 -14.187   2.788  1.00  0.00    -0.347 N 
HETATM    3  C   UNL     1      42.672 -14.019   2.644  1.00  0.00     0.128 C 
HETATM    4  C   UNL     1      43.450 -14.557   3.838  1.00  0.00     0.055 C 
HETATM    5  C   UNL     1      43.047 -15.988   4.219  1.00  0.00     0.100 C 
HETATM    6  N   UNL     1      43.493 -16.917   3.145  1.00  0.00    -0.273 NA
HETATM    7  C   UNL     1      43.573 -18.272   3.513  1.00  0.00     0.036 A 
HETATM    8  C   UNL     1      43.802 -18.657   4.846  1.00  0.00     0.056 A 
HETATM    9  N   UNL     1      43.891 -17.680   5.843  1.00  0.00    -0.324 N 
HETATM   10  C   UNL     1      43.694 -16.345   5.589  1.00  0.00     0.245 C 
HETATM   11  O   UNL     1      43.918 -15.516   6.473  1.00  0.00    -0.271 OA
HETATM   12  C   UNL     1      43.580 -19.260   2.525  1.00  0.00     0.026 A 
HETATM   13  C   UNL     1      43.740 -20.606   2.865  1.00  0.00     0.002 A 
HETATM   14  C   UNL     1      43.930 -20.976   4.196  1.00  0.00     0.002 A 
HETATM   15  C   UNL     1      43.974 -19.998   5.190  1.00  0.00     0.031 A 
HETATM   16  C   UNL     1      41.520 -16.057   4.399  1.00  0.00     0.055 C 
HETATM   17  C   UNL     1      40.763 -15.509   3.197  1.00  0.00     0.128 C 
HETATM   18  O   UNL     1      39.077 -13.407   2.652  1.00  0.00    -0.266 OA
HETATM   19  H   UNL     1      43.025 -16.793   2.253  1.00  0.00     0.129 HD
HETATM   20  H   UNL     1      44.209 -17.920   6.771  1.00  0.00     0.169 HD
ENDROOT
BRANCH   1  21
HETATM   21  C   UNL     1      40.666 -12.129   1.565  1.00  0.00     0.119 A 
HETATM   22  N   UNL     1      40.886 -10.906   2.139  1.00  0.00    -0.273 N 
HETATM   23  N   UNL     1      41.293  -9.958   1.277  1.00  0.00    -0.179 NA
HETATM   24  H   UNL     1      40.797 -10.670   3.123  1.00  0.00     0.189 HD
HETATM   25  C   UNL     1      41.258 -10.571   0.090  1.00  0.00     0.057 A 
HETATM   26  C   UNL     1      40.826 -11.911   0.211  1.00  0.00     0.065 A 
BRANCH  25  27
HETATM   27  C   UNL     1      41.652  -9.851  -1.160  1.00  0.00     0.065 C 
BRANCH  27  28
HETATM   28  C   UNL     1      41.908  -8.349  -0.928  1.00  0.00    -0.017 C 
HETATM   29  C   UNL     1      40.759  -7.488  -1.459  1.00  0.00     0.010 C 
HETATM   30  C   UNL     1      43.221  -7.931  -1.593  1.00  0.00     0.010 C 
ENDBRANCH  27  28
ENDBRANCH  25  27
ENDBRANCH   1  21
TORSDOF 3
ENDMDL
MODEL 4
REMARK VINA RESULT:      -8.3      3.777      5.955
REMARK  3 active torsions:
REMARK  status: ('A' for Active; 'I' for Inactive)
REMARK    1  A    between atoms: C_2  and  C_3 
REMARK    2  A    between atoms: C_3  and  C_4 
REMARK    3  A    between atoms: C_8  and  C_9 
REMARK       I    between atoms: C_9  and  N_10 
ROOT
HETATM    1  C   UNL     1      41.221 -11.826   5.375  1.00  0.00     0.271 C 
HETATM    2  N   UNL     1      41.202 -12.415   4.103  1.00  0.00    -0.347 N 
HETATM    3  C   UNL     1      42.297 -13.190   3.521  1.00  0.00     0.128 C 
HETATM    4  C   UNL     1      41.806 -14.367   2.688  1.00  0.00     0.055 C 
HETATM    5  C   UNL     1      40.739 -13.969   1.660  1.00  0.00     0.100 C 
HETATM    6  N   UNL     1      41.370 -13.121   0.612  1.00  0.00    -0.273 NA
HETATM    7  C   UNL     1      40.652 -13.015  -0.592  1.00  0.00     0.036 A 
HETATM    8  C   UNL     1      39.776 -14.031  -1.014  1.00  0.00     0.056 A 
HETATM    9  N   UNL     1      39.560 -15.144  -0.196  1.00  0.00    -0.324 N 
HETATM   10  C   UNL     1      40.120 -15.262   1.052  1.00  0.00     0.245 C 
HETATM   11  O   UNL     1      40.008 -16.320   1.673  1.00  0.00    -0.271 OA
HETATM   12  C   UNL     1      40.921 -11.961  -1.469  1.00  0.00     0.026 A 
HETATM   13  C   UNL     1      40.277 -11.882  -2.707  1.00  0.00     0.002 A 
HETATM   14  C   UNL     1      39.383 -12.879  -3.097  1.00  0.00     0.002 A 
HETATM   15  C   UNL     1      39.140 -13.964  -2.255  1.00  0.00     0.031 A 
HETATM   16  C   UNL     1      39.606 -13.206   2.371  1.00  0.00     0.055 C 
HETATM   17  C   UNL     1      40.119 -12.038   3.201  1.00  0.00     0.128 C 
HETATM   18  O   UNL     1      40.205 -11.325   5.854  1.00  0.00    -0.266 OA
HETATM   19  H   UNL     1      41.700 -12.218   0.938  1.00  0.00     0.129 HD
HETATM   20  H   UNL     1      39.065 -15.951  -0.546  1.00  0.00     0.169 HD
ENDROOT
BRANCH   1  21
HETATM   21  C   UNL     1      42.443 -11.822   6.142  1.00  0.00     0.119 A 
HETATM   22  N   UNL     1      42.809 -12.899   6.905  1.00  0.00    -0.273 N 
HETATM   23  N   UNL     1      43.991 -12.756   7.529  1.00  0.00    -0.179 NA
HETATM   24  H   UNL     1      42.296 -13.769   7.015  1.00  0.00     0.189 HD
HETATM   25  C   UNL     1      44.365 -11.510   7.220  1.00  0.00     0.057 A 
HETATM   26  C   UNL     1      43.410 -10.870   6.399  1.00  0.00     0.065 A 
BRANCH  25  27
HETATM   27  C   UNL     1      45.657 -10.949   7.722  1.00  0.00     0.065 C 
BRANCH  27  28
HETATM   28  C   UNL     1      45.474 -10.040   8.953  1.00  0.00    -0.017 C 
HETATM   29  C   UNL     1      44.246 -10.437   9.776  1.00  0.00     0.010 C 
HETATM   30  C   UNL     1      45.355  -8.579   8.515  1.00  0.00     0.010 C 
ENDBRANCH  27  28
ENDBRANCH  25  27
ENDBRANCH   1  21
TORSDOF 3
ENDMDL
MODEL 5
REMARK VINA RESULT:      -8.3      3.523      5.269
REMARK  3 active torsions:
REMARK  status: ('A' for Active; 'I' for Inactive)
REMARK    1  A    between atoms: C_2  and  C_3 
REMARK    2  A    between atoms: C_3  and  C_4 
REMARK    3  A    between atoms: C_8  and  C_9 
REMARK       I    between atoms: C_9  and  N_10 
ROOT
HETATM    1  C   UNL     1      40.412 -12.643   5.909  1.00  0.00     0.271 C 
HETATM    2  N   UNL     1      41.337 -13.678   5.714  1.00  0.00    -0.347 N 
HETATM    3  C   UNL     1      42.784 -13.502   5.614  1.00  0.00     0.128 C 
HETATM    4  C   UNL     1      43.562 -14.635   6.273  1.00  0.00     0.055 C 
HETATM    5  C   UNL     1      43.093 -16.024   5.820  1.00  0.00     0.100 C 
HETATM    6  N   UNL     1      43.463 -16.217   4.392  1.00  0.00    -0.273 NA
HETATM    7  C   UNL     1      43.479 -17.551   3.947  1.00  0.00     0.036 A 
HETATM    8  C   UNL     1      43.720 -18.615   4.834  1.00  0.00     0.056 A 
HETATM    9  N   UNL     1      43.886 -18.357   6.198  1.00  0.00    -0.324 N 
HETATM   10  C   UNL     1      43.754 -17.099   6.732  1.00  0.00     0.245 C 
HETATM   11  O   UNL     1      44.044 -16.905   7.914  1.00  0.00    -0.271 OA
HETATM   12  C   UNL     1      43.410 -17.827   2.579  1.00  0.00     0.026 A 
HETATM   13  C   UNL     1      43.506 -19.140   2.111  1.00  0.00     0.002 A 
HETATM   14  C   UNL     1      43.710 -20.190   3.006  1.00  0.00     0.002 A 
HETATM   15  C   UNL     1      43.829 -19.927   4.371  1.00  0.00     0.031 A 
HETATM   16  C   UNL     1      41.569 -16.134   6.009  1.00  0.00     0.055 C 
HETATM   17  C   UNL     1      40.813 -14.990   5.348  1.00  0.00     0.128 C 
HETATM   18  O   UNL     1      39.228 -12.888   6.138  1.00  0.00    -0.266 OA
HETATM   19  H   UNL     1      42.979 -15.606   3.741  1.00  0.00     0.129 HD
HETATM   20  H   UNL     1      44.214 -19.080   6.821  1.00  0.00     0.169 HD
ENDROOT
BRANCH   1  21
HETATM   21  C   UNL     1      40.855 -11.271   5.859  1.00  0.00     0.119 A 
HETATM   22  N   UNL     1      41.076 -10.637   4.666  1.00  0.00    -0.273 N 
HETATM   23  N   UNL     1      41.448  -9.351   4.785  1.00  0.00    -0.179 NA
HETATM   24  H   UNL     1      40.963 -11.032   3.737  1.00  0.00     0.189 HD
HETATM   25  C   UNL     1      41.547  -9.170   6.106  1.00  0.00     0.057 A 
HETATM   26  C   UNL     1      41.236 -10.351   6.816  1.00  0.00     0.065 A 
BRANCH  25  27
HETATM   27  C   UNL     1      41.940  -7.843   6.673  1.00  0.00     0.065 C 
BRANCH  27  28
HETATM   28  C   UNL     1      42.257  -7.908   8.180  1.00  0.00    -0.017 C 
HETATM   29  C   UNL     1      41.848  -6.622   8.903  1.00  0.00     0.010 C 
HETATM   30  C   UNL     1      43.749  -8.171   8.392  1.00  0.00     0.010 C 
ENDBRANCH  27  28
ENDBRANCH  25  27
ENDBRANCH   1  21
TORSDOF 3
ENDMDL
MODEL 6
REMARK VINA RESULT:      -8.1      1.509      8.876
REMARK  3 active torsions:
REMARK  status: ('A' for Active; 'I' for Inactive)
REMARK    1  A    between atoms: C_2  and  C_3 
REMARK    2  A    between atoms: C_3  and  C_4 
REMARK    3  A    between atoms: C_8  and  C_9 
REMARK       I    between atoms: C_9  and  N_10 
ROOT
HETATM    1  C   UNL     1      41.765 -11.563   5.195  1.00  0.00     0.271 C 
HETATM    2  N   UNL     1      42.371 -11.129   6.382  1.00  0.00    -0.347 N 
HETATM    3  C   UNL     1      43.611 -11.670   6.937  1.00  0.00     0.128 C 
HETATM    4  C   UNL     1      44.480 -10.601   7.586  1.00  0.00     0.055 C 
HETATM    5  C   UNL     1      43.708  -9.725   8.582  1.00  0.00     0.100 C 
HETATM    6  N   UNL     1      43.338 -10.550   9.765  1.00  0.00    -0.273 NA
HETATM    7  C   UNL     1      43.000  -9.828  10.922  1.00  0.00     0.036 A 
HETATM    8  C   UNL     1      43.515  -8.541  11.159  1.00  0.00     0.056 A 
HETATM    9  N   UNL     1      44.331  -7.934  10.199  1.00  0.00    -0.324 N 
HETATM   10  C   UNL     1      44.602  -8.516   8.986  1.00  0.00     0.245 C 
HETATM   11  O   UNL     1      45.433  -8.002   8.235  1.00  0.00    -0.271 OA
HETATM   12  C   UNL     1      42.265 -10.447  11.937  1.00  0.00     0.026 A 
HETATM   13  C   UNL     1      41.988  -9.774  13.130  1.00  0.00     0.002 A 
HETATM   14  C   UNL     1      42.476  -8.483  13.336  1.00  0.00     0.002 A 
HETATM   15  C   UNL     1      43.252  -7.868  12.354  1.00  0.00     0.031 A 
HETATM   16  C   UNL     1      42.451  -9.160   7.896  1.00  0.00     0.055 C 
HETATM   17  C   UNL     1      41.601 -10.244   7.249  1.00  0.00     0.128 C 
HETATM   18  O   UNL     1      40.810 -10.953   4.714  1.00  0.00    -0.266 OA
HETATM   19  H   UNL     1      42.673 -11.293   9.573  1.00  0.00     0.129 HD
HETATM   20  H   UNL     1      44.835  -7.086  10.416  1.00  0.00     0.169 HD
ENDROOT
BRANCH   1  21
HETATM   21  C   UNL     1      42.276 -12.729   4.517  1.00  0.00     0.119 A 
HETATM   22  N   UNL     1      42.856 -12.637   3.280  1.00  0.00    -0.273 N 
HETATM   23  N   UNL     1      43.316 -13.805   2.799  1.00  0.00    -0.179 NA
HETATM   24  H   UNL     1      42.984 -11.793   2.729  1.00  0.00     0.189 HD
HETATM   25  C   UNL     1      42.950 -14.697   3.724  1.00  0.00     0.057 A 
HETATM   26  C   UNL     1      42.255 -14.083   4.790  1.00  0.00     0.065 A 
BRANCH  25  27
HETATM   27  C   UNL     1      43.283 -16.146   3.570  1.00  0.00     0.065 C 
BRANCH  27  28
HETATM   28  C   UNL     1      42.669 -16.768   2.300  1.00  0.00    -0.017 C 
HETATM   29  C   UNL     1      41.160 -16.523   2.219  1.00  0.00     0.010 C 
HETATM   30  C   UNL     1      42.954 -18.270   2.260  1.00  0.00     0.010 C 
ENDBRANCH  27  28
ENDBRANCH  25  27
ENDBRANCH   1  21
TORSDOF 3
ENDMDL
MODEL 7
REMARK VINA RESULT:      -8.1      7.116      9.883
REMARK  3 active torsions:
REMARK  status: ('A' for Active; 'I' for Inactive)
REMARK    1  A    between atoms: C_2  and  C_3 
REMARK    2  A    between atoms: C_3  and  C_4 
REMARK    3  A    between atoms: C_8  and  C_9 
REMARK       I    between atoms: C_9  and  N_10 
ROOT
HETATM    1  C   UNL     1      39.839 -13.250   3.040  1.00  0.00     0.271 C 
HETATM    2  N   UNL     1      39.804 -12.962   1.668  1.00  0.00    -0.347 N 
HETATM    3  C   UNL     1      40.430 -13.772   0.625  1.00  0.00     0.128 C 
HETATM    4  C   UNL     1      39.601 -13.832  -0.651  1.00  0.00     0.055 C 
HETATM    5  C   UNL     1      39.165 -12.446  -1.147  1.00  0.00     0.100 C 
HETATM    6  N   UNL     1      40.365 -11.704  -1.620  1.00  0.00    -0.273 NA
HETATM    7  C   UNL     1      40.104 -10.611  -2.466  1.00  0.00     0.036 A 
HETATM    8  C   UNL     1      38.949 -10.564  -3.266  1.00  0.00     0.056 A 
HETATM    9  N   UNL     1      38.004 -11.591  -3.179  1.00  0.00    -0.324 N 
HETATM   10  C   UNL     1      38.119 -12.626  -2.285  1.00  0.00     0.245 C 
HETATM   11  O   UNL     1      37.332 -13.572  -2.344  1.00  0.00    -0.271 OA
HETATM   12  C   UNL     1      41.076  -9.621  -2.639  1.00  0.00     0.026 A 
HETATM   13  C   UNL     1      40.869  -8.570  -3.537  1.00  0.00     0.002 A 
HETATM   14  C   UNL     1      39.702  -8.517  -4.298  1.00  0.00     0.002 A 
HETATM   15  C   UNL     1      38.743  -9.523  -4.173  1.00  0.00     0.031 A 
HETATM   16  C   UNL     1      38.473 -11.689   0.001  1.00  0.00     0.055 C 
HETATM   17  C   UNL     1      39.316 -11.647   1.267  1.00  0.00     0.128 C 
HETATM   18  O   UNL     1      39.158 -12.607   3.838  1.00  0.00    -0.266 OA
HETATM   19  H   UNL     1      41.035 -11.470  -0.894  1.00  0.00     0.129 HD
HETATM   20  H   UNL     1      37.254 -11.656  -3.853  1.00  0.00     0.169 HD
ENDROOT
BRANCH   1  21
HETATM   21  C   UNL     1      40.670 -14.325   3.523  1.00  0.00     0.119 A 
HETATM   22  N   UNL     1      40.136 -15.395   4.189  1.00  0.00    -0.273 N 
HETATM   23  N   UNL     1      41.035 -16.330   4.540  1.00  0.00    -0.179 NA
HETATM   24  H   UNL     1      39.156 -15.548   4.408  1.00  0.00     0.189 HD
HETATM   25  C   UNL     1      42.204 -15.808   4.158  1.00  0.00     0.057 A 
HETATM   26  C   UNL     1      42.035 -14.538   3.563  1.00  0.00     0.065 A 
BRANCH  25  27
HETATM   27  C   UNL     1      43.484 -16.552   4.367  1.00  0.00     0.065 C 
BRANCH  27  28
HETATM   28  C   UNL     1      43.405 -18.019   3.902  1.00  0.00    -0.017 C 
HETATM   29  C   UNL     1      44.619 -18.829   4.367  1.00  0.00     0.010 C 
HETATM   30  C   UNL     1      43.292 -18.082   2.378  1.00  0.00     0.010 C 
ENDBRANCH  27  28
ENDBRANCH  25  27
ENDBRANCH   1  21
TORSDOF 3
ENDMDL
MODEL 8
REMARK VINA RESULT:      -7.5      2.993      4.193
REMARK  3 active torsions:
REMARK  status: ('A' for Active; 'I' for Inactive)
REMARK    1  A    between atoms: C_2  and  C_3 
REMARK    2  A    between atoms: C_3  and  C_4 
REMARK    3  A    between atoms: C_8  and  C_9 
REMARK       I    between atoms: C_9  and  N_10 
ROOT
HETATM    1  C   UNL     1      39.589 -10.886   6.693  1.00  0.00     0.271 C 
HETATM    2  N   UNL     1      40.558 -11.811   6.280  1.00  0.00    -0.347 N 
HETATM    3  C   UNL     1      42.002 -11.586   6.322  1.00  0.00     0.128 C 
HETATM    4  C   UNL     1      42.782 -12.841   6.694  1.00  0.00     0.055 C 
HETATM    5  C   UNL     1      42.388 -14.062   5.852  1.00  0.00     0.100 C 
HETATM    6  N   UNL     1      42.841 -13.849   4.450  1.00  0.00    -0.273 NA
HETATM    7  C   UNL     1      42.929 -15.009   3.661  1.00  0.00     0.036 A 
HETATM    8  C   UNL     1      43.159 -16.271   4.237  1.00  0.00     0.056 A 
HETATM    9  N   UNL     1      43.242 -16.393   5.628  1.00  0.00    -0.324 N 
HETATM   10  C   UNL     1      43.037 -15.332   6.475  1.00  0.00     0.245 C 
HETATM   11  O   UNL     1      43.255 -15.464   7.681  1.00  0.00    -0.271 OA
HETATM   12  C   UNL     1      42.944 -14.900   2.268  1.00  0.00     0.026 A 
HETATM   13  C   UNL     1      43.111 -16.033   1.467  1.00  0.00     0.002 A 
HETATM   14  C   UNL     1      43.303 -17.284   2.053  1.00  0.00     0.002 A 
HETATM   15  C   UNL     1      43.340 -17.403   3.442  1.00  0.00     0.031 A 
HETATM   16  C   UNL     1      40.861 -14.249   5.909  1.00  0.00     0.055 C 
HETATM   17  C   UNL     1      40.102 -12.982   5.540  1.00  0.00     0.128 C 
HETATM   18  O   UNL     1      38.404 -11.208   6.773  1.00  0.00    -0.266 OA
HETATM   19  H   UNL     1      42.372 -13.092   3.962  1.00  0.00     0.129 HD
HETATM   20  H   UNL     1      43.561 -17.253   6.049  1.00  0.00     0.169 HD
ENDROOT
BRANCH   1  21
HETATM   21  C   UNL     1      39.985  -9.545   7.046  1.00  0.00     0.119 A 
HETATM   22  N   UNL     1      40.080  -8.558   6.101  1.00  0.00    -0.273 N 
HETATM   23  N   UNL     1      40.423  -7.356   6.593  1.00  0.00    -0.179 NA
HETATM   24  H   UNL     1      39.896  -8.649   5.106  1.00  0.00     0.189 HD
HETATM   25  C   UNL     1      40.634  -7.591   7.892  1.00  0.00     0.057 A 
HETATM   26  C   UNL     1      40.422  -8.950   8.213  1.00  0.00     0.065 A 
BRANCH  25  27
HETATM   27  C   UNL     1      41.037  -6.489   8.818  1.00  0.00     0.065 C 
BRANCH  27  28
HETATM   28  C   UNL     1      42.166  -6.901   9.782  1.00  0.00    -0.017 C 
HETATM   29  C   UNL     1      42.298  -5.924  10.954  1.00  0.00     0.010 C 
HETATM   30  C   UNL     1      43.494  -6.989   9.028  1.00  0.00     0.010 C 
ENDBRANCH  27  28
ENDBRANCH  25  27
ENDBRANCH   1  21
TORSDOF 3
ENDMDL
MODEL 9
REMARK VINA RESULT:      -7.5      7.333      8.868
REMARK  3 active torsions:
REMARK  status: ('A' for Active; 'I' for Inactive)
REMARK    1  A    between atoms: C_2  and  C_3 
REMARK    2  A    between atoms: C_3  and  C_4 
REMARK    3  A    between atoms: C_8  and  C_9 
REMARK       I    between atoms: C_9  and  N_10 
ROOT
HETATM    1  C   UNL     1      41.286  -9.688  -1.839  1.00  0.00     0.271 C 
HETATM    2  N   UNL     1      41.284 -10.574  -0.754  1.00  0.00    -0.347 N 
HETATM    3  C   UNL     1      41.679 -10.230   0.611  1.00  0.00     0.128 C 
HETATM    4  C   UNL     1      40.827 -10.927   1.664  1.00  0.00     0.055 C 
HETATM    5  C   UNL     1      40.713 -12.440   1.436  1.00  0.00     0.100 C 
HETATM    6  N   UNL     1      42.040 -13.067   1.682  1.00  0.00    -0.273 NA
HETATM    7  C   UNL     1      42.019 -14.453   1.915  1.00  0.00     0.036 A 
HETATM    8  C   UNL     1      40.886 -15.087   2.457  1.00  0.00     0.056 A 
HETATM    9  N   UNL     1      39.731 -14.342   2.713  1.00  0.00    -0.324 N 
HETATM   10  C   UNL     1      39.625 -13.012   2.391  1.00  0.00     0.245 C 
HETATM   11  O   UNL     1      38.639 -12.372   2.761  1.00  0.00    -0.271 OA
HETATM   12  C   UNL     1      43.189 -15.201   1.757  1.00  0.00     0.026 A 
HETATM   13  C   UNL     1      43.209 -16.565   2.062  1.00  0.00     0.002 A 
HETATM   14  C   UNL     1      42.067 -17.188   2.565  1.00  0.00     0.002 A 
HETATM   15  C   UNL     1      40.905 -16.446   2.775  1.00  0.00     0.031 A 
HETATM   16  C   UNL     1      40.243 -12.703  -0.007  1.00  0.00     0.055 C 
HETATM   17  C   UNL     1      41.105 -11.994  -1.041  1.00  0.00     0.128 C 
HETATM   18  O   UNL     1      40.792 -10.011  -2.919  1.00  0.00    -0.266 OA
HETATM   19  H   UNL     1      42.764 -12.805   1.019  1.00  0.00     0.129 HD
HETATM   20  H   UNL     1      38.970 -14.741   3.243  1.00  0.00     0.169 HD
ENDROOT
BRANCH   1  21
HETATM   21  C   UNL     1      41.857  -8.372  -1.686  1.00  0.00     0.119 A 
HETATM   22  N   UNL     1      41.066  -7.268  -1.508  1.00  0.00    -0.273 N 
HETATM   23  N   UNL     1      41.749  -6.122  -1.343  1.00  0.00    -0.179 NA
HETATM   24  H   UNL     1      40.052  -7.247  -1.468  1.00  0.00     0.189 HD
HETATM   25  C   UNL     1      43.026  -6.487  -1.498  1.00  0.00     0.057 A 
HETATM   26  C   UNL     1      43.141  -7.870  -1.763  1.00  0.00     0.065 A 
BRANCH  25  27
HETATM   27  C   UNL     1      44.131  -5.487  -1.382  1.00  0.00     0.065 C 
BRANCH  27  28
HETATM   28  C   UNL     1      43.794  -4.334  -0.416  1.00  0.00    -0.017 C 
HETATM   29  C   UNL     1      44.398  -3.007  -0.882  1.00  0.00     0.010 C 
HETATM   30  C   UNL     1      44.293  -4.666   0.992  1.00  0.00     0.010 C 
ENDBRANCH  27  28
ENDBRANCH  25  27
ENDBRANCH   1  21
TORSDOF 3
ENDMDL
MODEL 10
REMARK VINA RESULT:      -7.4      1.979      2.664
REMARK  3 active torsions:
REMARK  status: ('A' for Active; 'I' for Inactive)
REMARK    1  A    between atoms: C_2  and  C_3 
REMARK    2  A    between atoms: C_3  and  C_4 
REMARK    3  A    between atoms: C_8  and  C_9 
REMARK       I    between atoms: C_9  and  N_10 
ROOT
HETATM    1  C   UNL     1      44.837  -8.965   8.434  1.00  0.00     0.271 C 
HETATM    2  N   UNL     1      44.200 -10.053   7.822  1.00  0.00    -0.347 N 
HETATM    3  C   UNL     1      42.753 -10.248   7.753  1.00  0.00     0.128 C 
HETATM    4  C   UNL     1      42.304 -10.862   6.433  1.00  0.00     0.055 C 
HETATM    5  C   UNL     1      43.098 -12.121   6.059  1.00  0.00     0.100 C 
HETATM    6  N   UNL     1      42.754 -13.210   7.012  1.00  0.00    -0.273 NA
HETATM    7  C   UNL     1      43.064 -14.511   6.580  1.00  0.00     0.036 A 
HETATM    8  C   UNL     1      43.122 -14.835   5.213  1.00  0.00     0.056 A 
HETATM    9  N   UNL     1      42.930 -13.834   4.256  1.00  0.00    -0.324 N 
HETATM   10  C   UNL     1      42.753 -12.515   4.593  1.00  0.00     0.245 C 
HETATM   11  O   UNL     1      42.453 -11.698   3.720  1.00  0.00    -0.271 OA
HETATM   12  C   UNL     1      43.167 -15.547   7.514  1.00  0.00     0.026 A 
HETATM   13  C   UNL     1      43.395 -16.861   7.098  1.00  0.00     0.002 A 
HETATM   14  C   UNL     1      43.486 -17.161   5.739  1.00  0.00     0.002 A 
HETATM   15  C   UNL     1      43.337 -16.148   4.792  1.00  0.00     0.031 A 
HETATM   16  C   UNL     1      44.604 -11.807   6.109  1.00  0.00     0.055 C 
HETATM   17  C   UNL     1      45.030 -11.189   7.433  1.00  0.00     0.128 C 
HETATM   18  O   UNL     1      46.050  -8.794   8.314  1.00  0.00    -0.266 OA
HETATM   19  H   UNL     1      43.051 -13.047   7.970  1.00  0.00     0.129 HD
HETATM   20  H   UNL     1      42.811 -14.071   3.282  1.00  0.00     0.169 HD
ENDROOT
BRANCH   1  21
HETATM   21  C   UNL     1      44.061  -8.022   9.200  1.00  0.00     0.119 A 
HETATM   22  N   UNL     1      43.591  -8.333  10.449  1.00  0.00    -0.273 N 
HETATM   23  N   UNL     1      42.919  -7.336  11.049  1.00  0.00    -0.179 NA
HETATM   24  H   UNL     1      43.724  -9.208  10.948  1.00  0.00     0.189 HD
HETATM   25  C   UNL     1      42.884  -6.373  10.123  1.00  0.00     0.057 A 
HETATM   26  C   UNL     1      43.539  -6.770   8.936  1.00  0.00     0.065 A 
BRANCH  25  27
HETATM   27  C   UNL     1      42.218  -5.064  10.400  1.00  0.00     0.065 C 
BRANCH  27  28
HETATM   28  C   UNL     1      41.272  -4.623   9.266  1.00  0.00    -0.017 C 
HETATM   29  C   UNL     1      41.150  -3.099   9.187  1.00  0.00     0.010 C 
HETATM   30  C   UNL     1      39.888  -5.244   9.465  1.00  0.00     0.010 C 
ENDBRANCH  27  28
ENDBRANCH  25  27
ENDBRANCH   1  21
TORSDOF 3
ENDMDL
