MODEL 1
REMARK VINA RESULT:      -7.6      0.000      0.000
REMARK  4 active torsions:
REMARK  status: ('A' for Active; 'I' for Inactive)
REMARK    1  A    between atoms: O_2  and  C_3 
REMARK    2  A    between atoms: C_4  and  O_5 
REMARK    3  A    between atoms: C_9  and  N_10 
REMARK    4  A    between atoms: N_10  and  C_11 
ROOT
HETATM    1  C   UNL     1      43.947 -18.401   4.333  1.00  0.00     0.102 A 
HETATM    2  C   UNL     1      43.792 -17.085   4.783  1.00  0.00     0.118 A 
HETATM    3  C   UNL     1      43.347 -16.139   3.865  1.00  0.00     0.085 A 
HETATM    4  C   UNL     1      43.087 -16.444   2.539  1.00  0.00     0.005 A 
HETATM    5  C   UNL     1      42.642 -15.226   1.832  1.00  0.00     0.245 A 
HETATM    6  O   UNL     1      42.674 -14.214   2.849  1.00  0.00    -0.291 OA
HETATM    7  C   UNL     1      43.071 -14.720   4.060  1.00  0.00     0.298 A 
HETATM    8  O   UNL     1      43.140 -14.048   5.065  1.00  0.00    -0.259 OA
HETATM    9  C   UNL     1      43.279 -17.730   2.069  1.00  0.00     0.015 A 
HETATM   10  C   UNL     1      43.713 -18.703   2.974  1.00  0.00     0.040 A 
ENDROOT
BRANCH   5  11
HETATM   11  N   UNL     1      41.292 -15.373   1.318  1.00  0.00    -0.248 NA
HETATM   12  H   UNL     1      41.091 -16.352   1.118  1.00  0.00     0.132 HD
BRANCH  11  13
HETATM   13  C   UNL     1      40.806 -14.530   0.323  1.00  0.00     0.082 A 
HETATM   14  N   UNL     1      41.262 -13.272   0.178  1.00  0.00    -0.355 N 
HETATM   15  H   UNL     1      42.001 -12.961   0.814  1.00  0.00     0.166 HD
HETATM   16  C   UNL     1      40.770 -12.395  -0.710  1.00  0.00     0.108 A 
HETATM   17  C   UNL     1      39.714 -12.762  -1.529  1.00  0.00     0.026 A 
HETATM   18 BR   UNL     1      39.015 -11.541  -2.782  1.00  0.00    -0.050 Br
HETATM   19  C   UNL     1      39.168 -14.032  -1.400  1.00  0.00     0.024 A 
HETATM   20  C   UNL     1      39.705 -14.911  -0.457  1.00  0.00     0.043 A 
ENDBRANCH  11  13
ENDBRANCH   5  11
BRANCH   2  21
HETATM   21  O   UNL     1      44.004 -16.741   6.084  1.00  0.00    -0.352 OA
HETATM   22  C   UNL     1      42.864 -17.002   6.908  1.00  0.00     0.210 C 
ENDBRANCH   2  21
BRANCH   1  23
HETATM   23  O   UNL     1      44.360 -19.486   5.057  1.00  0.00    -0.353 OA
HETATM   24  C   UNL     1      44.027 -20.776   4.555  1.00  0.00     0.210 C 
ENDBRANCH   1  23
TORSDOF 4
ENDMDL
MODEL 2
REMARK VINA RESULT:      -7.3      1.938      3.124
REMARK  4 active torsions:
REMARK  status: ('A' for Active; 'I' for Inactive)
REMARK    1  A    between atoms: O_2  and  C_3 
REMARK    2  A    between atoms: C_4  and  O_5 
REMARK    3  A    between atoms: C_9  and  N_10 
REMARK    4  A    between atoms: N_10  and  C_11 
ROOT
HETATM    1  C   UNL     1      42.449 -16.555   6.085  1.00  0.00     0.102 A 
HETATM    2  C   UNL     1      42.892 -16.792   4.780  1.00  0.00     0.118 A 
HETATM    3  C   UNL     1      41.996 -16.555   3.742  1.00  0.00     0.085 A 
HETATM    4  C   UNL     1      40.695 -16.131   3.957  1.00  0.00     0.005 A 
HETATM    5  C   UNL     1      40.005 -15.982   2.659  1.00  0.00     0.245 A 
HETATM    6  O   UNL     1      41.005 -16.357   1.701  1.00  0.00    -0.291 OA
HETATM    7  C   UNL     1      42.192 -16.685   2.303  1.00  0.00     0.298 A 
HETATM    8  O   UNL     1      43.181 -17.003   1.682  1.00  0.00    -0.259 OA
HETATM    9  C   UNL     1      40.228 -15.936   5.244  1.00  0.00     0.015 A 
HETATM   10  C   UNL     1      41.113 -16.154   6.304  1.00  0.00     0.040 A 
ENDROOT
BRANCH   5  11
HETATM   11  N   UNL     1      39.588 -14.609   2.433  1.00  0.00    -0.248 NA
HETATM   12  H   UNL     1      38.621 -14.478   2.728  1.00  0.00     0.132 HD
BRANCH  11  13
HETATM   13  C   UNL     1      39.854 -13.966   1.228  1.00  0.00     0.082 A 
HETATM   14  N   UNL     1      39.519 -14.516   0.045  1.00  0.00    -0.355 N 
HETATM   15  H   UNL     1      39.038 -15.418   0.063  1.00  0.00     0.166 HD
HETATM   16  C   UNL     1      39.827 -13.976  -1.144  1.00  0.00     0.108 A 
HETATM   17  C   UNL     1      40.550 -12.794  -1.199  1.00  0.00     0.026 A 
HETATM   18 BR   UNL     1      40.985 -12.025  -2.862  1.00  0.00    -0.050 Br
HETATM   19  C   UNL     1      40.963 -12.199  -0.015  1.00  0.00     0.024 A 
HETATM   20  C   UNL     1      40.629 -12.799   1.202  1.00  0.00     0.043 A 
ENDBRANCH  11  13
ENDBRANCH   5  11
BRANCH   2  21
HETATM   21  O   UNL     1      44.171 -17.179   4.514  1.00  0.00    -0.352 OA
HETATM   22  C   UNL     1      44.342 -18.595   4.607  1.00  0.00     0.210 C 
ENDBRANCH   2  21
BRANCH   1  23
HETATM   23  O   UNL     1      43.156 -16.710   7.247  1.00  0.00    -0.353 OA
HETATM   24  C   UNL     1      43.134 -15.633   8.178  1.00  0.00     0.210 C 
ENDBRANCH   1  23
TORSDOF 4
ENDMDL
MODEL 3
REMARK VINA RESULT:      -7.0      4.787      6.621
REMARK  4 active torsions:
REMARK  status: ('A' for Active; 'I' for Inactive)
REMARK    1  A    between atoms: O_2  and  C_3 
REMARK    2  A    between atoms: C_4  and  O_5 
REMARK    3  A    between atoms: C_9  and  N_10 
REMARK    4  A    between atoms: N_10  and  C_11 
ROOT
HETATM    1  C   UNL     1      43.554 -17.522   4.487  1.00  0.00     0.102 A 
HETATM    2  C   UNL     1      42.674 -16.504   4.104  1.00  0.00     0.118 A 
HETATM    3  C   UNL     1      42.622 -15.365   4.901  1.00  0.00     0.085 A 
HETATM    4  C   UNL     1      43.375 -15.220   6.054  1.00  0.00     0.005 A 
HETATM    5  C   UNL     1      43.085 -13.909   6.671  1.00  0.00     0.245 A 
HETATM    6  O   UNL     1      42.114 -13.329   5.788  1.00  0.00    -0.291 OA
HETATM    7  C   UNL     1      41.830 -14.152   4.730  1.00  0.00     0.298 A 
HETATM    8  O   UNL     1      41.059 -13.849   3.847  1.00  0.00    -0.259 OA
HETATM    9  C   UNL     1      44.216 -16.236   6.470  1.00  0.00     0.015 A 
HETATM   10  C   UNL     1      44.297 -17.387   5.680  1.00  0.00     0.040 A 
ENDROOT
BRANCH   5  11
HETATM   11  N   UNL     1      44.271 -13.073   6.726  1.00  0.00    -0.248 NA
HETATM   12  H   UNL     1      45.075 -13.615   7.041  1.00  0.00     0.132 HD
BRANCH  11  13
HETATM   13  C   UNL     1      44.235 -11.811   7.310  1.00  0.00     0.082 A 
HETATM   14  N   UNL     1      43.071 -11.196   7.591  1.00  0.00    -0.355 N 
HETATM   15  H   UNL     1      42.207 -11.701   7.380  1.00  0.00     0.166 HD
HETATM   16  C   UNL     1      42.983  -9.949   8.078  1.00  0.00     0.108 A 
HETATM   17  C   UNL     1      44.135  -9.211   8.298  1.00  0.00     0.026 A 
HETATM   18 BR   UNL     1      44.023  -7.460   8.983  1.00  0.00    -0.050 Br
HETATM   19  C   UNL     1      45.366  -9.772   7.988  1.00  0.00     0.024 A 
HETATM   20  C   UNL     1      45.414 -11.070   7.475  1.00  0.00     0.043 A 
ENDBRANCH  11  13
ENDBRANCH   5  11
BRANCH   2  21
HETATM   21  O   UNL     1      41.936 -16.584   2.962  1.00  0.00    -0.352 OA
HETATM   22  C   UNL     1      42.680 -16.193   1.805  1.00  0.00     0.210 C 
ENDBRANCH   2  21
BRANCH   1  23
HETATM   23  O   UNL     1      43.775 -18.715   3.854  1.00  0.00    -0.353 OA
HETATM   24  C   UNL     1      44.336 -19.773   4.624  1.00  0.00     0.210 C 
ENDBRANCH   1  23
TORSDOF 4
ENDMDL
MODEL 4
REMARK VINA RESULT:      -6.8      2.425      3.210
REMARK  4 active torsions:
REMARK  status: ('A' for Active; 'I' for Inactive)
REMARK    1  A    between atoms: O_2  and  C_3 
REMARK    2  A    between atoms: C_4  and  O_5 
REMARK    3  A    between atoms: C_9  and  N_10 
REMARK    4  A    between atoms: N_10  and  C_11 
ROOT
HETATM    1  C   UNL     1      43.792 -18.370   3.056  1.00  0.00     0.102 A 
HETATM    2  C   UNL     1      44.081 -18.100   4.398  1.00  0.00     0.118 A 
HETATM    3  C   UNL     1      43.724 -16.850   4.894  1.00  0.00     0.085 A 
HETATM    4  C   UNL     1      43.133 -15.872   4.111  1.00  0.00     0.005 A 
HETATM    5  C   UNL     1      42.891 -14.666   4.929  1.00  0.00     0.245 A 
HETATM    6  O   UNL     1      43.391 -15.030   6.223  1.00  0.00    -0.291 OA
HETATM    7  C   UNL     1      43.875 -16.312   6.242  1.00  0.00     0.298 A 
HETATM    8  O   UNL     1      44.319 -16.836   7.239  1.00  0.00    -0.259 OA
HETATM    9  C   UNL     1      42.882 -16.109   2.772  1.00  0.00     0.015 A 
HETATM   10  C   UNL     1      43.218 -17.362   2.251  1.00  0.00     0.040 A 
ENDROOT
BRANCH   5  11
HETATM   11  N   UNL     1      41.475 -14.355   5.011  1.00  0.00    -0.248 NA
HETATM   12  H   UNL     1      40.931 -15.205   5.153  1.00  0.00     0.132 HD
BRANCH  11  13
HETATM   13  C   UNL     1      40.872 -13.501   4.093  1.00  0.00     0.082 A 
HETATM   14  N   UNL     1      39.612 -13.703   3.662  1.00  0.00    -0.355 N 
HETATM   15  H   UNL     1      39.101 -14.498   4.053  1.00  0.00     0.166 HD
HETATM   16  C   UNL     1      39.016 -12.959   2.718  1.00  0.00     0.108 A 
HETATM   17  C   UNL     1      39.713 -11.925   2.112  1.00  0.00     0.026 A 
HETATM   18 BR   UNL     1      38.887 -10.872   0.788  1.00  0.00    -0.050 Br
HETATM   19  C   UNL     1      41.031 -11.692   2.480  1.00  0.00     0.024 A 
HETATM   20  C   UNL     1      41.617 -12.496   3.461  1.00  0.00     0.043 A 
ENDBRANCH  11  13
ENDBRANCH   5  11
BRANCH   2  21
HETATM   21  O   UNL     1      44.632 -19.038   5.217  1.00  0.00    -0.352 OA
HETATM   22  C   UNL     1      43.662 -19.964   5.714  1.00  0.00     0.210 C 
ENDBRANCH   2  21
BRANCH   1  23
HETATM   23  O   UNL     1      44.042 -19.525   2.366  1.00  0.00    -0.353 OA
HETATM   24  C   UNL     1      42.921 -20.297   1.947  1.00  0.00     0.210 C 
ENDBRANCH   1  23
TORSDOF 4
ENDMDL
MODEL 5
REMARK VINA RESULT:      -6.8      1.697      2.034
REMARK  4 active torsions:
REMARK  status: ('A' for Active; 'I' for Inactive)
REMARK    1  A    between atoms: O_2  and  C_3 
REMARK    2  A    between atoms: C_4  and  O_5 
REMARK    3  A    between atoms: C_9  and  N_10 
REMARK    4  A    between atoms: N_10  and  C_11 
ROOT
HETATM    1  C   UNL     1      42.943 -17.085   3.884  1.00  0.00     0.102 A 
HETATM    2  C   UNL     1      42.074 -16.044   4.229  1.00  0.00     0.118 A 
HETATM    3  C   UNL     1      41.738 -15.130   3.236  1.00  0.00     0.085 A 
HETATM    4  C   UNL     1      42.250 -15.195   1.951  1.00  0.00     0.005 A 
HETATM    5  C   UNL     1      41.709 -14.080   1.147  1.00  0.00     0.245 A 
HETATM    6  O   UNL     1      40.861 -13.381   2.069  1.00  0.00    -0.291 OA
HETATM    7  C   UNL     1      40.844 -13.979   3.302  1.00  0.00     0.298 A 
HETATM    8  O   UNL     1      40.173 -13.572   4.224  1.00  0.00    -0.259 OA
HETATM    9  C   UNL     1      43.146 -16.192   1.607  1.00  0.00     0.015 A 
HETATM   10  C   UNL     1      43.489 -17.132   2.583  1.00  0.00     0.040 A 
ENDROOT
BRANCH   5  11
HETATM   11  N   UNL     1      40.928 -14.566   0.022  1.00  0.00    -0.248 NA
HETATM   12  H   UNL     1      41.513 -15.115  -0.607  1.00  0.00     0.132 HD
BRANCH  11  13
HETATM   13  C   UNL     1      40.068 -13.722  -0.673  1.00  0.00     0.082 A 
HETATM   14  N   UNL     1      39.060 -13.077  -0.056  1.00  0.00    -0.355 N 
HETATM   15  H   UNL     1      38.962 -13.211   0.953  1.00  0.00     0.166 HD
HETATM   16  C   UNL     1      38.156 -12.319  -0.694  1.00  0.00     0.108 A 
HETATM   17  C   UNL     1      38.216 -12.186  -2.072  1.00  0.00     0.026 A 
HETATM   18 BR   UNL     1      36.954 -11.122  -2.979  1.00  0.00    -0.050 Br
HETATM   19  C   UNL     1      39.206 -12.861  -2.774  1.00  0.00     0.024 A 
HETATM   20  C   UNL     1      40.123 -13.646  -2.072  1.00  0.00     0.043 A 
ENDBRANCH  11  13
ENDBRANCH   5  11
BRANCH   2  21
HETATM   21  O   UNL     1      41.518 -15.954   5.470  1.00  0.00    -0.352 OA
HETATM   22  C   UNL     1      42.375 -15.292   6.403  1.00  0.00     0.210 C 
ENDBRANCH   2  21
BRANCH   1  23
HETATM   23  O   UNL     1      43.396 -18.094   4.689  1.00  0.00    -0.353 OA
HETATM   24  C   UNL     1      44.452 -18.909   4.191  1.00  0.00     0.210 C 
ENDBRANCH   1  23
TORSDOF 4
ENDMDL
MODEL 6
REMARK VINA RESULT:      -6.7     14.138     16.305
REMARK  4 active torsions:
REMARK  status: ('A' for Active; 'I' for Inactive)
REMARK    1  A    between atoms: O_2  and  C_3 
REMARK    2  A    between atoms: C_4  and  O_5 
REMARK    3  A    between atoms: C_9  and  N_10 
REMARK    4  A    between atoms: N_10  and  C_11 
ROOT
HETATM    1  C   UNL     1      44.946 -30.073  -2.885  1.00  0.00     0.102 A 
HETATM    2  C   UNL     1      46.325 -30.109  -2.649  1.00  0.00     0.118 A 
HETATM    3  C   UNL     1      46.826 -29.291  -1.640  1.00  0.00     0.085 A 
HETATM    4  C   UNL     1      46.027 -28.437  -0.899  1.00  0.00     0.005 A 
HETATM    5  C   UNL     1      46.860 -27.707   0.079  1.00  0.00     0.245 A 
HETATM    6  O   UNL     1      48.183 -28.205  -0.168  1.00  0.00    -0.291 OA
HETATM    7  C   UNL     1      48.197 -29.148  -1.162  1.00  0.00     0.298 A 
HETATM    8  O   UNL     1      49.203 -29.723  -1.512  1.00  0.00    -0.259 OA
HETATM    9  C   UNL     1      44.669 -28.358  -1.152  1.00  0.00     0.015 A 
HETATM   10  C   UNL     1      44.138 -29.178  -2.151  1.00  0.00     0.040 A 
ENDROOT
BRANCH   5  11
HETATM   11  N   UNL     1      46.462 -28.003   1.443  1.00  0.00    -0.248 NA
HETATM   12  H   UNL     1      46.106 -27.165   1.901  1.00  0.00     0.132 HD
BRANCH  11  13
HETATM   13  C   UNL     1      47.282 -28.746   2.286  1.00  0.00     0.082 A 
HETATM   14  N   UNL     1      48.412 -28.230   2.806  1.00  0.00    -0.355 N 
HETATM   15  H   UNL     1      48.637 -27.259   2.578  1.00  0.00     0.166 HD
HETATM   16  C   UNL     1      49.277 -28.930   3.556  1.00  0.00     0.108 A 
HETATM   17  C   UNL     1      49.040 -30.271   3.814  1.00  0.00     0.026 A 
HETATM   18 BR   UNL     1      50.246 -31.263   4.867  1.00  0.00    -0.050 Br
HETATM   19  C   UNL     1      47.914 -30.874   3.270  1.00  0.00     0.024 A 
HETATM   20  C   UNL     1      47.043 -30.113   2.489  1.00  0.00     0.043 A 
ENDBRANCH  11  13
ENDBRANCH   5  11
BRANCH   2  21
HETATM   21  O   UNL     1      47.149 -30.955  -3.328  1.00  0.00    -0.352 OA
HETATM   22  C   UNL     1      47.122 -32.282  -2.798  1.00  0.00     0.210 C 
ENDBRANCH   2  21
BRANCH   1  23
HETATM   23  O   UNL     1      44.241 -30.791  -3.811  1.00  0.00    -0.353 OA
HETATM   24  C   UNL     1      44.158 -30.262  -5.131  1.00  0.00     0.210 C 
ENDBRANCH   1  23
TORSDOF 4
ENDMDL
MODEL 7
REMARK VINA RESULT:      -6.7      4.473      7.224
REMARK  4 active torsions:
REMARK  status: ('A' for Active; 'I' for Inactive)
REMARK    1  A    between atoms: O_2  and  C_3 
REMARK    2  A    between atoms: C_4  and  O_5 
REMARK    3  A    between atoms: C_9  and  N_10 
REMARK    4  A    between atoms: N_10  and  C_11 
ROOT
HETATM    1  C   UNL     1      43.691 -10.518   7.484  1.00  0.00     0.102 A 
HETATM    2  C   UNL     1      42.497 -10.732   6.785  1.00  0.00     0.118 A 
HETATM    3  C   UNL     1      42.438 -11.832   5.935  1.00  0.00     0.085 A 
HETATM    4  C   UNL     1      43.510 -12.686   5.737  1.00  0.00     0.005 A 
HETATM    5  C   UNL     1      43.128 -13.740   4.775  1.00  0.00     0.245 A 
HETATM    6  O   UNL     1      41.771 -13.417   4.441  1.00  0.00    -0.291 OA
HETATM    7  C   UNL     1      41.329 -12.309   5.116  1.00  0.00     0.298 A 
HETATM    8  O   UNL     1      40.204 -11.875   5.009  1.00  0.00    -0.259 OA
HETATM    9  C   UNL     1      44.710 -12.461   6.386  1.00  0.00     0.015 A 
HETATM   10  C   UNL     1      44.792 -11.371   7.257  1.00  0.00     0.040 A 
ENDROOT
BRANCH   5  11
HETATM   11  N   UNL     1      43.193 -15.060   5.378  1.00  0.00    -0.248 NA
HETATM   12  H   UNL     1      43.826 -15.056   6.176  1.00  0.00     0.132 HD
BRANCH  11  13
HETATM   13  C   UNL     1      43.350 -16.200   4.597  1.00  0.00     0.082 A 
HETATM   14  N   UNL     1      42.651 -16.379   3.460  1.00  0.00    -0.355 N 
HETATM   15  H   UNL     1      42.013 -15.633   3.176  1.00  0.00     0.166 HD
HETATM   16  C   UNL     1      42.706 -17.495   2.716  1.00  0.00     0.108 A 
HETATM   17  C   UNL     1      43.500 -18.556   3.121  1.00  0.00     0.026 A 
HETATM   18 BR   UNL     1      43.587 -20.126   2.085  1.00  0.00    -0.050 Br
HETATM   19  C   UNL     1      44.213 -18.452   4.308  1.00  0.00     0.024 A 
HETATM   20  C   UNL     1      44.122 -17.276   5.057  1.00  0.00     0.043 A 
ENDBRANCH  11  13
ENDBRANCH   5  11
BRANCH   2  21
HETATM   21  O   UNL     1      41.405  -9.940   6.970  1.00  0.00    -0.352 OA
HETATM   22  C   UNL     1      41.444  -8.761   6.160  1.00  0.00     0.210 C 
ENDBRANCH   2  21
BRANCH   1  23
HETATM   23  O   UNL     1      43.968  -9.515   8.372  1.00  0.00    -0.353 OA
HETATM   24  C   UNL     1      45.309  -9.041   8.432  1.00  0.00     0.210 C 
ENDBRANCH   1  23
TORSDOF 4
ENDMDL
MODEL 8
REMARK VINA RESULT:      -6.6     13.921     15.441
REMARK  4 active torsions:
REMARK  status: ('A' for Active; 'I' for Inactive)
REMARK    1  A    between atoms: O_2  and  C_3 
REMARK    2  A    between atoms: C_4  and  O_5 
REMARK    3  A    between atoms: C_9  and  N_10 
REMARK    4  A    between atoms: N_10  and  C_11 
ROOT
HETATM    1  C   UNL     1      49.915 -30.025  -0.688  1.00  0.00     0.102 A 
HETATM    2  C   UNL     1      49.269 -29.781   0.529  1.00  0.00     0.118 A 
HETATM    3  C   UNL     1      48.027 -29.156   0.485  1.00  0.00     0.085 A 
HETATM    4  C   UNL     1      47.434 -28.747  -0.698  1.00  0.00     0.005 A 
HETATM    5  C   UNL     1      46.132 -28.113  -0.403  1.00  0.00     0.245 A 
HETATM    6  O   UNL     1      46.036 -28.189   1.026  1.00  0.00    -0.291 OA
HETATM    7  C   UNL     1      47.127 -28.809   1.579  1.00  0.00     0.298 A 
HETATM    8  O   UNL     1      47.241 -29.007   2.768  1.00  0.00    -0.259 OA
HETATM    9  C   UNL     1      48.081 -28.941  -1.905  1.00  0.00     0.015 A 
HETATM   10  C   UNL     1      49.324 -29.579  -1.890  1.00  0.00     0.040 A 
ENDROOT
BRANCH   5  11
HETATM   11  N   UNL     1      45.036 -28.842  -1.016  1.00  0.00    -0.248 NA
HETATM   12  H   UNL     1      44.626 -28.298  -1.774  1.00  0.00     0.132 HD
BRANCH  11  13
HETATM   13  C   UNL     1      44.063 -29.463  -0.239  1.00  0.00     0.082 A 
HETATM   14  N   UNL     1      43.252 -28.759   0.573  1.00  0.00    -0.355 N 
HETATM   15  H   UNL     1      43.360 -27.742   0.582  1.00  0.00     0.166 HD
HETATM   16  C   UNL     1      42.356 -29.317   1.401  1.00  0.00     0.108 A 
HETATM   17  C   UNL     1      42.244 -30.697   1.469  1.00  0.00     0.026 A 
HETATM   18 BR   UNL     1      40.988 -31.492   2.626  1.00  0.00    -0.050 Br
HETATM   19  C   UNL     1      43.082 -31.482   0.689  1.00  0.00     0.024 A 
HETATM   20  C   UNL     1      44.007 -30.861  -0.154  1.00  0.00     0.043 A 
ENDBRANCH  11  13
ENDBRANCH   5  11
BRANCH   2  21
HETATM   21  O   UNL     1      49.795 -30.192   1.717  1.00  0.00    -0.352 OA
HETATM   22  C   UNL     1      49.507 -31.566   1.993  1.00  0.00     0.210 C 
ENDBRANCH   2  21
BRANCH   1  23
HETATM   23  O   UNL     1      51.126 -30.630  -0.882  1.00  0.00    -0.353 OA
HETATM   24  C   UNL     1      51.622 -30.697  -2.215  1.00  0.00     0.210 C 
ENDBRANCH   1  23
TORSDOF 4
ENDMDL
MODEL 9
REMARK VINA RESULT:      -6.5      4.067      6.390
REMARK  4 active torsions:
REMARK  status: ('A' for Active; 'I' for Inactive)
REMARK    1  A    between atoms: O_2  and  C_3 
REMARK    2  A    between atoms: C_4  and  O_5 
REMARK    3  A    between atoms: C_9  and  N_10 
REMARK    4  A    between atoms: N_10  and  C_11 
ROOT
HETATM    1  C   UNL     1      42.607 -12.546   4.741  1.00  0.00     0.102 A 
HETATM    2  C   UNL     1      41.727 -13.617   4.929  1.00  0.00     0.118 A 
HETATM    3  C   UNL     1      41.647 -14.569   3.917  1.00  0.00     0.085 A 
HETATM    4  C   UNL     1      42.371 -14.477   2.741  1.00  0.00     0.005 A 
HETATM    5  C   UNL     1      42.056 -15.633   1.876  1.00  0.00     0.245 A 
HETATM    6  O   UNL     1      41.100 -16.378   2.645  1.00  0.00    -0.291 OA
HETATM    7  C   UNL     1      40.848 -15.788   3.856  1.00  0.00     0.298 A 
HETATM    8  O   UNL     1      40.096 -16.263   4.677  1.00  0.00    -0.259 OA
HETATM    9  C   UNL     1      43.212 -13.401   2.521  1.00  0.00     0.015 A 
HETATM   10  C   UNL     1      43.321 -12.437   3.528  1.00  0.00     0.040 A 
ENDROOT
BRANCH   5  11
HETATM   11  N   UNL     1      43.233 -16.444   1.622  1.00  0.00    -0.248 NA
HETATM   12  H   UNL     1      43.301 -16.675   0.632  1.00  0.00     0.132 HD
BRANCH  11  13
HETATM   13  C   UNL     1      43.542 -17.534   2.430  1.00  0.00     0.082 A 
HETATM   14  N   UNL     1      43.179 -18.787   2.097  1.00  0.00    -0.355 N 
HETATM   15  H   UNL     1      42.684 -18.914   1.211  1.00  0.00     0.166 HD
HETATM   16  C   UNL     1      43.381 -19.857   2.879  1.00  0.00     0.108 A 
HETATM   17  C   UNL     1      43.977 -19.702   4.121  1.00  0.00     0.026 A 
HETATM   18 BR   UNL     1      44.267 -21.198   5.228  1.00  0.00    -0.050 Br
HETATM   19  C   UNL     1      44.336 -18.430   4.544  1.00  0.00     0.024 A 
HETATM   20  C   UNL     1      44.101 -17.340   3.702  1.00  0.00     0.043 A 
ENDBRANCH  11  13
ENDBRANCH   5  11
BRANCH   2  21
HETATM   21  O   UNL     1      41.017 -13.770   6.081  1.00  0.00    -0.352 OA
HETATM   22  C   UNL     1      39.823 -12.982   6.093  1.00  0.00     0.210 C 
ENDBRANCH   2  21
BRANCH   1  23
HETATM   23  O   UNL     1      42.853 -11.509   5.599  1.00  0.00    -0.353 OA
HETATM   24  C   UNL     1      44.210 -11.246   5.941  1.00  0.00     0.210 C 
ENDBRANCH   1  23
TORSDOF 4
ENDMDL
MODEL 10
REMARK VINA RESULT:      -6.5      2.441      3.031
REMARK  4 active torsions:
REMARK  status: ('A' for Active; 'I' for Inactive)
REMARK    1  A    between atoms: O_2  and  C_3 
REMARK    2  A    between atoms: C_4  and  O_5 
REMARK    3  A    between atoms: C_9  and  N_10 
REMARK    4  A    between atoms: N_10  and  C_11 
ROOT
HETATM    1  C   UNL     1      41.790 -15.126   5.705  1.00  0.00     0.102 A 
HETATM    2  C   UNL     1      42.075 -13.975   4.963  1.00  0.00     0.118 A 
HETATM    3  C   UNL     1      42.003 -14.070   3.576  1.00  0.00     0.085 A 
HETATM    4  C   UNL     1      41.696 -15.249   2.919  1.00  0.00     0.005 A 
HETATM    5  C   UNL     1      41.710 -15.018   1.459  1.00  0.00     0.245 A 
HETATM    6  O   UNL     1      42.052 -13.630   1.342  1.00  0.00    -0.291 OA
HETATM    7  C   UNL     1      42.217 -13.038   2.567  1.00  0.00     0.298 A 
HETATM    8  O   UNL     1      42.479 -11.864   2.703  1.00  0.00    -0.259 OA
HETATM    9  C   UNL     1      41.456 -16.406   3.638  1.00  0.00     0.015 A 
HETATM   10  C   UNL     1      41.508 -16.336   5.033  1.00  0.00     0.040 A 
ENDROOT
BRANCH   5  11
HETATM   11  N   UNL     1      40.406 -15.262   0.870  1.00  0.00    -0.248 NA
HETATM   12  H   UNL     1      40.365 -16.199   0.470  1.00  0.00     0.132 HD
BRANCH  11  13
HETATM   13  C   UNL     1      39.803 -14.319   0.043  1.00  0.00     0.082 A 
HETATM   14  N   UNL     1      39.356 -13.143   0.523  1.00  0.00    -0.355 N 
HETATM   15  H   UNL     1      39.496 -12.955   1.518  1.00  0.00     0.166 HD
HETATM   16  C   UNL     1      38.695 -12.237  -0.214  1.00  0.00     0.108 A 
HETATM   17  C   UNL     1      38.420 -12.501  -1.547  1.00  0.00     0.026 A 
HETATM   18 BR   UNL     1      37.496 -11.236  -2.593  1.00  0.00    -0.050 Br
HETATM   19  C   UNL     1      38.816 -13.715  -2.092  1.00  0.00     0.024 A 
HETATM   20  C   UNL     1      39.494 -14.634  -1.287  1.00  0.00     0.043 A 
ENDBRANCH  11  13
ENDBRANCH   5  11
BRANCH   2  21
HETATM   21  O   UNL     1      42.351 -12.784   5.562  1.00  0.00    -0.352 OA
HETATM   22  C   UNL     1      43.729 -12.663   5.924  1.00  0.00     0.210 C 
ENDBRANCH   2  21
BRANCH   1  23
HETATM   23  O   UNL     1      41.790 -15.261   7.066  1.00  0.00    -0.353 OA
HETATM   24  C   UNL     1      42.968 -15.778   7.677  1.00  0.00     0.210 C 
ENDBRANCH   1  23
TORSDOF 4
ENDMDL
