MODEL 1
REMARK VINA RESULT:      -8.7      0.000      0.000
REMARK  6 active torsions:
REMARK  status: ('A' for Active; 'I' for Inactive)
REMARK    1  A    between atoms: C_9  and  C_10 
REMARK    2  A    between atoms: C_10  and  N_11 
REMARK       I    between atoms: N_11  and  C_12 
REMARK    3  A    between atoms: N_11  and  C_22 
REMARK    4  A    between atoms: C_12  and  C_13 
REMARK    5  A    between atoms: C_15  and  O_16 
REMARK    6  A    between atoms: C_22  and  C_23 
ROOT
HETATM    1  N   UNL     1      41.822 -14.462   3.587  1.00  0.00    -0.341 N 
HETATM    2  C   UNL     1      41.391 -15.706   4.084  1.00  0.00     0.254 C 
HETATM    3  O   UNL     1      40.221 -15.965   4.361  1.00  0.00    -0.267 OA
ENDROOT
BRANCH   1   4
HETATM    4  C   UNL     1      40.755 -13.507   3.270  1.00  0.00     0.170 C 
BRANCH   4   5
HETATM    5  C   UNL     1      40.688 -13.198   1.799  1.00  0.00     0.029 A 
HETATM    6  C   UNL     1      41.316 -11.927   1.325  1.00  0.00     0.253 A 
HETATM    7  N   UNL     1      41.227 -11.649  -0.016  1.00  0.00    -0.322 N 
HETATM    8  O   UNL     1      41.882 -11.145   2.086  1.00  0.00    -0.268 OA
HETATM    9  C   UNL     1      40.532 -12.447  -0.931  1.00  0.00     0.045 A 
HETATM   10  H   UNL     1      41.666 -10.791  -0.318  1.00  0.00     0.169 HD
HETATM   11  C   UNL     1      39.910 -13.616  -0.482  1.00  0.00    -0.008 A 
HETATM   12  C   UNL     1      40.443 -12.063  -2.267  1.00  0.00     0.031 A 
HETATM   13  C   UNL     1      39.171 -14.392  -1.380  1.00  0.00     0.020 A 
HETATM   14  C   UNL     1      40.030 -13.984   0.926  1.00  0.00     0.028 A 
HETATM   15  C   UNL     1      39.043 -13.998  -2.720  1.00  0.00    -0.061 A 
HETATM   16  C   UNL     1      38.251 -14.834  -3.682  1.00  0.00     0.048 C 
HETATM   17  C   UNL     1      39.702 -12.842  -3.160  1.00  0.00     0.009 A 
ENDBRANCH   4   5
ENDBRANCH   1   4
BRANCH   1  18
HETATM   18  C   UNL     1      43.116 -13.924   4.066  1.00  0.00     0.158 C 
BRANCH  18  19
HETATM   19  C   UNL     1      43.067 -12.824   5.140  1.00  0.00     0.139 C 
HETATM   20  O   UNL     1      43.510 -13.346   6.414  1.00  0.00    -0.384 OA
HETATM   21  C   UNL     1      44.317 -12.355   7.065  1.00  0.00     0.168 C 
HETATM   22  C   UNL     1      44.236 -11.099   6.225  1.00  0.00     0.029 C 
HETATM   23  C   UNL     1      44.004 -11.661   4.845  1.00  0.00     0.035 C 
ENDBRANCH  18  19
ENDBRANCH   1  18
BRANCH   2  24
HETATM   24  C   UNL     1      42.390 -16.786   4.280  1.00  0.00     0.034 A 
HETATM   25  C   UNL     1      42.834 -17.500   3.159  1.00  0.00     0.053 A 
HETATM   26  C   UNL     1      43.799 -18.495   3.307  1.00  0.00     0.069 A 
HETATM   27  C   UNL     1      44.309 -18.772   4.580  1.00  0.00     0.037 A 
HETATM   28  C   UNL     1      43.890 -18.040   5.694  1.00  0.00     0.004 A 
HETATM   29  C   UNL     1      42.939 -17.033   5.543  1.00  0.00     0.017 A 
BRANCH  26  30
HETATM   30  O   UNL     1      44.316 -19.267   2.303  1.00  0.00    -0.356 OA
HETATM   31  C   UNL     1      43.536 -20.386   1.896  1.00  0.00     0.210 C 
ENDBRANCH  26  30
ENDBRANCH   2  24
TORSDOF 6
ENDMDL
MODEL 2
REMARK VINA RESULT:      -8.6      2.264      6.949
REMARK  6 active torsions:
REMARK  status: ('A' for Active; 'I' for Inactive)
REMARK    1  A    between atoms: C_9  and  C_10 
REMARK    2  A    between atoms: C_10  and  N_11 
REMARK       I    between atoms: N_11  and  C_12 
REMARK    3  A    between atoms: N_11  and  C_22 
REMARK    4  A    between atoms: C_12  and  C_13 
REMARK    5  A    between atoms: C_15  and  O_16 
REMARK    6  A    between atoms: C_22  and  C_23 
ROOT
HETATM    1  N   UNL     1      41.666 -13.637   3.900  1.00  0.00    -0.341 N 
HETATM    2  C   UNL     1      42.256 -13.123   2.730  1.00  0.00     0.254 C 
HETATM    3  O   UNL     1      43.450 -12.851   2.628  1.00  0.00    -0.267 OA
ENDROOT
BRANCH   1   4
HETATM    4  C   UNL     1      42.600 -13.975   4.978  1.00  0.00     0.170 C 
BRANCH   4   5
HETATM    5  C   UNL     1      42.918 -15.446   5.013  1.00  0.00     0.029 A 
HETATM    6  C   UNL     1      43.355 -16.034   6.317  1.00  0.00     0.253 A 
HETATM    7  N   UNL     1      43.662 -17.371   6.327  1.00  0.00    -0.322 N 
HETATM    8  O   UNL     1      43.454 -15.365   7.343  1.00  0.00    -0.268 OA
HETATM    9  C   UNL     1      43.652 -18.179   5.185  1.00  0.00     0.045 A 
HETATM   10  H   UNL     1      43.946 -17.751   7.218  1.00  0.00     0.169 HD
HETATM   11  C   UNL     1      43.282 -17.622   3.958  1.00  0.00    -0.008 A 
HETATM   12  C   UNL     1      44.031 -19.517   5.273  1.00  0.00     0.031 A 
HETATM   13  C   UNL     1      43.318 -18.411   2.804  1.00  0.00     0.020 A 
HETATM   14  C   UNL     1      42.887 -16.217   3.910  1.00  0.00     0.028 A 
HETATM   15  C   UNL     1      43.732 -19.749   2.871  1.00  0.00    -0.061 A 
HETATM   16  C   UNL     1      43.768 -20.593   1.631  1.00  0.00     0.048 C 
HETATM   17  C   UNL     1      44.067 -20.300   4.116  1.00  0.00     0.009 A 
ENDBRANCH   4   5
ENDBRANCH   1   4
BRANCH   1  18
HETATM   18  C   UNL     1      40.316 -13.157   4.276  1.00  0.00     0.158 C 
BRANCH  18  19
HETATM   19  C   UNL     1      40.222 -11.782   4.959  1.00  0.00     0.139 C 
HETATM   20  O   UNL     1      39.419 -10.879   4.163  1.00  0.00    -0.384 OA
HETATM   21  C   UNL     1      38.596 -10.098   5.039  1.00  0.00     0.168 C 
HETATM   22  C   UNL     1      39.026 -10.420   6.453  1.00  0.00     0.029 C 
HETATM   23  C   UNL     1      39.527 -11.835   6.312  1.00  0.00     0.035 C 
ENDBRANCH  18  19
ENDBRANCH   1  18
BRANCH   2  24
HETATM   24  C   UNL     1      41.404 -12.904   1.534  1.00  0.00     0.034 A 
HETATM   25  C   UNL     1      40.853 -14.019   0.889  1.00  0.00     0.053 A 
HETATM   26  C   UNL     1      40.021 -13.842  -0.215  1.00  0.00     0.069 A 
HETATM   27  C   UNL     1      39.749 -12.547  -0.668  1.00  0.00     0.037 A 
HETATM   28  C   UNL     1      40.272 -11.432  -0.007  1.00  0.00     0.004 A 
HETATM   29  C   UNL     1      41.090 -11.608   1.107  1.00  0.00     0.017 A 
BRANCH  26  30
HETATM   30  O   UNL     1      39.422 -14.839  -0.936  1.00  0.00    -0.356 OA
HETATM   31  C   UNL     1      39.128 -14.548  -2.298  1.00  0.00     0.210 C 
ENDBRANCH  26  30
ENDBRANCH   2  24
TORSDOF 6
ENDMDL
MODEL 3
REMARK VINA RESULT:      -8.5      2.226      7.419
REMARK  6 active torsions:
REMARK  status: ('A' for Active; 'I' for Inactive)
REMARK    1  A    between atoms: C_9  and  C_10 
REMARK    2  A    between atoms: C_10  and  N_11 
REMARK       I    between atoms: N_11  and  C_12 
REMARK    3  A    between atoms: N_11  and  C_22 
REMARK    4  A    between atoms: C_12  and  C_13 
REMARK    5  A    between atoms: C_15  and  O_16 
REMARK    6  A    between atoms: C_22  and  C_23 
ROOT
HETATM    1  N   UNL     1      40.743 -13.559   1.271  1.00  0.00    -0.341 N 
HETATM    2  C   UNL     1      40.710 -12.848   0.057  1.00  0.00     0.254 C 
HETATM    3  O   UNL     1      41.526 -11.981  -0.251  1.00  0.00    -0.267 OA
ENDROOT
BRANCH   1   4
HETATM    4  C   UNL     1      41.916 -13.308   2.115  1.00  0.00     0.170 C 
BRANCH   4   5
HETATM    5  C   UNL     1      42.407 -14.560   2.791  1.00  0.00     0.029 A 
HETATM    6  C   UNL     1      42.917 -14.442   4.192  1.00  0.00     0.253 A 
HETATM    7  N   UNL     1      43.381 -15.588   4.786  1.00  0.00    -0.322 N 
HETATM    8  O   UNL     1      42.938 -13.374   4.799  1.00  0.00    -0.268 OA
HETATM    9  C   UNL     1      43.463 -16.823   4.133  1.00  0.00     0.045 A 
HETATM   10  H   UNL     1      43.711 -15.490   5.734  1.00  0.00     0.169 HD
HETATM   11  C   UNL     1      43.025 -16.927   2.810  1.00  0.00    -0.008 A 
HETATM   12  C   UNL     1      44.001 -17.927   4.792  1.00  0.00     0.031 A 
HETATM   13  C   UNL     1      43.151 -18.145   2.136  1.00  0.00     0.020 A 
HETATM   14  C   UNL     1      42.465 -15.746   2.157  1.00  0.00     0.028 A 
HETATM   15  C   UNL     1      43.723 -19.254   2.774  1.00  0.00    -0.061 A 
HETATM   16  C   UNL     1      43.855 -20.561   2.048  1.00  0.00     0.048 C 
HETATM   17  C   UNL     1      44.125 -19.142   4.113  1.00  0.00     0.009 A 
ENDBRANCH   4   5
ENDBRANCH   1   4
BRANCH   1  18
HETATM   18  C   UNL     1      39.459 -13.865   1.941  1.00  0.00     0.158 C 
BRANCH  18  19
HETATM   19  C   UNL     1      38.896 -12.807   2.904  1.00  0.00     0.139 C 
HETATM   20  O   UNL     1      39.539 -12.911   4.196  1.00  0.00    -0.384 OA
HETATM   21  C   UNL     1      39.779 -11.591   4.702  1.00  0.00     0.168 C 
HETATM   22  C   UNL     1      39.108 -10.625   3.749  1.00  0.00     0.029 C 
HETATM   23  C   UNL     1      39.167 -11.381   2.446  1.00  0.00     0.035 C 
ENDBRANCH  18  19
ENDBRANCH   1  18
BRANCH   2  24
HETATM   24  C   UNL     1      39.645 -13.159  -0.928  1.00  0.00     0.034 A 
HETATM   25  C   UNL     1      38.689 -12.176  -1.216  1.00  0.00     0.053 A 
HETATM   26  C   UNL     1      37.698 -12.426  -2.163  1.00  0.00     0.069 A 
HETATM   27  C   UNL     1      37.668 -13.665  -2.813  1.00  0.00     0.037 A 
HETATM   28  C   UNL     1      38.639 -14.635  -2.550  1.00  0.00     0.004 A 
HETATM   29  C   UNL     1      39.640 -14.377  -1.617  1.00  0.00     0.017 A 
BRANCH  26  30
HETATM   30  O   UNL     1      36.706 -11.560  -2.535  1.00  0.00    -0.356 OA
HETATM   31  C   UNL     1      37.056 -10.182  -2.594  1.00  0.00     0.210 C 
ENDBRANCH  26  30
ENDBRANCH   2  24
TORSDOF 6
ENDMDL
MODEL 4
REMARK VINA RESULT:      -8.4      3.049      7.416
REMARK  6 active torsions:
REMARK  status: ('A' for Active; 'I' for Inactive)
REMARK    1  A    between atoms: C_9  and  C_10 
REMARK    2  A    between atoms: C_10  and  N_11 
REMARK       I    between atoms: N_11  and  C_12 
REMARK    3  A    between atoms: N_11  and  C_22 
REMARK    4  A    between atoms: C_12  and  C_13 
REMARK    5  A    between atoms: C_15  and  O_16 
REMARK    6  A    between atoms: C_22  and  C_23 
ROOT
HETATM    1  N   UNL     1      41.826 -12.466   4.471  1.00  0.00    -0.341 N 
HETATM    2  C   UNL     1      42.169 -12.958   3.197  1.00  0.00     0.254 C 
HETATM    3  O   UNL     1      42.526 -12.246   2.261  1.00  0.00    -0.267 OA
ENDROOT
BRANCH   1   4
HETATM    4  C   UNL     1      42.059 -11.032   4.674  1.00  0.00     0.170 C 
BRANCH   4   5
HETATM    5  C   UNL     1      42.987 -10.766   5.828  1.00  0.00     0.029 A 
HETATM    6  C   UNL     1      44.441 -11.055   5.633  1.00  0.00     0.253 A 
HETATM    7  N   UNL     1      45.272 -10.827   6.701  1.00  0.00    -0.322 N 
HETATM    8  O   UNL     1      44.893 -11.489   4.576  1.00  0.00    -0.268 OA
HETATM    9  C   UNL     1      44.823 -10.412   7.960  1.00  0.00     0.045 A 
HETATM   10  H   UNL     1      46.250 -11.020   6.547  1.00  0.00     0.169 HD
HETATM   11  C   UNL     1      43.459 -10.179   8.155  1.00  0.00    -0.008 A 
HETATM   12  C   UNL     1      45.727 -10.257   9.008  1.00  0.00     0.031 A 
HETATM   13  C   UNL     1      42.997  -9.812   9.423  1.00  0.00     0.020 A 
HETATM   14  C   UNL     1      42.545 -10.349   7.029  1.00  0.00     0.028 A 
HETATM   15  C   UNL     1      43.891  -9.688  10.496  1.00  0.00    -0.061 A 
HETATM   16  C   UNL     1      43.392  -9.293  11.855  1.00  0.00     0.048 C 
HETATM   17  C   UNL     1      45.260  -9.892  10.273  1.00  0.00     0.009 A 
ENDBRANCH   4   5
ENDBRANCH   1   4
BRANCH   1  18
HETATM   18  C   UNL     1      40.690 -13.093   5.184  1.00  0.00     0.158 C 
BRANCH  18  19
HETATM   19  C   UNL     1      41.023 -13.991   6.388  1.00  0.00     0.139 C 
HETATM   20  O   UNL     1      40.588 -15.348   6.138  1.00  0.00    -0.384 OA
HETATM   21  C   UNL     1      41.580 -16.252   6.643  1.00  0.00     0.168 C 
HETATM   22  C   UNL     1      42.602 -15.417   7.383  1.00  0.00     0.029 C 
HETATM   23  C   UNL     1      42.518 -14.101   6.652  1.00  0.00     0.035 C 
ENDBRANCH  18  19
ENDBRANCH   1  18
BRANCH   2  24
HETATM   24  C   UNL     1      42.116 -14.421   2.956  1.00  0.00     0.034 A 
HETATM   25  C   UNL     1      43.133 -15.226   3.488  1.00  0.00     0.053 A 
HETATM   26  C   UNL     1      43.091 -16.607   3.308  1.00  0.00     0.069 A 
HETATM   27  C   UNL     1      42.032 -17.174   2.592  1.00  0.00     0.037 A 
HETATM   28  C   UNL     1      41.001 -16.377   2.088  1.00  0.00     0.004 A 
HETATM   29  C   UNL     1      41.033 -14.998   2.283  1.00  0.00     0.017 A 
BRANCH  26  30
HETATM   30  O   UNL     1      44.016 -17.505   3.769  1.00  0.00    -0.356 OA
HETATM   31  C   UNL     1      43.979 -18.806   3.194  1.00  0.00     0.210 C 
ENDBRANCH  26  30
ENDBRANCH   2  24
TORSDOF 6
ENDMDL
MODEL 5
REMARK VINA RESULT:      -8.4      1.382      2.225
REMARK  6 active torsions:
REMARK  status: ('A' for Active; 'I' for Inactive)
REMARK    1  A    between atoms: C_9  and  C_10 
REMARK    2  A    between atoms: C_10  and  N_11 
REMARK       I    between atoms: N_11  and  C_12 
REMARK    3  A    between atoms: N_11  and  C_22 
REMARK    4  A    between atoms: C_12  and  C_13 
REMARK    5  A    between atoms: C_15  and  O_16 
REMARK    6  A    between atoms: C_22  and  C_23 
ROOT
HETATM    1  N   UNL     1      41.525 -14.673   3.078  1.00  0.00    -0.341 N 
HETATM    2  C   UNL     1      41.273 -15.852   3.806  1.00  0.00     0.254 C 
HETATM    3  O   UNL     1      40.170 -16.157   4.254  1.00  0.00    -0.267 OA
ENDROOT
BRANCH   1   4
HETATM    4  C   UNL     1      40.341 -13.872   2.750  1.00  0.00     0.170 C 
BRANCH   4   5
HETATM    5  C   UNL     1      40.331 -13.439   1.309  1.00  0.00     0.029 A 
HETATM    6  C   UNL     1      40.053 -14.479   0.270  1.00  0.00     0.253 A 
HETATM    7  N   UNL     1      40.068 -14.072  -1.040  1.00  0.00    -0.322 N 
HETATM    8  O   UNL     1      39.830 -15.653   0.555  1.00  0.00    -0.268 OA
HETATM    9  C   UNL     1      40.393 -12.773  -1.447  1.00  0.00     0.045 A 
HETATM   10  H   UNL     1      39.869 -14.786  -1.725  1.00  0.00     0.169 HD
HETATM   11  C   UNL     1      40.693 -11.810  -0.480  1.00  0.00    -0.008 A 
HETATM   12  C   UNL     1      40.440 -12.457  -2.803  1.00  0.00     0.031 A 
HETATM   13  C   UNL     1      41.067 -10.524  -0.881  1.00  0.00     0.020 A 
HETATM   14  C   UNL     1      40.628 -12.182   0.931  1.00  0.00     0.028 A 
HETATM   15  C   UNL     1      41.154 -10.202  -2.242  1.00  0.00    -0.061 A 
HETATM   16  C   UNL     1      41.554  -8.820  -2.669  1.00  0.00     0.048 C 
HETATM   17  C   UNL     1      40.816 -11.171  -3.198  1.00  0.00     0.009 A 
ENDBRANCH   4   5
ENDBRANCH   1   4
BRANCH   1  18
HETATM   18  C   UNL     1      42.802 -13.962   3.314  1.00  0.00     0.158 C 
BRANCH  18  19
HETATM   19  C   UNL     1      42.814 -12.879   4.407  1.00  0.00     0.139 C 
HETATM   20  O   UNL     1      43.207 -13.451   5.676  1.00  0.00    -0.384 OA
HETATM   21  C   UNL     1      44.071 -12.526   6.352  1.00  0.00     0.168 C 
HETATM   22  C   UNL     1      44.082 -11.254   5.533  1.00  0.00     0.029 C 
HETATM   23  C   UNL     1      43.829 -11.777   4.141  1.00  0.00     0.035 C 
ENDBRANCH  18  19
ENDBRANCH   1  18
BRANCH   2  24
HETATM   24  C   UNL     1      42.389 -16.801   4.042  1.00  0.00     0.034 A 
HETATM   25  C   UNL     1      42.800 -17.630   2.990  1.00  0.00     0.053 A 
HETATM   26  C   UNL     1      43.869 -18.505   3.172  1.00  0.00     0.069 A 
HETATM   27  C   UNL     1      44.516 -18.549   4.411  1.00  0.00     0.037 A 
HETATM   28  C   UNL     1      44.128 -17.702   5.452  1.00  0.00     0.004 A 
HETATM   29  C   UNL     1      43.071 -16.813   5.264  1.00  0.00     0.017 A 
BRANCH  26  30
HETATM   30  O   UNL     1      44.368 -19.367   2.234  1.00  0.00    -0.356 OA
HETATM   31  C   UNL     1      43.515 -20.433   1.832  1.00  0.00     0.210 C 
ENDBRANCH  26  30
ENDBRANCH   2  24
TORSDOF 6
ENDMDL
MODEL 6
REMARK VINA RESULT:      -8.1      2.333      7.408
REMARK  6 active torsions:
REMARK  status: ('A' for Active; 'I' for Inactive)
REMARK    1  A    between atoms: C_9  and  C_10 
REMARK    2  A    between atoms: C_10  and  N_11 
REMARK       I    between atoms: N_11  and  C_12 
REMARK    3  A    between atoms: N_11  and  C_22 
REMARK    4  A    between atoms: C_12  and  C_13 
REMARK    5  A    between atoms: C_15  and  O_16 
REMARK    6  A    between atoms: C_22  and  C_23 
ROOT
HETATM    1  N   UNL     1      39.865 -13.363   1.858  1.00  0.00    -0.341 N 
HETATM    2  C   UNL     1      39.405 -12.336   1.012  1.00  0.00     0.254 C 
HETATM    3  O   UNL     1      38.635 -11.447   1.371  1.00  0.00    -0.267 OA
ENDROOT
BRANCH   1   4
HETATM    4  C   UNL     1      39.482 -13.236   3.268  1.00  0.00     0.170 C 
BRANCH   4   5
HETATM    5  C   UNL     1      40.578 -13.683   4.196  1.00  0.00     0.029 A 
HETATM    6  C   UNL     1      41.584 -12.665   4.628  1.00  0.00     0.253 A 
HETATM    7  N   UNL     1      42.590 -13.093   5.458  1.00  0.00    -0.322 N 
HETATM    8  O   UNL     1      41.539 -11.493   4.260  1.00  0.00    -0.268 OA
HETATM    9  C   UNL     1      42.755 -14.425   5.855  1.00  0.00     0.045 A 
HETATM   10  H   UNL     1      43.253 -12.390   5.746  1.00  0.00     0.169 HD
HETATM   11  C   UNL     1      41.838 -15.386   5.420  1.00  0.00    -0.008 A 
HETATM   12  C   UNL     1      43.837 -14.786   6.655  1.00  0.00     0.031 A 
HETATM   13  C   UNL     1      42.026 -16.726   5.772  1.00  0.00     0.020 A 
HETATM   14  C   UNL     1      40.716 -14.964   4.586  1.00  0.00     0.028 A 
HETATM   15  C   UNL     1      43.130 -17.109   6.546  1.00  0.00    -0.061 A 
HETATM   16  C   UNL     1      43.327 -18.548   6.923  1.00  0.00     0.048 C 
HETATM   17  C   UNL     1      44.020 -16.127   7.003  1.00  0.00     0.009 A 
ENDBRANCH   4   5
ENDBRANCH   1   4
BRANCH   1  18
HETATM   18  C   UNL     1      40.005 -14.726   1.296  1.00  0.00     0.158 C 
BRANCH  18  19
HETATM   19  C   UNL     1      41.431 -15.232   1.021  1.00  0.00     0.139 C 
HETATM   20  O   UNL     1      42.402 -14.224   1.389  1.00  0.00    -0.384 OA
HETATM   21  C   UNL     1      43.521 -14.867   2.014  1.00  0.00     0.168 C 
HETATM   22  C   UNL     1      43.304 -16.358   1.882  1.00  0.00     0.029 C 
HETATM   23  C   UNL     1      41.800 -16.453   1.851  1.00  0.00     0.035 C 
ENDBRANCH  18  19
ENDBRANCH   1  18
BRANCH   2  24
HETATM   24  C   UNL     1      39.878 -12.299  -0.394  1.00  0.00     0.034 A 
HETATM   25  C   UNL     1      39.236 -13.110  -1.340  1.00  0.00     0.053 A 
HETATM   26  C   UNL     1      39.635 -13.069  -2.674  1.00  0.00     0.069 A 
HETATM   27  C   UNL     1      40.678 -12.217  -3.053  1.00  0.00     0.037 A 
HETATM   28  C   UNL     1      41.298 -11.385  -2.117  1.00  0.00     0.004 A 
HETATM   29  C   UNL     1      40.888 -11.413  -0.786  1.00  0.00     0.017 A 
BRANCH  26  30
HETATM   30  O   UNL     1      39.099 -13.806  -3.695  1.00  0.00    -0.356 OA
HETATM   31  C   UNL     1      38.227 -14.867  -3.322  1.00  0.00     0.210 C 
ENDBRANCH  26  30
ENDBRANCH   2  24
TORSDOF 6
ENDMDL
MODEL 7
REMARK VINA RESULT:      -8.1      2.146      2.991
REMARK  6 active torsions:
REMARK  status: ('A' for Active; 'I' for Inactive)
REMARK    1  A    between atoms: C_9  and  C_10 
REMARK    2  A    between atoms: C_10  and  N_11 
REMARK       I    between atoms: N_11  and  C_12 
REMARK    3  A    between atoms: N_11  and  C_22 
REMARK    4  A    between atoms: C_12  and  C_13 
REMARK    5  A    between atoms: C_15  and  O_16 
REMARK    6  A    between atoms: C_22  and  C_23 
ROOT
HETATM    1  N   UNL     1      42.166 -14.353   2.599  1.00  0.00    -0.341 N 
HETATM    2  C   UNL     1      43.280 -15.141   2.257  1.00  0.00     0.254 C 
HETATM    3  O   UNL     1      44.137 -14.799   1.444  1.00  0.00    -0.267 OA
ENDROOT
BRANCH   1   4
HETATM    4  C   UNL     1      42.151 -13.003   2.027  1.00  0.00     0.170 C 
BRANCH   4   5
HETATM    5  C   UNL     1      40.997 -12.798   1.084  1.00  0.00     0.029 A 
HETATM    6  C   UNL     1      39.965 -11.782   1.455  1.00  0.00     0.253 A 
HETATM    7  N   UNL     1      38.908 -11.622   0.595  1.00  0.00    -0.322 N 
HETATM    8  O   UNL     1      40.034 -11.116   2.486  1.00  0.00    -0.268 OA
HETATM    9  C   UNL     1      38.717 -12.398  -0.554  1.00  0.00     0.045 A 
HETATM   10  H   UNL     1      38.227 -10.925   0.859  1.00  0.00     0.169 HD
HETATM   11  C   UNL     1      39.660 -13.376  -0.881  1.00  0.00    -0.008 A 
HETATM   12  C   UNL     1      37.585 -12.209  -1.344  1.00  0.00     0.031 A 
HETATM   13  C   UNL     1      39.450 -14.188  -2.000  1.00  0.00     0.020 A 
HETATM   14  C   UNL     1      40.834 -13.539  -0.028  1.00  0.00     0.028 A 
HETATM   15  C   UNL     1      38.298 -14.034  -2.783  1.00  0.00    -0.061 A 
HETATM   16  C   UNL     1      38.077 -14.906  -3.984  1.00  0.00     0.048 C 
HETATM   17  C   UNL     1      37.380 -13.025  -2.460  1.00  0.00     0.009 A 
ENDBRANCH   4   5
ENDBRANCH   1   4
BRANCH   1  18
HETATM   18  C   UNL     1      40.866 -15.030   2.816  1.00  0.00     0.158 C 
BRANCH  18  19
HETATM   19  C   UNL     1      40.229 -14.902   4.210  1.00  0.00     0.139 C 
HETATM   20  O   UNL     1      40.269 -16.173   4.899  1.00  0.00    -0.384 OA
HETATM   21  C   UNL     1      40.587 -15.942   6.278  1.00  0.00     0.168 C 
HETATM   22  C   UNL     1      40.585 -14.443   6.486  1.00  0.00     0.029 C 
HETATM   23  C   UNL     1      40.978 -13.938   5.120  1.00  0.00     0.035 C 
ENDBRANCH  18  19
ENDBRANCH   1  18
BRANCH   2  24
HETATM   24  C   UNL     1      43.457 -16.459   2.916  1.00  0.00     0.034 A 
HETATM   25  C   UNL     1      43.624 -16.497   4.307  1.00  0.00     0.053 A 
HETATM   26  C   UNL     1      43.756 -17.722   4.957  1.00  0.00     0.069 A 
HETATM   27  C   UNL     1      43.724 -18.903   4.209  1.00  0.00     0.037 A 
HETATM   28  C   UNL     1      43.527 -18.869   2.826  1.00  0.00     0.004 A 
HETATM   29  C   UNL     1      43.377 -17.645   2.178  1.00  0.00     0.017 A 
BRANCH  26  30
HETATM   30  O   UNL     1      43.928 -17.901   6.303  1.00  0.00    -0.356 OA
HETATM   31  C   UNL     1      44.265 -16.745   7.060  1.00  0.00     0.210 C 
ENDBRANCH  26  30
ENDBRANCH   2  24
TORSDOF 6
ENDMDL
MODEL 8
REMARK VINA RESULT:      -8.1      3.848      7.413
REMARK  6 active torsions:
REMARK  status: ('A' for Active; 'I' for Inactive)
REMARK    1  A    between atoms: C_9  and  C_10 
REMARK    2  A    between atoms: C_10  and  N_11 
REMARK       I    between atoms: N_11  and  C_12 
REMARK    3  A    between atoms: N_11  and  C_22 
REMARK    4  A    between atoms: C_12  and  C_13 
REMARK    5  A    between atoms: C_15  and  O_16 
REMARK    6  A    between atoms: C_22  and  C_23 
ROOT
HETATM    1  N   UNL     1      42.333 -12.939   6.061  1.00  0.00    -0.341 N 
HETATM    2  C   UNL     1      43.231 -13.032   7.141  1.00  0.00     0.254 C 
HETATM    3  O   UNL     1      43.215 -13.942   7.968  1.00  0.00    -0.267 OA
ENDROOT
BRANCH   1   4
HETATM    4  C   UNL     1      41.442 -14.090   5.883  1.00  0.00     0.170 C 
BRANCH   4   5
HETATM    5  C   UNL     1      42.073 -15.174   5.053  1.00  0.00     0.029 A 
HETATM    6  C   UNL     1      42.048 -15.018   3.566  1.00  0.00     0.253 A 
HETATM    7  N   UNL     1      42.609 -16.026   2.823  1.00  0.00    -0.322 N 
HETATM    8  O   UNL     1      41.543 -14.044   3.013  1.00  0.00    -0.268 OA
HETATM    9  C   UNL     1      43.130 -17.201   3.375  1.00  0.00     0.045 A 
HETATM   10  H   UNL     1      42.591 -15.897   1.822  1.00  0.00     0.169 HD
HETATM   11  C   UNL     1      43.118 -17.367   4.762  1.00  0.00    -0.008 A 
HETATM   12  C   UNL     1      43.631 -18.201   2.544  1.00  0.00     0.031 A 
HETATM   13  C   UNL     1      43.591 -18.560   5.318  1.00  0.00     0.020 A 
HETATM   14  C   UNL     1      42.587 -16.293   5.598  1.00  0.00     0.028 A 
HETATM   15  C   UNL     1      44.065 -19.589   4.492  1.00  0.00    -0.061 A 
HETATM   16  C   UNL     1      44.573 -20.867   5.092  1.00  0.00     0.048 C 
HETATM   17  C   UNL     1      44.101 -19.391   3.105  1.00  0.00     0.009 A 
ENDBRANCH   4   5
ENDBRANCH   1   4
BRANCH   1  18
HETATM   18  C   UNL     1      41.823 -11.601   5.685  1.00  0.00     0.158 C 
BRANCH  18  19
HETATM   19  C   UNL     1      40.370 -11.515   5.186  1.00  0.00     0.139 C 
HETATM   20  O   UNL     1      39.490 -11.129   6.267  1.00  0.00    -0.384 OA
HETATM   21  C   UNL     1      38.513 -10.209   5.762  1.00  0.00     0.168 C 
HETATM   22  C   UNL     1      38.699 -10.147   4.262  1.00  0.00     0.029 C 
HETATM   23  C   UNL     1      40.169 -10.450   4.118  1.00  0.00     0.035 C 
ENDBRANCH  18  19
ENDBRANCH   1  18
BRANCH   2  24
HETATM   24  C   UNL     1      44.274 -11.989   7.299  1.00  0.00     0.034 A 
HETATM   25  C   UNL     1      44.228 -11.157   8.426  1.00  0.00     0.053 A 
HETATM   26  C   UNL     1      45.214 -10.192   8.618  1.00  0.00     0.069 A 
HETATM   27  C   UNL     1      46.240 -10.063   7.677  1.00  0.00     0.037 A 
HETATM   28  C   UNL     1      46.306 -10.911   6.568  1.00  0.00     0.004 A 
HETATM   29  C   UNL     1      45.330 -11.888   6.385  1.00  0.00     0.017 A 
BRANCH  26  30
HETATM   30  O   UNL     1      45.287  -9.317   9.668  1.00  0.00    -0.356 OA
HETATM   31  C   UNL     1      44.422  -9.573  10.769  1.00  0.00     0.210 C 
ENDBRANCH  26  30
ENDBRANCH   2  24
TORSDOF 6
ENDMDL
MODEL 9
REMARK VINA RESULT:      -8.0     14.968     18.048
REMARK  6 active torsions:
REMARK  status: ('A' for Active; 'I' for Inactive)
REMARK    1  A    between atoms: C_9  and  C_10 
REMARK    2  A    between atoms: C_10  and  N_11 
REMARK       I    between atoms: N_11  and  C_12 
REMARK    3  A    between atoms: N_11  and  C_22 
REMARK    4  A    between atoms: C_12  and  C_13 
REMARK    5  A    between atoms: C_15  and  O_16 
REMARK    6  A    between atoms: C_22  and  C_23 
ROOT
HETATM    1  N   UNL     1      45.731 -29.536   0.582  1.00  0.00    -0.341 N 
HETATM    2  C   UNL     1      44.567 -29.318  -0.178  1.00  0.00     0.254 C 
HETATM    3  O   UNL     1      43.447 -29.174   0.310  1.00  0.00    -0.267 OA
ENDROOT
BRANCH   1   4
HETATM    4  C   UNL     1      45.560 -29.438   2.036  1.00  0.00     0.170 C 
BRANCH   4   5
HETATM    5  C   UNL     1      46.861 -29.611   2.773  1.00  0.00     0.029 A 
HETATM    6  C   UNL     1      47.857 -28.498   2.700  1.00  0.00     0.253 A 
HETATM    7  N   UNL     1      49.046 -28.680   3.360  1.00  0.00    -0.322 N 
HETATM    8  O   UNL     1      47.645 -27.462   2.074  1.00  0.00    -0.268 OA
HETATM    9  C   UNL     1      49.392 -29.861   4.026  1.00  0.00     0.045 A 
HETATM   10  H   UNL     1      49.701 -27.914   3.308  1.00  0.00     0.169 HD
HETATM   11  C   UNL     1      48.478 -30.918   4.061  1.00  0.00    -0.008 A 
HETATM   12  C   UNL     1      50.644 -29.985   4.624  1.00  0.00     0.031 A 
HETATM   13  C   UNL     1      48.836 -32.119   4.681  1.00  0.00     0.020 A 
HETATM   14  C   UNL     1      47.175 -30.746   3.425  1.00  0.00     0.028 A 
HETATM   15  C   UNL     1      50.106 -32.270   5.255  1.00  0.00    -0.061 A 
HETATM   16  C   UNL     1      50.487 -33.560   5.921  1.00  0.00     0.048 C 
HETATM   17  C   UNL     1      50.997 -31.188   5.241  1.00  0.00     0.009 A 
ENDBRANCH   4   5
ENDBRANCH   1   4
BRANCH   1  18
HETATM   18  C   UNL     1      46.741 -30.486   0.064  1.00  0.00     0.158 C 
BRANCH  18  19
HETATM   19  C   UNL     1      48.030 -29.891  -0.530  1.00  0.00     0.139 C 
HETATM   20  O   UNL     1      49.186 -30.372   0.195  1.00  0.00    -0.384 OA
HETATM   21  C   UNL     1      50.238 -30.643  -0.741  1.00  0.00     0.168 C 
HETATM   22  C   UNL     1      49.763 -30.155  -2.092  1.00  0.00     0.029 C 
HETATM   23  C   UNL     1      48.269 -30.311  -1.973  1.00  0.00     0.035 C 
ENDBRANCH  18  19
ENDBRANCH   1  18
BRANCH   2  24
HETATM   24  C   UNL     1      44.679 -29.240  -1.656  1.00  0.00     0.034 A 
HETATM   25  C   UNL     1      44.279 -30.345  -2.419  1.00  0.00     0.053 A 
HETATM   26  C   UNL     1      44.340 -30.287  -3.810  1.00  0.00     0.069 A 
HETATM   27  C   UNL     1      44.806 -29.122  -4.428  1.00  0.00     0.037 A 
HETATM   28  C   UNL     1      45.176 -28.008  -3.670  1.00  0.00     0.004 A 
HETATM   29  C   UNL     1      45.099 -28.059  -2.280  1.00  0.00     0.017 A 
BRANCH  26  30
HETATM   30  O   UNL     1      43.985 -31.289  -4.671  1.00  0.00    -0.356 OA
HETATM   31  C   UNL     1      43.921 -30.948  -6.051  1.00  0.00     0.210 C 
ENDBRANCH  26  30
ENDBRANCH   2  24
TORSDOF 6
ENDMDL
MODEL 10
REMARK VINA RESULT:      -7.8      1.778      2.060
REMARK  6 active torsions:
REMARK  status: ('A' for Active; 'I' for Inactive)
REMARK    1  A    between atoms: C_9  and  C_10 
REMARK    2  A    between atoms: C_10  and  N_11 
REMARK       I    between atoms: N_11  and  C_12 
REMARK    3  A    between atoms: N_11  and  C_22 
REMARK    4  A    between atoms: C_12  and  C_13 
REMARK    5  A    between atoms: C_15  and  O_16 
REMARK    6  A    between atoms: C_22  and  C_23 
ROOT
HETATM    1  N   UNL     1      41.382 -13.617   5.030  1.00  0.00    -0.341 N 
HETATM    2  C   UNL     1      41.083 -14.820   5.698  1.00  0.00     0.254 C 
HETATM    3  O   UNL     1      40.043 -15.015   6.325  1.00  0.00    -0.267 OA
ENDROOT
BRANCH   1   4
HETATM    4  C   UNL     1      40.299 -12.629   4.999  1.00  0.00     0.170 C 
BRANCH   4   5
HETATM    5  C   UNL     1      39.820 -12.357   3.599  1.00  0.00     0.029 A 
HETATM    6  C   UNL     1      38.940 -11.167   3.382  1.00  0.00     0.253 A 
HETATM    7  N   UNL     1      38.494 -10.945   2.104  1.00  0.00    -0.322 N 
HETATM    8  O   UNL     1      38.608 -10.415   4.296  1.00  0.00    -0.268 OA
HETATM    9  C   UNL     1      38.761 -11.799   1.028  1.00  0.00     0.045 A 
HETATM   10  H   UNL     1      37.909 -10.132   1.976  1.00  0.00     0.169 HD
HETATM   11  C   UNL     1      39.550 -12.933   1.237  1.00  0.00    -0.008 A 
HETATM   12  C   UNL     1      38.222 -11.530  -0.228  1.00  0.00     0.031 A 
HETATM   13  C   UNL     1      39.779 -13.818   0.178  1.00  0.00     0.020 A 
HETATM   14  C   UNL     1      40.098 -13.177   2.568  1.00  0.00     0.028 A 
HETATM   15  C   UNL     1      39.214 -13.579  -1.082  1.00  0.00    -0.061 A 
HETATM   16  C   UNL     1      39.463 -14.529  -2.216  1.00  0.00     0.048 C 
HETATM   17  C   UNL     1      38.453 -12.418  -1.282  1.00  0.00     0.009 A 
ENDBRANCH   4   5
ENDBRANCH   1   4
BRANCH   1  18
HETATM   18  C   UNL     1      42.776 -13.119   5.072  1.00  0.00     0.158 C 
BRANCH  18  19
HETATM   19  C   UNL     1      43.247 -12.451   6.375  1.00  0.00     0.139 C 
HETATM   20  O   UNL     1      44.646 -12.734   6.608  1.00  0.00    -0.384 OA
HETATM   21  C   UNL     1      45.279 -11.551   7.116  1.00  0.00     0.168 C 
HETATM   22  C   UNL     1      44.184 -10.536   7.361  1.00  0.00     0.029 C 
HETATM   23  C   UNL     1      43.155 -10.932   6.333  1.00  0.00     0.035 C 
ENDBRANCH  18  19
ENDBRANCH   1  18
BRANCH   2  24
HETATM   24  C   UNL     1      42.061 -15.935   5.641  1.00  0.00     0.034 A 
HETATM   25  C   UNL     1      42.439 -16.432   4.387  1.00  0.00     0.053 A 
HETATM   26  C   UNL     1      43.383 -17.454   4.301  1.00  0.00     0.069 A 
HETATM   27  C   UNL     1      43.938 -17.975   5.474  1.00  0.00     0.037 A 
HETATM   28  C   UNL     1      43.586 -17.459   6.724  1.00  0.00     0.004 A 
HETATM   29  C   UNL     1      42.656 -16.425   6.809  1.00  0.00     0.017 A 
BRANCH  26  30
HETATM   30  O   UNL     1      43.837 -18.031   3.147  1.00  0.00    -0.356 OA
HETATM   31  C   UNL     1      43.912 -19.452   3.134  1.00  0.00     0.210 C 
ENDBRANCH  26  30
ENDBRANCH   2  24
TORSDOF 6
ENDMDL
