MODEL 1
REMARK VINA RESULT:      -7.6      0.000      0.000
REMARK  5 active torsions:
REMARK  status: ('A' for Active; 'I' for Inactive)
REMARK    1  A    between atoms: C_2  and  C_3 
REMARK    2  A    between atoms: C_2  and  C_20 
REMARK       I    between atoms: C_3  and  N_4 
REMARK    3  A    between atoms: N_4  and  C_5 
REMARK    4  A    between atoms: C_8  and  O_9 
REMARK    5  A    between atoms: O_9  and  C_10 
ROOT
HETATM    1  C   UNL     1      41.026 -15.057   1.198  1.00  0.00     0.052 A 
HETATM    2  C   UNL     1      40.580 -15.709   2.346  1.00  0.00     0.149 A 
HETATM    3  N   UNL     1      41.397 -16.332   3.236  1.00  0.00    -0.235 NA
HETATM    4  C   UNL     1      42.721 -16.300   2.976  1.00  0.00     0.169 A 
HETATM    5  C   UNL     1      43.266 -15.673   1.868  1.00  0.00     0.060 A 
HETATM    6  C   UNL     1      42.403 -15.053   0.964  1.00  0.00     0.035 A 
ENDROOT
BRANCH   1   7
HETATM    7  N   UNL     1      40.201 -14.411   0.252  1.00  0.00    -0.325 N 
HETATM    8  C   UNL     1      40.181 -13.056  -0.041  1.00  0.00     0.231 C 
HETATM    9  O   UNL     1      40.944 -12.234   0.456  1.00  0.00    -0.272 OA
HETATM   10  H   UNL     1      39.603 -15.017  -0.294  1.00  0.00     0.169 HD
BRANCH   8  11
HETATM   11  C   UNL     1      39.160 -12.657  -1.130  1.00  0.00     0.046 C 
HETATM   12  C   UNL     1      38.680 -13.944  -1.832  1.00  0.00     0.026 C 
HETATM   13  C   UNL     1      37.946 -11.935  -0.518  1.00  0.00     0.026 C 
BRANCH  11  14
HETATM   14  C   UNL     1      39.850 -11.775  -2.197  1.00  0.00     0.133 C 
HETATM   15 CL   UNL     1      41.190 -12.583  -3.059  1.00  0.00    -0.129 Cl
ENDBRANCH  11  14
ENDBRANCH   8  11
ENDBRANCH   1   7
BRANCH   4  16
HETATM   16  O   UNL     1      43.628 -16.896   3.847  1.00  0.00    -0.289 OA
BRANCH  16  17
HETATM   17  C   UNL     1      43.683 -18.267   3.831  1.00  0.00     0.116 A 
HETATM   18  C   UNL     1      43.951 -18.945   5.018  1.00  0.00     0.150 A 
HETATM   19  F   UNL     1      44.101 -18.268   6.166  1.00  0.00    -0.203 F 
HETATM   20  C   UNL     1      44.077 -20.331   5.028  1.00  0.00     0.045 A 
HETATM   21  C   UNL     1      43.948 -21.045   3.835  1.00  0.00     0.003 A 
HETATM   22  C   UNL     1      43.701 -20.368   2.639  1.00  0.00     0.003 A 
HETATM   23  C   UNL     1      43.576 -18.977   2.632  1.00  0.00     0.040 A 
ENDBRANCH  16  17
ENDBRANCH   4  16
TORSDOF 5
ENDMDL
MODEL 2
REMARK VINA RESULT:      -7.4      6.422      7.778
REMARK  5 active torsions:
REMARK  status: ('A' for Active; 'I' for Inactive)
REMARK    1  A    between atoms: C_2  and  C_3 
REMARK    2  A    between atoms: C_2  and  C_20 
REMARK       I    between atoms: C_3  and  N_4 
REMARK    3  A    between atoms: N_4  and  C_5 
REMARK    4  A    between atoms: C_8  and  O_9 
REMARK    5  A    between atoms: O_9  and  C_10 
ROOT
HETATM    1  C   UNL     1      43.913 -12.560   6.574  1.00  0.00     0.052 A 
HETATM    2  C   UNL     1      43.587 -12.483   5.222  1.00  0.00     0.149 A 
HETATM    3  N   UNL     1      42.914 -13.449   4.542  1.00  0.00    -0.235 NA
HETATM    4  C   UNL     1      42.541 -14.541   5.242  1.00  0.00     0.169 A 
HETATM    5  C   UNL     1      42.809 -14.711   6.590  1.00  0.00     0.060 A 
HETATM    6  C   UNL     1      43.513 -13.710   7.260  1.00  0.00     0.035 A 
ENDROOT
BRANCH   1   7
HETATM    7  N   UNL     1      44.618 -11.578   7.303  1.00  0.00    -0.325 N 
HETATM    8  C   UNL     1      44.079 -10.461   7.923  1.00  0.00     0.231 C 
HETATM    9  O   UNL     1      42.879 -10.211   7.969  1.00  0.00    -0.272 OA
HETATM   10  H   UNL     1      45.609 -11.746   7.418  1.00  0.00     0.169 HD
BRANCH   8  11
HETATM   11  C   UNL     1      45.118  -9.573   8.643  1.00  0.00     0.046 C 
HETATM   12  C   UNL     1      46.462  -9.702   7.896  1.00  0.00     0.026 C 
HETATM   13  C   UNL     1      44.685  -8.096   8.645  1.00  0.00     0.026 C 
BRANCH  11  14
HETATM   14  C   UNL     1      45.337 -10.089  10.085  1.00  0.00     0.133 C 
HETATM   15 CL   UNL     1      44.040  -9.639  11.229  1.00  0.00    -0.129 Cl
ENDBRANCH  11  14
ENDBRANCH   8  11
ENDBRANCH   1   7
BRANCH   4  16
HETATM   16  O   UNL     1      41.831 -15.567   4.627  1.00  0.00    -0.289 OA
BRANCH  16  17
HETATM   17  C   UNL     1      42.571 -16.590   4.091  1.00  0.00     0.116 A 
HETATM   18  C   UNL     1      42.251 -17.061   2.820  1.00  0.00     0.150 A 
HETATM   19  F   UNL     1      41.266 -16.487   2.113  1.00  0.00    -0.203 F 
HETATM   20  C   UNL     1      42.940 -18.138   2.270  1.00  0.00     0.045 A 
HETATM   21  C   UNL     1      43.950 -18.761   3.006  1.00  0.00     0.003 A 
HETATM   22  C   UNL     1      44.261 -18.306   4.290  1.00  0.00     0.003 A 
HETATM   23  C   UNL     1      43.567 -17.225   4.838  1.00  0.00     0.040 A 
ENDBRANCH  16  17
ENDBRANCH   4  16
TORSDOF 5
ENDMDL
MODEL 3
REMARK VINA RESULT:      -7.2      6.480      7.965
REMARK  5 active torsions:
REMARK  status: ('A' for Active; 'I' for Inactive)
REMARK    1  A    between atoms: C_2  and  C_3 
REMARK    2  A    between atoms: C_2  and  C_20 
REMARK       I    between atoms: C_3  and  N_4 
REMARK    3  A    between atoms: N_4  and  C_5 
REMARK    4  A    between atoms: C_8  and  O_9 
REMARK    5  A    between atoms: O_9  and  C_10 
ROOT
HETATM    1  C   UNL     1      43.436 -11.928   6.644  1.00  0.00     0.052 A 
HETATM    2  C   UNL     1      42.215 -11.791   5.989  1.00  0.00     0.149 A 
HETATM    3  N   UNL     1      41.521 -12.824   5.442  1.00  0.00    -0.235 NA
HETATM    4  C   UNL     1      42.064 -14.054   5.558  1.00  0.00     0.169 A 
HETATM    5  C   UNL     1      43.269 -14.298   6.196  1.00  0.00     0.060 A 
HETATM    6  C   UNL     1      43.966 -13.218   6.736  1.00  0.00     0.035 A 
ENDROOT
BRANCH   1   7
HETATM    7  N   UNL     1      44.183 -10.874   7.213  1.00  0.00    -0.325 N 
HETATM    8  C   UNL     1      44.360 -10.619   8.564  1.00  0.00     0.231 C 
HETATM    9  O   UNL     1      43.928 -11.335   9.461  1.00  0.00    -0.272 OA
HETATM   10  H   UNL     1      44.673 -10.281   6.556  1.00  0.00     0.169 HD
BRANCH   8  11
HETATM   11  C   UNL     1      45.235  -9.383   8.867  1.00  0.00     0.046 C 
HETATM   12  C   UNL     1      45.699  -9.471  10.336  1.00  0.00     0.026 C 
HETATM   13  C   UNL     1      46.472  -9.337   7.952  1.00  0.00     0.026 C 
BRANCH  11  14
HETATM   14  C   UNL     1      44.391  -8.095   8.723  1.00  0.00     0.133 C 
HETATM   15 CL   UNL     1      43.262  -7.804  10.076  1.00  0.00    -0.129 Cl
ENDBRANCH  11  14
ENDBRANCH   8  11
ENDBRANCH   1   7
BRANCH   4  16
HETATM   16  O   UNL     1      41.409 -15.168   5.043  1.00  0.00    -0.289 OA
BRANCH  16  17
HETATM   17  C   UNL     1      42.021 -15.811   3.997  1.00  0.00     0.116 A 
HETATM   18  C   UNL     1      42.665 -17.023   4.234  1.00  0.00     0.150 A 
HETATM   19  F   UNL     1      42.641 -17.575   5.457  1.00  0.00    -0.203 F 
HETATM   20  C   UNL     1      43.350 -17.673   3.212  1.00  0.00     0.045 A 
HETATM   21  C   UNL     1      43.404 -17.095   1.942  1.00  0.00     0.003 A 
HETATM   22  C   UNL     1      42.778 -15.870   1.704  1.00  0.00     0.003 A 
HETATM   23  C   UNL     1      42.092 -15.221   2.733  1.00  0.00     0.040 A 
ENDBRANCH  16  17
ENDBRANCH   4  16
TORSDOF 5
ENDMDL
MODEL 4
REMARK VINA RESULT:      -7.0      6.974      8.541
REMARK  5 active torsions:
REMARK  status: ('A' for Active; 'I' for Inactive)
REMARK    1  A    between atoms: C_2  and  C_3 
REMARK    2  A    between atoms: C_2  and  C_20 
REMARK       I    between atoms: C_3  and  N_4 
REMARK    3  A    between atoms: N_4  and  C_5 
REMARK    4  A    between atoms: C_8  and  O_9 
REMARK    5  A    between atoms: O_9  and  C_10 
ROOT
HETATM    1  C   UNL     1      43.036 -13.087   5.715  1.00  0.00     0.052 A 
HETATM    2  C   UNL     1      42.163 -12.002   5.748  1.00  0.00     0.149 A 
HETATM    3  N   UNL     1      42.367 -10.880   6.488  1.00  0.00    -0.235 NA
HETATM    4  C   UNL     1      43.496 -10.832   7.226  1.00  0.00     0.169 A 
HETATM    5  C   UNL     1      44.431 -11.854   7.257  1.00  0.00     0.060 A 
HETATM    6  C   UNL     1      44.189 -12.999   6.498  1.00  0.00     0.035 A 
ENDROOT
BRANCH   1   7
HETATM    7  N   UNL     1      42.845 -14.268   4.964  1.00  0.00    -0.325 N 
HETATM    8  C   UNL     1      42.960 -14.402   3.589  1.00  0.00     0.231 C 
HETATM    9  O   UNL     1      43.313 -13.499   2.837  1.00  0.00    -0.272 OA
HETATM   10  H   UNL     1      42.655 -15.102   5.502  1.00  0.00     0.169 HD
BRANCH   8  11
HETATM   11  C   UNL     1      42.688 -15.830   3.066  1.00  0.00     0.046 C 
HETATM   12  C   UNL     1      41.167 -16.078   3.117  1.00  0.00     0.026 C 
HETATM   13  C   UNL     1      43.177 -15.996   1.616  1.00  0.00     0.026 C 
BRANCH  11  14
HETATM   14  C   UNL     1      43.360 -16.866   4.000  1.00  0.00     0.133 C 
HETATM   15 CL   UNL     1      43.951 -18.329   3.163  1.00  0.00    -0.129 Cl
ENDBRANCH  11  14
ENDBRANCH   8  11
ENDBRANCH   1   7
BRANCH   4  16
HETATM   16  O   UNL     1      43.791  -9.712   7.997  1.00  0.00    -0.289 OA
BRANCH  16  17
HETATM   17  C   UNL     1      43.279  -9.690   9.269  1.00  0.00     0.116 A 
HETATM   18  C   UNL     1      44.081 -10.111  10.326  1.00  0.00     0.150 A 
HETATM   19  F   UNL     1      45.352 -10.483  10.107  1.00  0.00    -0.203 F 
HETATM   20  C   UNL     1      43.575 -10.163  11.622  1.00  0.00     0.045 A 
HETATM   21  C   UNL     1      42.247  -9.803  11.860  1.00  0.00     0.003 A 
HETATM   22  C   UNL     1      41.432  -9.400  10.800  1.00  0.00     0.003 A 
HETATM   23  C   UNL     1      41.943  -9.351   9.501  1.00  0.00     0.040 A 
ENDBRANCH  16  17
ENDBRANCH   4  16
TORSDOF 5
ENDMDL
MODEL 5
REMARK VINA RESULT:      -6.8      2.472      3.289
REMARK  5 active torsions:
REMARK  status: ('A' for Active; 'I' for Inactive)
REMARK    1  A    between atoms: C_2  and  C_3 
REMARK    2  A    between atoms: C_2  and  C_20 
REMARK       I    between atoms: C_3  and  N_4 
REMARK    3  A    between atoms: N_4  and  C_5 
REMARK    4  A    between atoms: C_8  and  O_9 
REMARK    5  A    between atoms: O_9  and  C_10 
ROOT
HETATM    1  C   UNL     1      40.827 -14.083   1.050  1.00  0.00     0.052 A 
HETATM    2  C   UNL     1      41.285 -13.596   2.273  1.00  0.00     0.149 A 
HETATM    3  N   UNL     1      41.200 -14.277   3.446  1.00  0.00    -0.235 NA
HETATM    4  C   UNL     1      40.638 -15.503   3.402  1.00  0.00     0.169 A 
HETATM    5  C   UNL     1      40.159 -16.080   2.237  1.00  0.00     0.060 A 
HETATM    6  C   UNL     1      40.247 -15.354   1.050  1.00  0.00     0.035 A 
ENDROOT
BRANCH   1   7
HETATM    7  N   UNL     1      40.893 -13.395  -0.181  1.00  0.00    -0.325 N 
HETATM    8  C   UNL     1      39.908 -12.593  -0.736  1.00  0.00     0.231 C 
HETATM    9  O   UNL     1      38.848 -12.322  -0.182  1.00  0.00    -0.272 OA
HETATM   10  H   UNL     1      41.774 -13.465  -0.674  1.00  0.00     0.169 HD
BRANCH   8  11
HETATM   11  C   UNL     1      40.286 -11.979  -2.103  1.00  0.00     0.046 C 
HETATM   12  C   UNL     1      41.216 -10.775  -1.847  1.00  0.00     0.026 C 
HETATM   13  C   UNL     1      41.020 -13.000  -2.990  1.00  0.00     0.026 C 
BRANCH  11  14
HETATM   14  C   UNL     1      39.016 -11.444  -2.806  1.00  0.00     0.133 C 
HETATM   15 CL   UNL     1      39.253  -9.898  -3.669  1.00  0.00    -0.129 Cl
ENDBRANCH  11  14
ENDBRANCH   8  11
ENDBRANCH   1   7
BRANCH   4  16
HETATM   16  O   UNL     1      40.530 -16.274   4.555  1.00  0.00    -0.289 OA
BRANCH  16  17
HETATM   17  C   UNL     1      41.626 -16.301   5.379  1.00  0.00     0.116 A 
HETATM   18  C   UNL     1      42.765 -16.986   4.966  1.00  0.00     0.150 A 
HETATM   19  F   UNL     1      42.805 -17.568   3.757  1.00  0.00    -0.203 F 
HETATM   20  C   UNL     1      43.873 -17.088   5.802  1.00  0.00     0.045 A 
HETATM   21  C   UNL     1      43.835 -16.509   7.073  1.00  0.00     0.003 A 
HETATM   22  C   UNL     1      42.687 -15.838   7.501  1.00  0.00     0.003 A 
HETATM   23  C   UNL     1      41.577 -15.740   6.658  1.00  0.00     0.040 A 
ENDBRANCH  16  17
ENDBRANCH   4  16
TORSDOF 5
ENDMDL
MODEL 6
REMARK VINA RESULT:      -6.7      6.363      8.140
REMARK  5 active torsions:
REMARK  status: ('A' for Active; 'I' for Inactive)
REMARK    1  A    between atoms: C_2  and  C_3 
REMARK    2  A    between atoms: C_2  and  C_20 
REMARK       I    between atoms: C_3  and  N_4 
REMARK    3  A    between atoms: N_4  and  C_5 
REMARK    4  A    between atoms: C_8  and  O_9 
REMARK    5  A    between atoms: O_9  and  C_10 
ROOT
HETATM    1  C   UNL     1      42.598 -13.164   4.483  1.00  0.00     0.052 A 
HETATM    2  C   UNL     1      41.903 -13.015   5.682  1.00  0.00     0.149 A 
HETATM    3  N   UNL     1      41.977 -11.913   6.475  1.00  0.00    -0.235 NA
HETATM    4  C   UNL     1      42.773 -10.909   6.053  1.00  0.00     0.169 A 
HETATM    5  C   UNL     1      43.498 -10.954   4.874  1.00  0.00     0.060 A 
HETATM    6  C   UNL     1      43.415 -12.102   4.087  1.00  0.00     0.035 A 
ENDROOT
BRANCH   1   7
HETATM    7  N   UNL     1      42.548 -14.298   3.645  1.00  0.00    -0.325 N 
HETATM    8  C   UNL     1      43.071 -15.553   3.918  1.00  0.00     0.231 C 
HETATM    9  O   UNL     1      43.603 -15.861   4.979  1.00  0.00    -0.272 OA
HETATM   10  H   UNL     1      42.034 -14.182   2.782  1.00  0.00     0.169 HD
BRANCH   8  11
HETATM   11  C   UNL     1      42.853 -16.589   2.792  1.00  0.00     0.046 C 
HETATM   12  C   UNL     1      41.336 -16.819   2.637  1.00  0.00     0.026 C 
HETATM   13  C   UNL     1      43.424 -16.087   1.453  1.00  0.00     0.026 C 
BRANCH  11  14
HETATM   14  C   UNL     1      43.490 -17.940   3.194  1.00  0.00     0.133 C 
HETATM   15 CL   UNL     1      43.120 -19.285   2.077  1.00  0.00    -0.129 Cl
ENDBRANCH  11  14
ENDBRANCH   8  11
ENDBRANCH   1   7
BRANCH   4  16
HETATM   16  O   UNL     1      42.889  -9.738   6.796  1.00  0.00    -0.289 OA
BRANCH  16  17
HETATM   17  C   UNL     1      43.540  -9.836   8.000  1.00  0.00     0.116 A 
HETATM   18  C   UNL     1      42.827  -9.606   9.173  1.00  0.00     0.150 A 
HETATM   19  F   UNL     1      41.512  -9.343   9.127  1.00  0.00    -0.203 F 
HETATM   20  C   UNL     1      43.467  -9.636  10.409  1.00  0.00     0.045 A 
HETATM   21  C   UNL     1      44.840  -9.883  10.469  1.00  0.00     0.003 A 
HETATM   22  C   UNL     1      45.564 -10.094   9.293  1.00  0.00     0.003 A 
HETATM   23  C   UNL     1      44.917 -10.063   8.055  1.00  0.00     0.040 A 
ENDBRANCH  16  17
ENDBRANCH   4  16
TORSDOF 5
ENDMDL
MODEL 7
REMARK VINA RESULT:      -6.7      7.747      9.243
REMARK  5 active torsions:
REMARK  status: ('A' for Active; 'I' for Inactive)
REMARK    1  A    between atoms: C_2  and  C_3 
REMARK    2  A    between atoms: C_2  and  C_20 
REMARK       I    between atoms: C_3  and  N_4 
REMARK    3  A    between atoms: N_4  and  C_5 
REMARK    4  A    between atoms: C_8  and  O_9 
REMARK    5  A    between atoms: O_9  and  C_10 
ROOT
HETATM    1  C   UNL     1      43.525 -12.398   6.031  1.00  0.00     0.052 A 
HETATM    2  C   UNL     1      42.674 -11.354   6.385  1.00  0.00     0.149 A 
HETATM    3  N   UNL     1      43.043 -10.294   7.151  1.00  0.00    -0.235 NA
HETATM    4  C   UNL     1      44.322 -10.267   7.581  1.00  0.00     0.169 A 
HETATM    5  C   UNL     1      45.249 -11.251   7.278  1.00  0.00     0.060 A 
HETATM    6  C   UNL     1      44.839 -12.334   6.501  1.00  0.00     0.035 A 
ENDROOT
BRANCH   1   7
HETATM    7  N   UNL     1      43.167 -13.516   5.245  1.00  0.00    -0.325 N 
HETATM    8  C   UNL     1      43.126 -13.575   3.861  1.00  0.00     0.231 C 
HETATM    9  O   UNL     1      43.466 -12.657   3.122  1.00  0.00    -0.272 OA
HETATM   10  H   UNL     1      42.970 -14.365   5.757  1.00  0.00     0.169 HD
BRANCH   8  11
HETATM   11  C   UNL     1      42.692 -14.947   3.298  1.00  0.00     0.046 C 
HETATM   12  C   UNL     1      41.150 -14.988   3.270  1.00  0.00     0.026 C 
HETATM   13  C   UNL     1      43.226 -15.159   1.870  1.00  0.00     0.026 C 
BRANCH  11  14
HETATM   14  C   UNL     1      43.170 -16.075   4.242  1.00  0.00     0.133 C 
HETATM   15 CL   UNL     1      43.573 -17.604   3.410  1.00  0.00    -0.129 Cl
ENDBRANCH  11  14
ENDBRANCH   8  11
ENDBRANCH   1   7
BRANCH   4  16
HETATM   16  O   UNL     1      44.788  -9.207   8.353  1.00  0.00    -0.289 OA
BRANCH  16  17
HETATM   17  C   UNL     1      44.124  -8.968   9.530  1.00  0.00     0.116 A 
HETATM   18  C   UNL     1      43.496  -7.739   9.713  1.00  0.00     0.150 A 
HETATM   19  F   UNL     1      43.498  -6.824   8.731  1.00  0.00    -0.203 F 
HETATM   20  C   UNL     1      42.868  -7.438  10.918  1.00  0.00     0.045 A 
HETATM   21  C   UNL     1      42.881  -8.371  11.956  1.00  0.00     0.003 A 
HETATM   22  C   UNL     1      43.528  -9.597  11.785  1.00  0.00     0.003 A 
HETATM   23  C   UNL     1      44.158  -9.896  10.575  1.00  0.00     0.040 A 
ENDBRANCH  16  17
ENDBRANCH   4  16
TORSDOF 5
ENDMDL
MODEL 8
REMARK VINA RESULT:      -6.7      1.856      2.548
REMARK  5 active torsions:
REMARK  status: ('A' for Active; 'I' for Inactive)
REMARK    1  A    between atoms: C_2  and  C_3 
REMARK    2  A    between atoms: C_2  and  C_20 
REMARK       I    between atoms: C_3  and  N_4 
REMARK    3  A    between atoms: N_4  and  C_5 
REMARK    4  A    between atoms: C_8  and  O_9 
REMARK    5  A    between atoms: O_9  and  C_10 
ROOT
HETATM    1  C   UNL     1      40.842 -14.517   1.275  1.00  0.00     0.052 A 
HETATM    2  C   UNL     1      40.277 -15.389   2.203  1.00  0.00     0.149 A 
HETATM    3  N   UNL     1      40.990 -16.252   2.974  1.00  0.00    -0.235 NA
HETATM    4  C   UNL     1      42.330 -16.244   2.819  1.00  0.00     0.169 A 
HETATM    5  C   UNL     1      42.991 -15.411   1.931  1.00  0.00     0.060 A 
HETATM    6  C   UNL     1      42.233 -14.545   1.144  1.00  0.00     0.035 A 
ENDROOT
BRANCH   1   7
HETATM    7  N   UNL     1      40.127 -13.617   0.456  1.00  0.00    -0.325 N 
HETATM    8  C   UNL     1      39.451 -13.922  -0.715  1.00  0.00     0.231 C 
HETATM    9  O   UNL     1      39.333 -15.056  -1.166  1.00  0.00    -0.272 OA
HETATM   10  H   UNL     1      40.070 -12.666   0.796  1.00  0.00     0.169 HD
BRANCH   8  11
HETATM   11  C   UNL     1      38.764 -12.711  -1.385  1.00  0.00     0.046 C 
HETATM   12  C   UNL     1      37.774 -13.243  -2.441  1.00  0.00     0.026 C 
HETATM   13  C   UNL     1      37.992 -11.867  -0.354  1.00  0.00     0.026 C 
BRANCH  11  14
HETATM   14  C   UNL     1      39.818 -11.854  -2.125  1.00  0.00     0.133 C 
HETATM   15 CL   UNL     1      40.982 -12.803  -3.094  1.00  0.00    -0.129 Cl
ENDBRANCH  11  14
ENDBRANCH   8  11
ENDBRANCH   1   7
BRANCH   4  16
HETATM   16  O   UNL     1      43.136 -17.082   3.584  1.00  0.00    -0.289 OA
BRANCH  16  17
HETATM   17  C   UNL     1      43.278 -16.755   4.909  1.00  0.00     0.116 A 
HETATM   18  C   UNL     1      43.404 -17.777   5.846  1.00  0.00     0.150 A 
HETATM   19  F   UNL     1      43.437 -19.059   5.451  1.00  0.00    -0.203 F 
HETATM   20  C   UNL     1      43.488 -17.486   7.205  1.00  0.00     0.045 A 
HETATM   21  C   UNL     1      43.429 -16.157   7.630  1.00  0.00     0.003 A 
HETATM   22  C   UNL     1      43.282 -15.129   6.696  1.00  0.00     0.003 A 
HETATM   23  C   UNL     1      43.197 -15.426   5.334  1.00  0.00     0.040 A 
ENDBRANCH  16  17
ENDBRANCH   4  16
TORSDOF 5
ENDMDL
MODEL 9
REMARK VINA RESULT:      -6.5     14.608     15.985
REMARK  5 active torsions:
REMARK  status: ('A' for Active; 'I' for Inactive)
REMARK    1  A    between atoms: C_2  and  C_3 
REMARK    2  A    between atoms: C_2  and  C_20 
REMARK       I    between atoms: C_3  and  N_4 
REMARK    3  A    between atoms: N_4  and  C_5 
REMARK    4  A    between atoms: C_8  and  O_9 
REMARK    5  A    between atoms: O_9  and  C_10 
ROOT
HETATM    1  C   UNL     1      41.551  -8.228  14.970  1.00  0.00     0.052 A 
HETATM    2  C   UNL     1      40.732  -8.993  14.141  1.00  0.00     0.149 A 
HETATM    3  N   UNL     1      40.847  -9.041  12.788  1.00  0.00    -0.235 NA
HETATM    4  C   UNL     1      41.827  -8.299  12.231  1.00  0.00     0.169 A 
HETATM    5  C   UNL     1      42.698  -7.511  12.966  1.00  0.00     0.060 A 
HETATM    6  C   UNL     1      42.548  -7.470  14.352  1.00  0.00     0.035 A 
ENDROOT
BRANCH   1   7
HETATM    7  N   UNL     1      41.449  -8.151  16.376  1.00  0.00    -0.325 N 
HETATM    8  C   UNL     1      40.598  -7.331  17.100  1.00  0.00     0.231 C 
HETATM    9  O   UNL     1      39.759  -6.592  16.596  1.00  0.00    -0.272 OA
HETATM   10  H   UNL     1      42.026  -8.801  16.892  1.00  0.00     0.169 HD
BRANCH   8  11
HETATM   11  C   UNL     1      40.727  -7.480  18.633  1.00  0.00     0.046 C 
HETATM   12  C   UNL     1      40.525  -6.090  19.270  1.00  0.00     0.026 C 
HETATM   13  C   UNL     1      39.667  -8.447  19.191  1.00  0.00     0.026 C 
BRANCH  11  14
HETATM   14  C   UNL     1      42.154  -7.954  18.995  1.00  0.00     0.133 C 
HETATM   15 CL   UNL     1      42.295  -8.678  20.622  1.00  0.00    -0.129 Cl
ENDBRANCH  11  14
ENDBRANCH   8  11
ENDBRANCH   1   7
BRANCH   4  16
HETATM   16  O   UNL     1      42.026  -8.307  10.854  1.00  0.00    -0.289 OA
BRANCH  16  17
HETATM   17  C   UNL     1      43.267  -8.692  10.416  1.00  0.00     0.116 A 
HETATM   18  C   UNL     1      43.835  -8.030   9.330  1.00  0.00     0.150 A 
HETATM   19  F   UNL     1      43.197  -6.998   8.756  1.00  0.00    -0.203 F 
HETATM   20  C   UNL     1      45.065  -8.434   8.819  1.00  0.00     0.045 A 
HETATM   21  C   UNL     1      45.727  -9.523   9.391  1.00  0.00     0.003 A 
HETATM   22  C   UNL     1      45.152 -10.203  10.467  1.00  0.00     0.003 A 
HETATM   23  C   UNL     1      43.917  -9.795  10.976  1.00  0.00     0.040 A 
ENDBRANCH  16  17
ENDBRANCH   4  16
TORSDOF 5
ENDMDL
MODEL 10
REMARK VINA RESULT:      -6.4      2.545      3.453
REMARK  5 active torsions:
REMARK  status: ('A' for Active; 'I' for Inactive)
REMARK    1  A    between atoms: C_2  and  C_3 
REMARK    2  A    between atoms: C_2  and  C_20 
REMARK       I    between atoms: C_3  and  N_4 
REMARK    3  A    between atoms: N_4  and  C_5 
REMARK    4  A    between atoms: C_8  and  O_9 
REMARK    5  A    between atoms: O_9  and  C_10 
ROOT
HETATM    1  C   UNL     1      40.851 -12.646   0.130  1.00  0.00     0.052 A 
HETATM    2  C   UNL     1      41.172 -12.635   1.485  1.00  0.00     0.149 A 
HETATM    3  N   UNL     1      40.981 -13.687   2.324  1.00  0.00    -0.235 NA
HETATM    4  C   UNL     1      40.451 -14.807   1.789  1.00  0.00     0.169 A 
HETATM    5  C   UNL     1      40.105 -14.923   0.453  1.00  0.00     0.060 A 
HETATM    6  C   UNL     1      40.299 -13.823  -0.383  1.00  0.00     0.035 A 
ENDROOT
BRANCH   1   7
HETATM    7  N   UNL     1      41.029 -11.566  -0.762  1.00  0.00    -0.325 N 
HETATM    8  C   UNL     1      40.090 -10.601  -1.091  1.00  0.00     0.231 C 
HETATM    9  O   UNL     1      38.975 -10.525  -0.587  1.00  0.00    -0.272 OA
HETATM   10  H   UNL     1      41.956 -11.473  -1.156  1.00  0.00     0.169 HD
BRANCH   8  11
HETATM   11  C   UNL     1      40.593  -9.547  -2.104  1.00  0.00     0.046 C 
HETATM   12  C   UNL     1      40.773 -10.241  -3.469  1.00  0.00     0.026 C 
HETATM   13  C   UNL     1      39.585  -8.394  -2.255  1.00  0.00     0.026 C 
BRANCH  11  14
HETATM   14  C   UNL     1      41.979  -9.019  -1.664  1.00  0.00     0.133 C 
HETATM   15 CL   UNL     1      42.623  -7.708  -2.694  1.00  0.00    -0.129 Cl
ENDBRANCH  11  14
ENDBRANCH   8  11
ENDBRANCH   1   7
BRANCH   4  16
HETATM   16  O   UNL     1      40.242 -15.937   2.574  1.00  0.00    -0.289 OA
BRANCH  16  17
HETATM   17  C   UNL     1      41.357 -16.515   3.126  1.00  0.00     0.116 A 
HETATM   18  C   UNL     1      41.562 -16.410   4.498  1.00  0.00     0.150 A 
HETATM   19  F   UNL     1      40.656 -15.796   5.274  1.00  0.00    -0.203 F 
HETATM   20  C   UNL     1      42.713 -16.930   5.084  1.00  0.00     0.045 A 
HETATM   21  C   UNL     1      43.676 -17.548   4.284  1.00  0.00     0.003 A 
HETATM   22  C   UNL     1      43.485 -17.638   2.904  1.00  0.00     0.003 A 
HETATM   23  C   UNL     1      42.329 -17.114   2.320  1.00  0.00     0.040 A 
ENDBRANCH  16  17
ENDBRANCH   4  16
TORSDOF 5
ENDMDL
