MODEL 1
REMARK VINA RESULT:      -8.1      0.000      0.000
REMARK  6 active torsions:
REMARK  status: ('A' for Active; 'I' for Inactive)
REMARK    1  A    between atoms: C_2  and  C_3 
REMARK       I    between atoms: C_3  and  N_4 
REMARK    2  A    between atoms: N_4  and  C_5 
REMARK    3  A    between atoms: C_7  and  N_8 
REMARK       I    between atoms: N_8  and  C_9 
REMARK    4  A    between atoms: C_9  and  C_10 
REMARK    5  A    between atoms: C_13  and  C_14 
REMARK    6  A    between atoms: C_14  and  C_15 
ROOT
HETATM    1  N   UNL     1      42.729 -13.290   4.224  1.00  0.00    -0.322 N 
HETATM    2  C   UNL     1      42.301 -12.092   4.768  1.00  0.00     0.256 C 
HETATM    3  O   UNL     1      41.297 -11.465   4.452  1.00  0.00    -0.267 OA
HETATM    4  H   UNL     1      43.621 -13.639   4.535  1.00  0.00     0.169 HD
ENDROOT
BRANCH   1   5
HETATM    5  C   UNL     1      42.011 -14.149   3.351  1.00  0.00     0.043 A 
HETATM    6  C   UNL     1      41.972 -13.948   1.961  1.00  0.00     0.059 A 
HETATM    7  C   UNL     1      41.153 -14.729   1.136  1.00  0.00     0.036 A 
HETATM    8  C   UNL     1      40.390 -15.748   1.712  1.00  0.00     0.030 A 
HETATM    9  C   UNL     1      40.443 -15.984   3.085  1.00  0.00     0.011 A 
HETATM   10  C   UNL     1      41.246 -15.192   3.918  1.00  0.00    -0.035 A 
HETATM   11  C   UNL     1      41.248 -15.487   5.394  1.00  0.00     0.050 C 
BRANCH   7  12
HETATM   12  N   UNL     1      40.987 -14.521  -0.251  1.00  0.00    -0.327 N 
HETATM   13  C   UNL     1      40.016 -13.770  -0.884  1.00  0.00     0.221 C 
HETATM   14  O   UNL     1      39.176 -13.062  -0.337  1.00  0.00    -0.273 OA
HETATM   15  H   UNL     1      41.680 -14.961  -0.838  1.00  0.00     0.169 HD
BRANCH  13  16
HETATM   16  C   UNL     1      39.977 -13.937  -2.398  1.00  0.00     0.098 C 
HETATM   17  C   UNL     1      38.844 -14.789  -2.941  1.00  0.00     0.014 C 
ENDBRANCH  13  16
ENDBRANCH   7  12
ENDBRANCH   1   5
BRANCH   2  18
HETATM   18  C   UNL     1      43.145 -11.544   5.872  1.00  0.00     0.032 A 
HETATM   19  C   UNL     1      44.375 -12.099   6.245  1.00  0.00     0.017 A 
HETATM   20  C   UNL     1      45.084 -11.568   7.328  1.00  0.00     0.008 A 
HETATM   21  C   UNL     1      44.581 -10.473   8.048  1.00  0.00    -0.051 A 
HETATM   22  C   UNL     1      43.369  -9.895   7.643  1.00  0.00     0.008 A 
HETATM   23  C   UNL     1      42.659 -10.426   6.565  1.00  0.00     0.017 A 
BRANCH  21  24
HETATM   24  C   UNL     1      45.336  -9.912   9.232  1.00  0.00     0.120 C 
BRANCH  24  25
HETATM   25  C   UNL     1      44.454 -10.084  10.415  1.00  0.00     0.151 A 
HETATM   26  N   UNL     1      44.030 -11.282  10.847  1.00  0.00    -0.158 NA
HETATM   27  N   UNL     1      43.274 -10.934  11.902  1.00  0.00    -0.270 N 
HETATM   28  H   UNL     1      42.826 -11.655  12.453  1.00  0.00     0.190 HD
HETATM   29  C   UNL     1      43.231  -9.585  12.053  1.00  0.00     0.227 A 
HETATM   30  N   UNL     1      43.953  -9.015  11.121  1.00  0.00    -0.225 NA
ENDBRANCH  24  25
ENDBRANCH  21  24
ENDBRANCH   2  18
TORSDOF 6
ENDMDL
MODEL 2
REMARK VINA RESULT:      -8.1      2.472      3.467
REMARK  6 active torsions:
REMARK  status: ('A' for Active; 'I' for Inactive)
REMARK    1  A    between atoms: C_2  and  C_3 
REMARK       I    between atoms: C_3  and  N_4 
REMARK    2  A    between atoms: N_4  and  C_5 
REMARK    3  A    between atoms: C_7  and  N_8 
REMARK       I    between atoms: N_8  and  C_9 
REMARK    4  A    between atoms: C_9  and  C_10 
REMARK    5  A    between atoms: C_13  and  C_14 
REMARK    6  A    between atoms: C_14  and  C_15 
ROOT
HETATM    1  N   UNL     1      42.751 -13.435   5.337  1.00  0.00    -0.322 N 
HETATM    2  C   UNL     1      43.536 -12.331   5.055  1.00  0.00     0.256 C 
HETATM    3  O   UNL     1      43.861 -11.932   3.944  1.00  0.00    -0.267 OA
HETATM    4  H   UNL     1      42.641 -13.682   6.307  1.00  0.00     0.169 HD
ENDROOT
BRANCH   1   5
HETATM    5  C   UNL     1      41.989 -14.210   4.423  1.00  0.00     0.043 A 
HETATM    6  C   UNL     1      42.411 -15.473   3.972  1.00  0.00     0.059 A 
HETATM    7  C   UNL     1      41.710 -16.159   2.974  1.00  0.00     0.036 A 
HETATM    8  C   UNL     1      40.550 -15.585   2.447  1.00  0.00     0.030 A 
HETATM    9  C   UNL     1      40.097 -14.349   2.908  1.00  0.00     0.011 A 
HETATM   10  C   UNL     1      40.807 -13.648   3.892  1.00  0.00    -0.035 A 
HETATM   11  C   UNL     1      40.276 -12.312   4.337  1.00  0.00     0.050 C 
BRANCH   7  12
HETATM   12  N   UNL     1      42.127 -17.382   2.402  1.00  0.00    -0.327 N 
HETATM   13  C   UNL     1      43.044 -18.283   2.906  1.00  0.00     0.221 C 
HETATM   14  O   UNL     1      43.590 -18.223   4.003  1.00  0.00    -0.273 OA
HETATM   15  H   UNL     1      41.677 -17.625   1.532  1.00  0.00     0.169 HD
BRANCH  13  16
HETATM   16  C   UNL     1      43.441 -19.389   1.936  1.00  0.00     0.098 C 
HETATM   17  C   UNL     1      43.782 -20.728   2.564  1.00  0.00     0.014 C 
ENDBRANCH  13  16
ENDBRANCH   7  12
ENDBRANCH   1   5
BRANCH   2  18
HETATM   18  C   UNL     1      43.993 -11.543   6.240  1.00  0.00     0.032 A 
HETATM   19  C   UNL     1      45.320 -11.529   6.686  1.00  0.00     0.017 A 
HETATM   20  C   UNL     1      45.664 -10.815   7.838  1.00  0.00     0.008 A 
HETATM   21  C   UNL     1      44.693 -10.097   8.556  1.00  0.00    -0.051 A 
HETATM   22  C   UNL     1      43.375 -10.081   8.079  1.00  0.00     0.008 A 
HETATM   23  C   UNL     1      43.029 -10.796   6.932  1.00  0.00     0.017 A 
BRANCH  21  24
HETATM   24  C   UNL     1      45.061  -9.342   9.813  1.00  0.00     0.120 C 
BRANCH  24  25
HETATM   25  C   UNL     1      44.208  -9.890  10.899  1.00  0.00     0.151 A 
HETATM   26  N   UNL     1      44.204 -11.186  11.247  1.00  0.00    -0.158 NA
HETATM   27  N   UNL     1      43.294 -11.196  12.235  1.00  0.00    -0.270 N 
HETATM   28  H   UNL     1      43.090 -12.063  12.716  1.00  0.00     0.190 HD
HETATM   29  C   UNL     1      42.763  -9.961  12.427  1.00  0.00     0.227 A 
HETATM   30  N   UNL     1      43.306  -9.113  11.589  1.00  0.00    -0.225 NA
ENDBRANCH  24  25
ENDBRANCH  21  24
ENDBRANCH   2  18
TORSDOF 6
ENDMDL
MODEL 3
REMARK VINA RESULT:      -8.0      1.269      1.588
REMARK  6 active torsions:
REMARK  status: ('A' for Active; 'I' for Inactive)
REMARK    1  A    between atoms: C_2  and  C_3 
REMARK       I    between atoms: C_3  and  N_4 
REMARK    2  A    between atoms: N_4  and  C_5 
REMARK    3  A    between atoms: C_7  and  N_8 
REMARK       I    between atoms: N_8  and  C_9 
REMARK    4  A    between atoms: C_9  and  C_10 
REMARK    5  A    between atoms: C_13  and  C_14 
REMARK    6  A    between atoms: C_14  and  C_15 
ROOT
HETATM    1  N   UNL     1      42.711 -13.366   4.714  1.00  0.00    -0.322 N 
HETATM    2  C   UNL     1      43.547 -12.270   4.601  1.00  0.00     0.256 C 
HETATM    3  O   UNL     1      44.026 -11.821   3.567  1.00  0.00    -0.267 OA
HETATM    4  H   UNL     1      42.466 -13.660   5.645  1.00  0.00     0.169 HD
ENDROOT
BRANCH   1   5
HETATM    5  C   UNL     1      42.063 -14.072   3.665  1.00  0.00     0.043 A 
HETATM    6  C   UNL     1      41.183 -13.444   2.767  1.00  0.00     0.059 A 
HETATM    7  C   UNL     1      40.458 -14.182   1.825  1.00  0.00     0.036 A 
HETATM    8  C   UNL     1      40.645 -15.565   1.761  1.00  0.00     0.030 A 
HETATM    9  C   UNL     1      41.540 -16.200   2.621  1.00  0.00     0.011 A 
HETATM   10  C   UNL     1      42.254 -15.468   3.580  1.00  0.00    -0.035 A 
HETATM   11  C   UNL     1      43.194 -16.214   4.489  1.00  0.00     0.050 C 
BRANCH   7  12
HETATM   12  N   UNL     1      39.485 -13.634   0.959  1.00  0.00    -0.327 N 
HETATM   13  C   UNL     1      39.693 -12.918  -0.204  1.00  0.00     0.221 C 
HETATM   14  O   UNL     1      40.775 -12.716  -0.746  1.00  0.00    -0.273 OA
HETATM   15  H   UNL     1      38.527 -13.814   1.220  1.00  0.00     0.169 HD
BRANCH  13  16
HETATM   16  C   UNL     1      38.440 -12.272  -0.780  1.00  0.00     0.098 C 
HETATM   17  C   UNL     1      37.829 -12.969  -1.983  1.00  0.00     0.014 C 
ENDBRANCH  13  16
ENDBRANCH   7  12
ENDBRANCH   1   5
BRANCH   2  18
HETATM   18  C   UNL     1      43.856 -11.558   5.878  1.00  0.00     0.032 A 
HETATM   19  C   UNL     1      42.925 -10.766   6.560  1.00  0.00     0.017 A 
HETATM   20  C   UNL     1      43.302 -10.081   7.720  1.00  0.00     0.008 A 
HETATM   21  C   UNL     1      44.610 -10.184   8.221  1.00  0.00    -0.051 A 
HETATM   22  C   UNL     1      45.525 -11.012   7.557  1.00  0.00     0.008 A 
HETATM   23  C   UNL     1      45.151 -11.693   6.398  1.00  0.00     0.017 A 
BRANCH  21  24
HETATM   24  C   UNL     1      45.024  -9.427   9.462  1.00  0.00     0.120 C 
BRANCH  24  25
HETATM   25  C   UNL     1      44.193  -9.955  10.575  1.00  0.00     0.151 A 
HETATM   26  N   UNL     1      44.230 -11.235  10.976  1.00  0.00    -0.158 NA
HETATM   27  N   UNL     1      43.325 -11.232  11.969  1.00  0.00    -0.270 N 
HETATM   28  H   UNL     1      43.150 -12.084  12.486  1.00  0.00     0.190 HD
HETATM   29  C   UNL     1      42.757 -10.007  12.113  1.00  0.00     0.227 A 
HETATM   30  N   UNL     1      43.270  -9.178  11.237  1.00  0.00    -0.225 NA
ENDBRANCH  24  25
ENDBRANCH  21  24
ENDBRANCH   2  18
TORSDOF 6
ENDMDL
MODEL 4
REMARK VINA RESULT:      -7.9      3.009      9.838
REMARK  6 active torsions:
REMARK  status: ('A' for Active; 'I' for Inactive)
REMARK    1  A    between atoms: C_2  and  C_3 
REMARK       I    between atoms: C_3  and  N_4 
REMARK    2  A    between atoms: N_4  and  C_5 
REMARK    3  A    between atoms: C_7  and  N_8 
REMARK       I    between atoms: N_8  and  C_9 
REMARK    4  A    between atoms: C_9  and  C_10 
REMARK    5  A    between atoms: C_13  and  C_14 
REMARK    6  A    between atoms: C_14  and  C_15 
ROOT
HETATM    1  N   UNL     1      43.531 -12.215   7.197  1.00  0.00    -0.322 N 
HETATM    2  C   UNL     1      42.501 -12.039   6.290  1.00  0.00     0.256 C 
HETATM    3  O   UNL     1      41.850 -11.017   6.115  1.00  0.00    -0.267 OA
HETATM    4  H   UNL     1      43.914 -13.142   7.280  1.00  0.00     0.169 HD
ENDROOT
BRANCH   1   5
HETATM    5  C   UNL     1      44.193 -11.214   7.958  1.00  0.00     0.043 A 
HETATM    6  C   UNL     1      43.619 -10.638   9.105  1.00  0.00     0.059 A 
HETATM    7  C   UNL     1      44.231  -9.565   9.762  1.00  0.00     0.036 A 
HETATM    8  C   UNL     1      45.453  -9.086   9.281  1.00  0.00     0.030 A 
HETATM    9  C   UNL     1      46.053  -9.669   8.166  1.00  0.00     0.011 A 
HETATM   10  C   UNL     1      45.435 -10.731   7.492  1.00  0.00    -0.035 A 
HETATM   11  C   UNL     1      46.126 -11.307   6.285  1.00  0.00     0.050 C 
BRANCH   7  12
HETATM   12  N   UNL     1      43.667  -8.872  10.856  1.00  0.00    -0.327 N 
HETATM   13  C   UNL     1      43.158  -9.407  12.024  1.00  0.00     0.221 C 
HETATM   14  O   UNL     1      43.198 -10.586  12.359  1.00  0.00    -0.273 OA
HETATM   15  H   UNL     1      43.662  -7.867  10.773  1.00  0.00     0.169 HD
BRANCH  13  16
HETATM   16  C   UNL     1      42.415  -8.408  12.903  1.00  0.00     0.098 C 
HETATM   17  C   UNL     1      43.285  -7.488  13.740  1.00  0.00     0.014 C 
ENDBRANCH  13  16
ENDBRANCH   7  12
ENDBRANCH   1   5
BRANCH   2  18
HETATM   18  C   UNL     1      42.191 -13.219   5.428  1.00  0.00     0.032 A 
HETATM   19  C   UNL     1      41.205 -14.162   5.742  1.00  0.00     0.017 A 
HETATM   20  C   UNL     1      41.009 -15.274   4.916  1.00  0.00     0.008 A 
HETATM   21  C   UNL     1      41.788 -15.457   3.762  1.00  0.00    -0.051 A 
HETATM   22  C   UNL     1      42.745 -14.488   3.431  1.00  0.00     0.008 A 
HETATM   23  C   UNL     1      42.943 -13.379   4.255  1.00  0.00     0.017 A 
BRANCH  21  24
HETATM   24  C   UNL     1      41.591 -16.670   2.881  1.00  0.00     0.120 C 
BRANCH  24  25
HETATM   25  C   UNL     1      42.738 -17.576   3.149  1.00  0.00     0.151 A 
HETATM   26  N   UNL     1      43.194 -18.468   2.255  1.00  0.00    -0.158 NA
HETATM   27  N   UNL     1      44.199 -19.042   2.937  1.00  0.00    -0.270 N 
HETATM   28  H   UNL     1      44.755 -19.761   2.493  1.00  0.00     0.190 HD
HETATM   29  C   UNL     1      44.298 -18.530   4.191  1.00  0.00     0.227 A 
HETATM   30  N   UNL     1      43.379 -17.613   4.365  1.00  0.00    -0.225 NA
ENDBRANCH  24  25
ENDBRANCH  21  24
ENDBRANCH   2  18
TORSDOF 6
ENDMDL
MODEL 5
REMARK VINA RESULT:      -7.7      4.589      7.586
REMARK  6 active torsions:
REMARK  status: ('A' for Active; 'I' for Inactive)
REMARK    1  A    between atoms: C_2  and  C_3 
REMARK       I    between atoms: C_3  and  N_4 
REMARK    2  A    between atoms: N_4  and  C_5 
REMARK    3  A    between atoms: C_7  and  N_8 
REMARK       I    between atoms: N_8  and  C_9 
REMARK    4  A    between atoms: C_9  and  C_10 
REMARK    5  A    between atoms: C_13  and  C_14 
REMARK    6  A    between atoms: C_14  and  C_15 
ROOT
HETATM    1  N   UNL     1      43.506 -10.058   9.781  1.00  0.00    -0.322 N 
HETATM    2  C   UNL     1      43.591 -10.514  11.085  1.00  0.00     0.256 C 
HETATM    3  O   UNL     1      44.007 -11.607  11.449  1.00  0.00    -0.267 OA
HETATM    4  H   UNL     1      43.063  -9.166   9.637  1.00  0.00     0.169 HD
ENDROOT
BRANCH   1   5
HETATM    5  C   UNL     1      44.066 -10.653   8.619  1.00  0.00     0.043 A 
HETATM    6  C   UNL     1      43.489 -11.772   7.994  1.00  0.00     0.059 A 
HETATM    7  C   UNL     1      44.129 -12.418   6.930  1.00  0.00     0.036 A 
HETATM    8  C   UNL     1      45.346 -11.914   6.466  1.00  0.00     0.030 A 
HETATM    9  C   UNL     1      45.915 -10.784   7.052  1.00  0.00     0.011 A 
HETATM   10  C   UNL     1      45.289 -10.144   8.131  1.00  0.00    -0.035 A 
HETATM   11  C   UNL     1      45.962  -8.938   8.730  1.00  0.00     0.050 C 
BRANCH   7  12
HETATM   12  N   UNL     1      43.660 -13.603   6.318  1.00  0.00    -0.327 N 
HETATM   13  C   UNL     1      43.303 -14.788   6.931  1.00  0.00     0.221 C 
HETATM   14  O   UNL     1      43.237 -14.987   8.140  1.00  0.00    -0.273 OA
HETATM   15  H   UNL     1      43.557 -13.557   5.315  1.00  0.00     0.169 HD
BRANCH  13  16
HETATM   16  C   UNL     1      43.060 -15.946   5.971  1.00  0.00     0.098 C 
HETATM   17  C   UNL     1      44.261 -16.829   5.682  1.00  0.00     0.014 C 
ENDBRANCH  13  16
ENDBRANCH   7  12
ENDBRANCH   1   5
BRANCH   2  18
HETATM   18  C   UNL     1      43.156  -9.547  12.138  1.00  0.00     0.032 A 
HETATM   19  C   UNL     1      43.618  -8.228  12.205  1.00  0.00     0.017 A 
HETATM   20  C   UNL     1      43.212  -7.396  13.254  1.00  0.00     0.008 A 
HETATM   21  C   UNL     1      42.334  -7.865  14.245  1.00  0.00    -0.051 A 
HETATM   22  C   UNL     1      41.842  -9.174  14.147  1.00  0.00     0.008 A 
HETATM   23  C   UNL     1      42.249 -10.006  13.103  1.00  0.00     0.017 A 
BRANCH  21  24
HETATM   24  C   UNL     1      41.913  -6.973  15.390  1.00  0.00     0.120 C 
BRANCH  24  25
HETATM   25  C   UNL     1      40.988  -5.960  14.818  1.00  0.00     0.151 A 
HETATM   26  N   UNL     1      41.277  -4.651  14.761  1.00  0.00    -0.158 NA
HETATM   27  N   UNL     1      40.166  -4.155  14.191  1.00  0.00    -0.270 N 
HETATM   28  H   UNL     1      40.105  -3.163  14.000  1.00  0.00     0.190 HD
HETATM   29  C   UNL     1      39.253  -5.133  13.961  1.00  0.00     0.227 A 
HETATM   30  N   UNL     1      39.732  -6.285  14.360  1.00  0.00    -0.225 NA
ENDBRANCH  24  25
ENDBRANCH  21  24
ENDBRANCH   2  18
TORSDOF 6
ENDMDL
MODEL 6
REMARK VINA RESULT:      -7.6      3.010      4.346
REMARK  6 active torsions:
REMARK  status: ('A' for Active; 'I' for Inactive)
REMARK    1  A    between atoms: C_2  and  C_3 
REMARK       I    between atoms: C_3  and  N_4 
REMARK    2  A    between atoms: N_4  and  C_5 
REMARK    3  A    between atoms: C_7  and  N_8 
REMARK       I    between atoms: N_8  and  C_9 
REMARK    4  A    between atoms: C_9  and  C_10 
REMARK    5  A    between atoms: C_13  and  C_14 
REMARK    6  A    between atoms: C_14  and  C_15 
ROOT
HETATM    1  N   UNL     1      43.285 -13.634   4.526  1.00  0.00    -0.322 N 
HETATM    2  C   UNL     1      42.724 -13.279   5.740  1.00  0.00     0.256 C 
HETATM    3  O   UNL     1      41.779 -13.828   6.295  1.00  0.00    -0.267 OA
HETATM    4  H   UNL     1      44.005 -13.032   4.163  1.00  0.00     0.169 HD
ENDROOT
BRANCH   1   5
HETATM    5  C   UNL     1      43.040 -14.812   3.771  1.00  0.00     0.043 A 
HETATM    6  C   UNL     1      43.396 -16.090   4.235  1.00  0.00     0.059 A 
HETATM    7  C   UNL     1      43.264 -17.221   3.421  1.00  0.00     0.036 A 
HETATM    8  C   UNL     1      42.735 -17.070   2.136  1.00  0.00     0.030 A 
HETATM    9  C   UNL     1      42.343 -15.815   1.673  1.00  0.00     0.011 A 
HETATM   10  C   UNL     1      42.492 -14.676   2.477  1.00  0.00    -0.035 A 
HETATM   11  C   UNL     1      42.065 -13.347   1.914  1.00  0.00     0.050 C 
BRANCH   7  12
HETATM   12  N   UNL     1      43.692 -18.518   3.781  1.00  0.00    -0.327 N 
HETATM   13  C   UNL     1      43.631 -19.671   3.022  1.00  0.00     0.221 C 
HETATM   14  O   UNL     1      43.279 -19.748   1.849  1.00  0.00    -0.273 OA
HETATM   15  H   UNL     1      44.111 -18.594   4.696  1.00  0.00     0.169 HD
BRANCH  13  16
HETATM   16  C   UNL     1      43.962 -20.947   3.785  1.00  0.00     0.098 C 
HETATM   17  C   UNL     1      44.006 -20.821   5.297  1.00  0.00     0.014 C 
ENDBRANCH  13  16
ENDBRANCH   7  12
ENDBRANCH   1   5
BRANCH   2  18
HETATM   18  C   UNL     1      43.372 -12.130   6.441  1.00  0.00     0.032 A 
HETATM   19  C   UNL     1      44.688 -12.164   6.916  1.00  0.00     0.017 A 
HETATM   20  C   UNL     1      45.210 -11.072   7.615  1.00  0.00     0.008 A 
HETATM   21  C   UNL     1      44.431  -9.926   7.842  1.00  0.00    -0.051 A 
HETATM   22  C   UNL     1      43.128  -9.881   7.327  1.00  0.00     0.008 A 
HETATM   23  C   UNL     1      42.605 -10.972   6.632  1.00  0.00     0.017 A 
BRANCH  21  24
HETATM   24  C   UNL     1      44.988  -8.752   8.617  1.00  0.00     0.120 C 
BRANCH  24  25
HETATM   25  C   UNL     1      44.192  -8.656   9.867  1.00  0.00     0.151 A 
HETATM   26  N   UNL     1      43.352  -7.642  10.127  1.00  0.00    -0.158 NA
HETATM   27  N   UNL     1      42.889  -7.981  11.342  1.00  0.00    -0.270 N 
HETATM   28  H   UNL     1      42.202  -7.393  11.795  1.00  0.00     0.190 HD
HETATM   29  C   UNL     1      43.466  -9.128  11.786  1.00  0.00     0.227 A 
HETATM   30  N   UNL     1      44.307  -9.573  10.886  1.00  0.00    -0.225 NA
ENDBRANCH  24  25
ENDBRANCH  21  24
ENDBRANCH   2  18
TORSDOF 6
ENDMDL
MODEL 7
REMARK VINA RESULT:      -7.5      2.727      9.749
REMARK  6 active torsions:
REMARK  status: ('A' for Active; 'I' for Inactive)
REMARK    1  A    between atoms: C_2  and  C_3 
REMARK       I    between atoms: C_3  and  N_4 
REMARK    2  A    between atoms: N_4  and  C_5 
REMARK    3  A    between atoms: C_7  and  N_8 
REMARK       I    between atoms: N_8  and  C_9 
REMARK    4  A    between atoms: C_9  and  C_10 
REMARK    5  A    between atoms: C_13  and  C_14 
REMARK    6  A    between atoms: C_14  and  C_15 
ROOT
HETATM    1  N   UNL     1      42.144 -14.532   3.172  1.00  0.00    -0.322 N 
HETATM    2  C   UNL     1      40.868 -14.106   2.846  1.00  0.00     0.256 C 
HETATM    3  O   UNL     1      39.951 -13.886   3.628  1.00  0.00    -0.267 OA
HETATM    4  H   UNL     1      42.762 -14.747   2.407  1.00  0.00     0.169 HD
ENDROOT
BRANCH   1   5
HETATM    5  C   UNL     1      42.728 -14.603   4.464  1.00  0.00     0.043 A 
HETATM    6  C   UNL     1      42.893 -13.469   5.279  1.00  0.00     0.059 A 
HETATM    7  C   UNL     1      43.588 -13.541   6.491  1.00  0.00     0.036 A 
HETATM    8  C   UNL     1      44.095 -14.776   6.907  1.00  0.00     0.030 A 
HETATM    9  C   UNL     1      43.910 -15.917   6.128  1.00  0.00     0.011 A 
HETATM   10  C   UNL     1      43.232 -15.846   4.903  1.00  0.00    -0.035 A 
HETATM   11  C   UNL     1      43.079 -17.111   4.101  1.00  0.00     0.050 C 
BRANCH   7  12
HETATM   12  N   UNL     1      43.878 -12.429   7.312  1.00  0.00    -0.327 N 
HETATM   13  C   UNL     1      44.941 -11.553   7.207  1.00  0.00     0.221 C 
HETATM   14  O   UNL     1      45.775 -11.531   6.308  1.00  0.00    -0.273 OA
HETATM   15  H   UNL     1      43.209 -12.251   8.047  1.00  0.00     0.169 HD
BRANCH  13  16
HETATM   16  C   UNL     1      45.092 -10.600   8.386  1.00  0.00     0.098 C 
HETATM   17  C   UNL     1      46.041  -9.434   8.177  1.00  0.00     0.014 C 
ENDBRANCH  13  16
ENDBRANCH   7  12
ENDBRANCH   1   5
BRANCH   2  18
HETATM   18  C   UNL     1      40.617 -13.865   1.393  1.00  0.00     0.032 A 
HETATM   19  C   UNL     1      40.031 -14.814   0.547  1.00  0.00     0.017 A 
HETATM   20  C   UNL     1      39.881 -14.541  -0.816  1.00  0.00     0.008 A 
HETATM   21  C   UNL     1      40.304 -13.315  -1.354  1.00  0.00    -0.051 A 
HETATM   22  C   UNL     1      40.851 -12.352  -0.494  1.00  0.00     0.008 A 
HETATM   23  C   UNL     1      41.005 -12.625   0.866  1.00  0.00     0.017 A 
BRANCH  21  24
HETATM   24  C   UNL     1      40.161 -13.028  -2.831  1.00  0.00     0.120 C 
BRANCH  24  25
HETATM   25  C   UNL     1      39.045 -12.056  -2.966  1.00  0.00     0.151 A 
HETATM   26  N   UNL     1      37.754 -12.396  -2.824  1.00  0.00    -0.158 NA
HETATM   27  N   UNL     1      37.142 -11.220  -3.041  1.00  0.00    -0.270 N 
HETATM   28  H   UNL     1      36.134 -11.165  -2.978  1.00  0.00     0.190 HD
HETATM   29  C   UNL     1      38.040 -10.245  -3.336  1.00  0.00     0.227 A 
HETATM   30  N   UNL     1      39.252 -10.742  -3.313  1.00  0.00    -0.225 NA
ENDBRANCH  24  25
ENDBRANCH  21  24
ENDBRANCH   2  18
TORSDOF 6
ENDMDL
MODEL 8
REMARK VINA RESULT:      -7.4      3.268      4.362
REMARK  6 active torsions:
REMARK  status: ('A' for Active; 'I' for Inactive)
REMARK    1  A    between atoms: C_2  and  C_3 
REMARK       I    between atoms: C_3  and  N_4 
REMARK    2  A    between atoms: N_4  and  C_5 
REMARK    3  A    between atoms: C_7  and  N_8 
REMARK       I    between atoms: N_8  and  C_9 
REMARK    4  A    between atoms: C_9  and  C_10 
REMARK    5  A    between atoms: C_13  and  C_14 
REMARK    6  A    between atoms: C_14  and  C_15 
ROOT
HETATM    1  N   UNL     1      43.221 -12.528   7.027  1.00  0.00    -0.322 N 
HETATM    2  C   UNL     1      44.298 -11.688   7.252  1.00  0.00     0.256 C 
HETATM    3  O   UNL     1      45.302 -11.589   6.558  1.00  0.00    -0.267 OA
HETATM    4  H   UNL     1      42.506 -12.552   7.735  1.00  0.00     0.169 HD
ENDROOT
BRANCH   1   5
HETATM    5  C   UNL     1      42.947 -13.288   5.859  1.00  0.00     0.043 A 
HETATM    6  C   UNL     1      43.288 -14.647   5.749  1.00  0.00     0.059 A 
HETATM    7  C   UNL     1      43.126 -15.340   4.544  1.00  0.00     0.036 A 
HETATM    8  C   UNL     1      42.582 -14.668   3.445  1.00  0.00     0.030 A 
HETATM    9  C   UNL     1      42.206 -13.330   3.548  1.00  0.00     0.011 A 
HETATM   10  C   UNL     1      42.385 -12.625   4.747  1.00  0.00    -0.035 A 
HETATM   11  C   UNL     1      41.973 -11.178   4.789  1.00  0.00     0.050 C 
BRANCH   7  12
HETATM   12  N   UNL     1      43.537 -16.674   4.329  1.00  0.00    -0.327 N 
HETATM   13  C   UNL     1      43.580 -17.365   3.133  1.00  0.00     0.221 C 
HETATM   14  O   UNL     1      43.359 -16.900   2.020  1.00  0.00    -0.273 OA
HETATM   15  H   UNL     1      43.856 -17.164   5.152  1.00  0.00     0.169 HD
BRANCH  13  16
HETATM   16  C   UNL     1      43.850 -18.858   3.277  1.00  0.00     0.098 C 
HETATM   17  C   UNL     1      43.274 -19.742   2.186  1.00  0.00     0.014 C 
ENDBRANCH  13  16
ENDBRANCH   7  12
ENDBRANCH   1   5
BRANCH   2  18
HETATM   18  C   UNL     1      44.186 -10.799   8.448  1.00  0.00     0.032 A 
HETATM   19  C   UNL     1      45.186 -10.695   9.423  1.00  0.00     0.017 A 
HETATM   20  C   UNL     1      44.988  -9.887  10.547  1.00  0.00     0.008 A 
HETATM   21  C   UNL     1      43.795  -9.164  10.710  1.00  0.00    -0.051 A 
HETATM   22  C   UNL     1      42.816  -9.238   9.709  1.00  0.00     0.008 A 
HETATM   23  C   UNL     1      43.011 -10.047   8.589  1.00  0.00     0.017 A 
BRANCH  21  24
HETATM   24  C   UNL     1      43.572  -8.306  11.935  1.00  0.00     0.120 C 
BRANCH  24  25
HETATM   25  C   UNL     1      42.227  -8.659  12.458  1.00  0.00     0.151 A 
HETATM   26  N   UNL     1      41.213  -7.782  12.531  1.00  0.00    -0.158 NA
HETATM   27  N   UNL     1      40.240  -8.540  13.063  1.00  0.00    -0.270 N 
HETATM   28  H   UNL     1      39.325  -8.138  13.220  1.00  0.00     0.190 HD
HETATM   29  C   UNL     1      40.683  -9.797  13.325  1.00  0.00     0.227 A 
HETATM   30  N   UNL     1      41.940  -9.903  12.970  1.00  0.00    -0.225 NA
ENDBRANCH  24  25
ENDBRANCH  21  24
ENDBRANCH   2  18
TORSDOF 6
ENDMDL
MODEL 9
REMARK VINA RESULT:      -7.2      5.292      9.499
REMARK  6 active torsions:
REMARK  status: ('A' for Active; 'I' for Inactive)
REMARK    1  A    between atoms: C_2  and  C_3 
REMARK       I    between atoms: C_3  and  N_4 
REMARK    2  A    between atoms: N_4  and  C_5 
REMARK    3  A    between atoms: C_7  and  N_8 
REMARK       I    between atoms: N_8  and  C_9 
REMARK    4  A    between atoms: C_9  and  C_10 
REMARK    5  A    between atoms: C_13  and  C_14 
REMARK    6  A    between atoms: C_14  and  C_15 
ROOT
HETATM    1  N   UNL     1      42.078 -14.568   1.206  1.00  0.00    -0.322 N 
HETATM    2  C   UNL     1      40.801 -14.728   0.698  1.00  0.00     0.256 C 
HETATM    3  O   UNL     1      39.984 -15.576   1.034  1.00  0.00    -0.267 OA
HETATM    4  H   UNL     1      42.661 -13.874   0.767  1.00  0.00     0.169 HD
ENDROOT
BRANCH   1   5
HETATM    5  C   UNL     1      42.639 -15.196   2.351  1.00  0.00     0.043 A 
HETATM    6  C   UNL     1      43.130 -16.512   2.322  1.00  0.00     0.059 A 
HETATM    7  C   UNL     1      43.557 -17.153   3.491  1.00  0.00     0.036 A 
HETATM    8  C   UNL     1      43.521 -16.450   4.698  1.00  0.00     0.030 A 
HETATM    9  C   UNL     1      43.069 -15.132   4.739  1.00  0.00     0.011 A 
HETATM   10  C   UNL     1      42.621 -14.492   3.575  1.00  0.00    -0.035 A 
HETATM   11  C   UNL     1      42.131 -13.073   3.687  1.00  0.00     0.050 C 
BRANCH   7  12
HETATM   12  N   UNL     1      43.969 -18.503   3.556  1.00  0.00    -0.327 N 
HETATM   13  C   UNL     1      43.448 -19.581   2.868  1.00  0.00     0.221 C 
HETATM   14  O   UNL     1      42.589 -19.536   1.993  1.00  0.00    -0.273 OA
HETATM   15  H   UNL     1      44.754 -18.684   4.164  1.00  0.00     0.169 HD
BRANCH  13  16
HETATM   16  C   UNL     1      43.964 -20.937   3.335  1.00  0.00     0.098 C 
HETATM   17  C   UNL     1      43.954 -21.167   4.835  1.00  0.00     0.014 C 
ENDBRANCH  13  16
ENDBRANCH   7  12
ENDBRANCH   1   5
BRANCH   2  18
HETATM   18  C   UNL     1      40.389 -13.736  -0.340  1.00  0.00     0.032 A 
HETATM   19  C   UNL     1      40.868 -12.421  -0.378  1.00  0.00     0.017 A 
HETATM   20  C   UNL     1      40.393 -11.529  -1.345  1.00  0.00     0.008 A 
HETATM   21  C   UNL     1      39.441 -11.938  -2.293  1.00  0.00    -0.051 A 
HETATM   22  C   UNL     1      38.997 -13.268  -2.276  1.00  0.00     0.008 A 
HETATM   23  C   UNL     1      39.468 -14.158  -1.310  1.00  0.00     0.017 A 
BRANCH  21  24
HETATM   24  C   UNL     1      38.911 -10.968  -3.325  1.00  0.00     0.120 C 
BRANCH  24  25
HETATM   25  C   UNL     1      37.759 -10.272  -2.698  1.00  0.00     0.151 A 
HETATM   26  N   UNL     1      37.868  -9.093  -2.065  1.00  0.00    -0.158 NA
HETATM   27  N   UNL     1      36.602  -8.882  -1.670  1.00  0.00    -0.270 N 
HETATM   28  H   UNL     1      36.371  -8.033  -1.169  1.00  0.00     0.190 HD
HETATM   29  C   UNL     1      35.796  -9.916  -2.026  1.00  0.00     0.227 A 
HETATM   30  N   UNL     1      36.497 -10.820  -2.664  1.00  0.00    -0.225 NA
ENDBRANCH  24  25
ENDBRANCH  21  24
ENDBRANCH   2  18
TORSDOF 6
ENDMDL
MODEL 10
REMARK VINA RESULT:      -7.2     18.921     20.721
REMARK  6 active torsions:
REMARK  status: ('A' for Active; 'I' for Inactive)
REMARK    1  A    between atoms: C_2  and  C_3 
REMARK       I    between atoms: C_3  and  N_4 
REMARK    2  A    between atoms: N_4  and  C_5 
REMARK    3  A    between atoms: C_7  and  N_8 
REMARK       I    between atoms: N_8  and  C_9 
REMARK    4  A    between atoms: C_9  and  C_10 
REMARK    5  A    between atoms: C_13  and  C_14 
REMARK    6  A    between atoms: C_14  and  C_15 
ROOT
HETATM    1  N   UNL     1      50.427 -30.541   1.478  1.00  0.00    -0.322 N 
HETATM    2  C   UNL     1      49.941 -31.542   2.300  1.00  0.00     0.256 C 
HETATM    3  O   UNL     1      49.015 -32.305   2.051  1.00  0.00    -0.267 OA
HETATM    4  H   UNL     1      51.142 -29.943   1.860  1.00  0.00     0.169 HD
ENDROOT
BRANCH   1   5
HETATM    5  C   UNL     1      50.114 -30.316   0.111  1.00  0.00     0.043 A 
HETATM    6  C   UNL     1      49.067 -29.470  -0.292  1.00  0.00     0.059 A 
HETATM    7  C   UNL     1      48.694 -29.366  -1.637  1.00  0.00     0.036 A 
HETATM    8  C   UNL     1      49.405 -30.096  -2.594  1.00  0.00     0.030 A 
HETATM    9  C   UNL     1      50.469 -30.913  -2.215  1.00  0.00     0.011 A 
HETATM   10  C   UNL     1      50.833 -31.037  -0.867  1.00  0.00    -0.035 A 
HETATM   11  C   UNL     1      51.981 -31.948  -0.522  1.00  0.00     0.050 C 
BRANCH   7  12
HETATM   12  N   UNL     1      47.593 -28.615  -2.104  1.00  0.00    -0.327 N 
HETATM   13  C   UNL     1      46.252 -28.830  -1.849  1.00  0.00     0.221 C 
HETATM   14  O   UNL     1      45.786 -29.665  -1.081  1.00  0.00    -0.273 OA
HETATM   15  H   UNL     1      47.828 -27.815  -2.673  1.00  0.00     0.169 HD
BRANCH  13  16
HETATM   16  C   UNL     1      45.306 -27.980  -2.689  1.00  0.00     0.098 C 
HETATM   17  C   UNL     1      45.095 -28.442  -4.119  1.00  0.00     0.014 C 
ENDBRANCH  13  16
ENDBRANCH   7  12
ENDBRANCH   1   5
BRANCH   2  18
HETATM   18  C   UNL     1      50.653 -31.713   3.602  1.00  0.00     0.032 A 
HETATM   19  C   UNL     1      50.917 -30.652   4.477  1.00  0.00     0.017 A 
HETATM   20  C   UNL     1      51.641 -30.877   5.653  1.00  0.00     0.008 A 
HETATM   21  C   UNL     1      52.104 -32.163   5.977  1.00  0.00    -0.051 A 
HETATM   22  C   UNL     1      51.799 -33.227   5.117  1.00  0.00     0.008 A 
HETATM   23  C   UNL     1      51.080 -33.005   3.942  1.00  0.00     0.017 A 
BRANCH  21  24
HETATM   24  C   UNL     1      52.904 -32.401   7.237  1.00  0.00     0.120 C 
BRANCH  24  25
HETATM   25  C   UNL     1      54.270 -31.878   6.975  1.00  0.00     0.151 A 
HETATM   26  N   UNL     1      54.688 -30.674   7.394  1.00  0.00    -0.158 NA
HETATM   27  N   UNL     1      55.945 -30.647   6.921  1.00  0.00    -0.270 N 
HETATM   28  H   UNL     1      56.530 -29.842   7.107  1.00  0.00     0.190 HD
HETATM   29  C   UNL     1      56.233 -31.775   6.222  1.00  0.00     0.227 A 
HETATM   30  N   UNL     1      55.191 -32.569   6.221  1.00  0.00    -0.225 NA
ENDBRANCH  24  25
ENDBRANCH  21  24
ENDBRANCH   2  18
TORSDOF 6
ENDMDL
