MODEL 1
REMARK VINA RESULT:      -9.8      0.000      0.000
REMARK  9 active torsions:
REMARK  status: ('A' for Active; 'I' for Inactive)
REMARK       I    between atoms: C_2  and  N_3 
REMARK    1  A    between atoms: N_3  and  C_4 
REMARK    2  A    between atoms: C_7  and  O_8 
REMARK    3  A    between atoms: O_8  and  C_9 
REMARK    4  A    between atoms: C_9  and  C_10 
REMARK    5  A    between atoms: C_11  and  O_12 
REMARK    6  A    between atoms: C_16  and  C_17 
REMARK    7  A    between atoms: C_31  and  O_32 
REMARK    8  A    between atoms: O_32  and  C_33 
REMARK    9  A    between atoms: C_33  and  C_34 
ROOT
HETATM    1  C   UNL     1      40.724  -8.454   6.960  1.00  0.00     0.269 C 
HETATM    2  N   UNL     1      39.552  -8.378   6.010  1.00  0.00    -0.061 N 
HETATM    3  H   UNL     1      39.920  -8.110   5.092  1.00  0.00     0.278 HD
HETATM    4  H   UNL     1      38.929  -7.626   6.324  1.00  0.00     0.278 HD
HETATM    5  C   UNL     1      38.769  -9.662   5.861  1.00  0.00     0.238 C 
HETATM    6  C   UNL     1      39.652 -10.790   5.296  1.00  0.00     0.069 C 
HETATM    7  C   UNL     1      40.979 -10.807   5.974  1.00  0.00    -0.019 A 
HETATM    8  C   UNL     1      41.447  -9.731   6.707  1.00  0.00     0.052 A 
HETATM    9  N   UNL     1      42.693 -10.049   7.181  1.00  0.00    -0.356 N 
HETATM   10  H   UNL     1      43.284  -9.473   7.769  1.00  0.00     0.166 HD
HETATM   11  C   UNL     1      43.033 -11.320   6.770  1.00  0.00     0.043 A 
HETATM   12  C   UNL     1      41.966 -11.826   6.024  1.00  0.00     0.002 A 
HETATM   13  C   UNL     1      44.199 -12.053   7.008  1.00  0.00     0.033 A 
HETATM   14  C   UNL     1      44.260 -13.350   6.491  1.00  0.00     0.039 A 
HETATM   15  C   UNL     1      43.197 -13.901   5.776  1.00  0.00     0.070 A 
HETATM   16  C   UNL     1      42.056 -13.136   5.508  1.00  0.00     0.051 A 
ENDROOT
BRANCH   1  17
HETATM   17  C   UNL     1      40.274  -8.233   8.393  1.00  0.00    -0.021 A 
HETATM   18  C   UNL     1      39.437  -7.146   8.691  1.00  0.00     0.012 A 
HETATM   19  C   UNL     1      38.936  -6.958   9.984  1.00  0.00     0.038 A 
HETATM   20  C   UNL     1      39.257  -7.849  11.010  1.00  0.00     0.076 A 
HETATM   21  C   UNL     1      40.112  -8.932  10.744  1.00  0.00    -0.000 A 
HETATM   22  C   UNL     1      40.599  -9.119   9.434  1.00  0.00     0.021 A 
BRANCH  20  23
HETATM   23  O   UNL     1      38.775  -7.766  12.288  1.00  0.00    -0.355 OA
HETATM   24  C   UNL     1      37.649  -6.930  12.524  1.00  0.00     0.210 C 
ENDBRANCH  20  23
BRANCH  21  25
HETATM   25  C   UNL     1      40.455  -9.941  11.827  1.00  0.00     0.217 C 
BRANCH  25  26
HETATM   26  O   UNL     1      41.825  -9.782  12.218  1.00  0.00    -0.347 OA
BRANCH  26  27
HETATM   27  C   UNL     1      42.051  -8.881  13.223  1.00  0.00     0.069 A 
HETATM   28  C   UNL     1      41.221  -9.004  14.337  1.00  0.00     0.039 A 
HETATM   29  C   UNL     1      41.363  -8.140  15.430  1.00  0.00     0.032 A 
HETATM   30  C   UNL     1      42.329  -7.128  15.418  1.00  0.00     0.034 A 
HETATM   31  C   UNL     1      43.145  -6.998  14.294  1.00  0.00     0.032 A 
HETATM   32  C   UNL     1      43.008  -7.867  13.203  1.00  0.00     0.039 A 
BRANCH  30  33
HETATM   33  N   UNL     1      42.417  -6.298  16.554  1.00  0.00    -0.328 N 
HETATM   34  C   UNL     1      41.473  -5.393  17.009  1.00  0.00     0.218 C 
HETATM   35  C   UNL     1      41.933  -4.672  18.251  1.00  0.00     0.117 C 
HETATM   36  O   UNL     1      40.384  -5.148  16.504  1.00  0.00    -0.274 OA
HETATM   37  H   UNL     1      43.270  -6.370  17.095  1.00  0.00     0.169 HD
ENDBRANCH  30  33
ENDBRANCH  26  27
ENDBRANCH  25  26
ENDBRANCH  21  25
ENDBRANCH   1  17
BRANCH  15  38
HETATM   38  O   UNL     1      43.385 -15.193   5.366  1.00  0.00    -0.347 OA
BRANCH  38  39
HETATM   39  C   UNL     1      43.005 -15.486   4.019  1.00  0.00     0.214 C 
BRANCH  39  40
HETATM   40  C   UNL     1      43.266 -16.944   3.726  1.00  0.00    -0.034 A 
HETATM   41  C   UNL     1      42.783 -17.532   2.547  1.00  0.00     0.009 A 
HETATM   42  C   UNL     1      43.069 -18.865   2.248  1.00  0.00     0.001 A 
HETATM   43  C   UNL     1      43.848 -19.622   3.121  1.00  0.00     0.000 A 
HETATM   44  C   UNL     1      44.342 -19.048   4.290  1.00  0.00     0.001 A 
HETATM   45  C   UNL     1      44.056 -17.714   4.591  1.00  0.00     0.009 A 
ENDBRANCH  39  40
ENDBRANCH  38  39
ENDBRANCH  15  38
TORSDOF 9
ENDMDL
MODEL 2
REMARK VINA RESULT:      -9.8      6.181     10.029
REMARK  9 active torsions:
REMARK  status: ('A' for Active; 'I' for Inactive)
REMARK       I    between atoms: C_2  and  N_3 
REMARK    1  A    between atoms: N_3  and  C_4 
REMARK    2  A    between atoms: C_7  and  O_8 
REMARK    3  A    between atoms: O_8  and  C_9 
REMARK    4  A    between atoms: C_9  and  C_10 
REMARK    5  A    between atoms: C_11  and  O_12 
REMARK    6  A    between atoms: C_16  and  C_17 
REMARK    7  A    between atoms: C_31  and  O_32 
REMARK    8  A    between atoms: O_32  and  C_33 
REMARK    9  A    between atoms: C_33  and  C_34 
ROOT
HETATM    1  C   UNL     1      39.944 -11.450   5.921  1.00  0.00     0.269 C 
HETATM    2  N   UNL     1      41.029 -10.986   6.867  1.00  0.00    -0.061 N 
HETATM    3  H   UNL     1      41.052 -11.646   7.650  1.00  0.00     0.278 HD
HETATM    4  H   UNL     1      40.761 -10.070   7.241  1.00  0.00     0.278 HD
HETATM    5  C   UNL     1      42.410 -10.907   6.260  1.00  0.00     0.238 C 
HETATM    6  C   UNL     1      42.885 -12.289   5.774  1.00  0.00     0.069 C 
HETATM    7  C   UNL     1      41.795 -12.991   5.041  1.00  0.00    -0.019 A 
HETATM    8  C   UNL     1      40.471 -12.602   5.138  1.00  0.00     0.052 A 
HETATM    9  N   UNL     1      39.720 -13.452   4.367  1.00  0.00    -0.356 N 
HETATM   10  H   UNL     1      38.719 -13.411   4.218  1.00  0.00     0.166 HD
HETATM   11  C   UNL     1      40.543 -14.380   3.768  1.00  0.00     0.043 A 
HETATM   12  C   UNL     1      41.855 -14.104   4.161  1.00  0.00     0.002 A 
HETATM   13  C   UNL     1      40.222 -15.435   2.910  1.00  0.00     0.033 A 
HETATM   14  C   UNL     1      41.278 -16.209   2.418  1.00  0.00     0.039 A 
HETATM   15  C   UNL     1      42.602 -15.935   2.759  1.00  0.00     0.070 A 
HETATM   16  C   UNL     1      42.901 -14.904   3.656  1.00  0.00     0.051 A 
ENDROOT
BRANCH   1  17
HETATM   17  C   UNL     1      39.411 -10.291   5.099  1.00  0.00    -0.021 A 
HETATM   18  C   UNL     1      38.393  -9.483   5.628  1.00  0.00     0.012 A 
HETATM   19  C   UNL     1      37.933  -8.357   4.934  1.00  0.00     0.038 A 
HETATM   20  C   UNL     1      38.480  -8.011   3.697  1.00  0.00     0.076 A 
HETATM   21  C   UNL     1      39.486  -8.816   3.135  1.00  0.00    -0.000 A 
HETATM   22  C   UNL     1      39.950  -9.938   3.850  1.00  0.00     0.021 A 
BRANCH  20  23
HETATM   23  O   UNL     1      38.124  -6.904   2.975  1.00  0.00    -0.355 OA
HETATM   24  C   UNL     1      37.635  -5.773   3.685  1.00  0.00     0.210 C 
ENDBRANCH  20  23
BRANCH  21  25
HETATM   25  C   UNL     1      40.128  -8.449   1.807  1.00  0.00     0.217 C 
BRANCH  25  26
HETATM   26  O   UNL     1      41.126  -9.421   1.470  1.00  0.00    -0.347 OA
BRANCH  26  27
HETATM   27  C   UNL     1      40.665 -10.547   0.844  1.00  0.00     0.069 A 
HETATM   28  C   UNL     1      39.600 -10.351  -0.036  1.00  0.00     0.039 A 
HETATM   29  C   UNL     1      39.048 -11.429  -0.738  1.00  0.00     0.032 A 
HETATM   30  C   UNL     1      39.543 -12.725  -0.559  1.00  0.00     0.034 A 
HETATM   31  C   UNL     1      40.597 -12.919   0.335  1.00  0.00     0.032 A 
HETATM   32  C   UNL     1      41.154 -11.839   1.032  1.00  0.00     0.039 A 
BRANCH  30  33
HETATM   33  N   UNL     1      38.941 -13.761  -1.301  1.00  0.00    -0.328 N 
HETATM   34  C   UNL     1      39.313 -14.226  -2.551  1.00  0.00     0.218 C 
HETATM   35  C   UNL     1      38.414 -15.337  -3.033  1.00  0.00     0.117 C 
HETATM   36  O   UNL     1      40.239 -13.820  -3.243  1.00  0.00    -0.274 OA
HETATM   37  H   UNL     1      38.142 -14.212  -0.872  1.00  0.00     0.169 HD
ENDBRANCH  30  33
ENDBRANCH  26  27
ENDBRANCH  25  26
ENDBRANCH  21  25
ENDBRANCH   1  17
BRANCH  15  38
HETATM   38  O   UNL     1      43.529 -16.752   2.170  1.00  0.00    -0.347 OA
BRANCH  38  39
HETATM   39  C   UNL     1      43.101 -18.089   1.891  1.00  0.00     0.214 C 
BRANCH  39  40
HETATM   40  C   UNL     1      43.532 -19.001   3.014  1.00  0.00    -0.034 A 
HETATM   41  C   UNL     1      43.764 -18.488   4.300  1.00  0.00     0.009 A 
HETATM   42  C   UNL     1      44.109 -19.338   5.353  1.00  0.00     0.001 A 
HETATM   43  C   UNL     1      44.217 -20.709   5.133  1.00  0.00     0.000 A 
HETATM   44  C   UNL     1      43.979 -21.232   3.864  1.00  0.00     0.001 A 
HETATM   45  C   UNL     1      43.635 -20.384   2.809  1.00  0.00     0.009 A 
ENDBRANCH  39  40
ENDBRANCH  38  39
ENDBRANCH  15  38
TORSDOF 9
ENDMDL
MODEL 3
REMARK VINA RESULT:      -9.5      2.263      3.484
REMARK  9 active torsions:
REMARK  status: ('A' for Active; 'I' for Inactive)
REMARK       I    between atoms: C_2  and  N_3 
REMARK    1  A    between atoms: N_3  and  C_4 
REMARK    2  A    between atoms: C_7  and  O_8 
REMARK    3  A    between atoms: O_8  and  C_9 
REMARK    4  A    between atoms: C_9  and  C_10 
REMARK    5  A    between atoms: C_11  and  O_12 
REMARK    6  A    between atoms: C_16  and  C_17 
REMARK    7  A    between atoms: C_31  and  O_32 
REMARK    8  A    between atoms: O_32  and  C_33 
REMARK    9  A    between atoms: C_33  and  C_34 
ROOT
HETATM    1  C   UNL     1      41.276  -9.897   5.614  1.00  0.00     0.269 C 
HETATM    2  N   UNL     1      39.847  -9.925   6.104  1.00  0.00    -0.061 N 
HETATM    3  H   UNL     1      39.249  -9.671   5.312  1.00  0.00     0.278 HD
HETATM    4  H   UNL     1      39.736  -9.200   6.820  1.00  0.00     0.278 HD
HETATM    5  C   UNL     1      39.387 -11.257   6.649  1.00  0.00     0.238 C 
HETATM    6  C   UNL     1      39.448 -12.352   5.569  1.00  0.00     0.069 C 
HETATM    7  C   UNL     1      40.724 -12.265   4.804  1.00  0.00    -0.019 A 
HETATM    8  C   UNL     1      41.524 -11.138   4.830  1.00  0.00     0.052 A 
HETATM    9  N   UNL     1      42.605 -11.364   4.017  1.00  0.00    -0.356 N 
HETATM   10  H   UNL     1      43.379 -10.733   3.846  1.00  0.00     0.166 HD
HETATM   11  C   UNL     1      42.517 -12.627   3.474  1.00  0.00     0.043 A 
HETATM   12  C   UNL     1      41.353 -13.223   3.965  1.00  0.00     0.002 A 
HETATM   13  C   UNL     1      43.381 -13.281   2.591  1.00  0.00     0.033 A 
HETATM   14  C   UNL     1      43.057 -14.592   2.226  1.00  0.00     0.039 A 
HETATM   15  C   UNL     1      41.924 -15.230   2.730  1.00  0.00     0.070 A 
HETATM   16  C   UNL     1      41.046 -14.543   3.576  1.00  0.00     0.051 A 
ENDROOT
BRANCH   1  17
HETATM   17  C   UNL     1      42.237  -9.648   6.763  1.00  0.00    -0.021 A 
HETATM   18  C   UNL     1      43.188 -10.629   7.088  1.00  0.00     0.012 A 
HETATM   19  C   UNL     1      44.143 -10.402   8.086  1.00  0.00     0.038 A 
HETATM   20  C   UNL     1      44.172  -9.192   8.783  1.00  0.00     0.076 A 
HETATM   21  C   UNL     1      43.216  -8.203   8.493  1.00  0.00    -0.000 A 
HETATM   22  C   UNL     1      42.269  -8.438   7.475  1.00  0.00     0.021 A 
BRANCH  20  23
HETATM   23  O   UNL     1      45.096  -8.870   9.739  1.00  0.00    -0.355 OA
HETATM   24  C   UNL     1      45.598  -9.916  10.561  1.00  0.00     0.210 C 
ENDBRANCH  20  23
BRANCH  21  25
HETATM   25  C   UNL     1      43.240  -6.861   9.206  1.00  0.00     0.217 C 
BRANCH  25  26
HETATM   26  O   UNL     1      42.068  -6.728  10.021  1.00  0.00    -0.347 OA
BRANCH  26  27
HETATM   27  C   UNL     1      42.278  -6.794  11.372  1.00  0.00     0.069 A 
HETATM   28  C   UNL     1      41.831  -5.693  12.103  1.00  0.00     0.039 A 
HETATM   29  C   UNL     1      41.987  -5.650  13.493  1.00  0.00     0.032 A 
HETATM   30  C   UNL     1      42.607  -6.704  14.174  1.00  0.00     0.034 A 
HETATM   31  C   UNL     1      43.068  -7.795  13.437  1.00  0.00     0.032 A 
HETATM   32  C   UNL     1      42.906  -7.840  12.045  1.00  0.00     0.039 A 
BRANCH  30  33
HETATM   33  N   UNL     1      42.726  -6.594  15.574  1.00  0.00    -0.328 N 
HETATM   34  C   UNL     1      41.743  -6.819  16.522  1.00  0.00     0.218 C 
HETATM   35  C   UNL     1      42.243  -6.582  17.925  1.00  0.00     0.117 C 
HETATM   36  O   UNL     1      40.584  -7.159  16.315  1.00  0.00    -0.274 OA
HETATM   37  H   UNL     1      43.634  -6.312  15.925  1.00  0.00     0.169 HD
ENDBRANCH  30  33
ENDBRANCH  26  27
ENDBRANCH  25  26
ENDBRANCH  21  25
ENDBRANCH   1  17
BRANCH  15  38
HETATM   38  O   UNL     1      41.758 -16.523   2.315  1.00  0.00    -0.347 OA
BRANCH  38  39
HETATM   39  C   UNL     1      42.923 -17.168   1.791  1.00  0.00     0.214 C 
BRANCH  39  40
HETATM   40  C   UNL     1      43.301 -18.327   2.682  1.00  0.00    -0.034 A 
HETATM   41  C   UNL     1      43.297 -19.640   2.184  1.00  0.00     0.009 A 
HETATM   42  C   UNL     1      43.699 -20.707   2.990  1.00  0.00     0.001 A 
HETATM   43  C   UNL     1      44.118 -20.473   4.298  1.00  0.00     0.000 A 
HETATM   44  C   UNL     1      44.137 -19.173   4.800  1.00  0.00     0.001 A 
HETATM   45  C   UNL     1      43.734 -18.104   3.997  1.00  0.00     0.009 A 
ENDBRANCH  39  40
ENDBRANCH  38  39
ENDBRANCH  15  38
TORSDOF 9
ENDMDL
MODEL 4
REMARK VINA RESULT:      -9.5      1.466      2.095
REMARK  9 active torsions:
REMARK  status: ('A' for Active; 'I' for Inactive)
REMARK       I    between atoms: C_2  and  N_3 
REMARK    1  A    between atoms: N_3  and  C_4 
REMARK    2  A    between atoms: C_7  and  O_8 
REMARK    3  A    between atoms: O_8  and  C_9 
REMARK    4  A    between atoms: C_9  and  C_10 
REMARK    5  A    between atoms: C_11  and  O_12 
REMARK    6  A    between atoms: C_16  and  C_17 
REMARK    7  A    between atoms: C_31  and  O_32 
REMARK    8  A    between atoms: O_32  and  C_33 
REMARK    9  A    between atoms: C_33  and  C_34 
ROOT
HETATM    1  C   UNL     1      40.936  -9.538   6.139  1.00  0.00     0.269 C 
HETATM    2  N   UNL     1      39.869  -9.402   5.078  1.00  0.00    -0.061 N 
HETATM    3  H   UNL     1      40.346  -9.292   4.178  1.00  0.00     0.278 HD
HETATM    4  H   UNL     1      39.343  -8.540   5.257  1.00  0.00     0.278 HD
HETATM    5  C   UNL     1      38.916 -10.571   4.979  1.00  0.00     0.238 C 
HETATM    6  C   UNL     1      39.662 -11.868   4.614  1.00  0.00     0.069 C 
HETATM    7  C   UNL     1      40.912 -11.997   5.414  1.00  0.00    -0.019 A 
HETATM    8  C   UNL     1      41.476 -10.925   6.081  1.00  0.00     0.052 A 
HETATM    9  N   UNL     1      42.618 -11.362   6.701  1.00  0.00    -0.356 N 
HETATM   10  H   UNL     1      43.240 -10.814   7.285  1.00  0.00     0.166 HD
HETATM   11  C   UNL     1      42.794 -12.705   6.450  1.00  0.00     0.043 A 
HETATM   12  C   UNL     1      41.727 -13.135   5.657  1.00  0.00     0.002 A 
HETATM   13  C   UNL     1      43.813 -13.565   6.868  1.00  0.00     0.033 A 
HETATM   14  C   UNL     1      43.719 -14.907   6.488  1.00  0.00     0.039 A 
HETATM   15  C   UNL     1      42.647 -15.377   5.731  1.00  0.00     0.070 A 
HETATM   16  C   UNL     1      41.659 -14.492   5.282  1.00  0.00     0.051 A 
ENDROOT
BRANCH   1  17
HETATM   17  C   UNL     1      40.410  -9.100   7.494  1.00  0.00    -0.021 A 
HETATM   18  C   UNL     1      39.557  -9.954   8.210  1.00  0.00     0.012 A 
HETATM   19  C   UNL     1      39.119  -9.620   9.497  1.00  0.00     0.038 A 
HETATM   20  C   UNL     1      39.521  -8.427  10.100  1.00  0.00     0.076 A 
HETATM   21  C   UNL     1      40.357  -7.543   9.395  1.00  0.00    -0.000 A 
HETATM   22  C   UNL     1      40.803  -7.898   8.106  1.00  0.00     0.021 A 
BRANCH  20  23
HETATM   23  O   UNL     1      39.178  -8.044  11.368  1.00  0.00    -0.355 OA
HETATM   24  C   UNL     1      39.524  -8.910  12.442  1.00  0.00     0.210 C 
ENDBRANCH  20  23
BRANCH  21  25
HETATM   25  C   UNL     1      40.843  -6.252  10.033  1.00  0.00     0.217 C 
BRANCH  25  26
HETATM   26  O   UNL     1      42.148  -6.452  10.590  1.00  0.00    -0.347 OA
BRANCH  26  27
HETATM   27  C   UNL     1      42.219  -6.416  11.957  1.00  0.00     0.069 A 
HETATM   28  C   UNL     1      42.937  -7.455  12.548  1.00  0.00     0.039 A 
HETATM   29  C   UNL     1      43.081  -7.520  13.940  1.00  0.00     0.032 A 
HETATM   30  C   UNL     1      42.495  -6.553  14.763  1.00  0.00     0.034 A 
HETATM   31  C   UNL     1      41.763  -5.524  14.168  1.00  0.00     0.032 A 
HETATM   32  C   UNL     1      41.625  -5.456  12.775  1.00  0.00     0.039 A 
BRANCH  30  33
HETATM   33  N   UNL     1      42.685  -6.680  16.154  1.00  0.00    -0.328 N 
HETATM   34  C   UNL     1      41.738  -7.022  17.104  1.00  0.00     0.218 C 
HETATM   35  C   UNL     1      42.313  -7.038  18.498  1.00  0.00     0.117 C 
HETATM   36  O   UNL     1      40.556  -7.279  16.907  1.00  0.00    -0.274 OA
HETATM   37  H   UNL     1      43.620  -6.494  16.496  1.00  0.00     0.169 HD
ENDBRANCH  30  33
ENDBRANCH  26  27
ENDBRANCH  25  26
ENDBRANCH  21  25
ENDBRANCH   1  17
BRANCH  15  38
HETATM   38  O   UNL     1      42.670 -16.720   5.468  1.00  0.00    -0.347 OA
BRANCH  38  39
HETATM   39  C   UNL     1      43.965 -17.302   5.292  1.00  0.00     0.214 C 
BRANCH  39  40
HETATM   40  C   UNL     1      43.878 -18.436   4.300  1.00  0.00    -0.034 A 
HETATM   41  C   UNL     1      44.137 -19.756   4.700  1.00  0.00     0.009 A 
HETATM   42  C   UNL     1      44.003 -20.813   3.798  1.00  0.00     0.001 A 
HETATM   43  C   UNL     1      43.601 -20.562   2.488  1.00  0.00     0.000 A 
HETATM   44  C   UNL     1      43.331 -19.258   2.080  1.00  0.00     0.001 A 
HETATM   45  C   UNL     1      43.464 -18.199   2.981  1.00  0.00     0.009 A 
ENDBRANCH  39  40
ENDBRANCH  38  39
ENDBRANCH  15  38
TORSDOF 9
ENDMDL
MODEL 5
REMARK VINA RESULT:      -9.5      6.732      9.884
REMARK  9 active torsions:
REMARK  status: ('A' for Active; 'I' for Inactive)
REMARK       I    between atoms: C_2  and  N_3 
REMARK    1  A    between atoms: N_3  and  C_4 
REMARK    2  A    between atoms: C_7  and  O_8 
REMARK    3  A    between atoms: O_8  and  C_9 
REMARK    4  A    between atoms: C_9  and  C_10 
REMARK    5  A    between atoms: C_11  and  O_12 
REMARK    6  A    between atoms: C_16  and  C_17 
REMARK    7  A    between atoms: C_31  and  O_32 
REMARK    8  A    between atoms: O_32  and  C_33 
REMARK    9  A    between atoms: C_33  and  C_34 
ROOT
HETATM    1  C   UNL     1      39.792 -12.269  -2.539  1.00  0.00     0.269 C 
HETATM    2  N   UNL     1      39.097 -13.304  -3.393  1.00  0.00    -0.061 N 
HETATM    3  H   UNL     1      39.824 -13.825  -3.892  1.00  0.00     0.278 HD
HETATM    4  H   UNL     1      38.529 -12.816  -4.095  1.00  0.00     0.278 HD
HETATM    5  C   UNL     1      38.236 -14.284  -2.630  1.00  0.00     0.238 C 
HETATM    6  C   UNL     1      39.075 -15.105  -1.635  1.00  0.00     0.069 C 
HETATM    7  C   UNL     1      40.025 -14.224  -0.898  1.00  0.00    -0.019 A 
HETATM    8  C   UNL     1      40.344 -12.952  -1.337  1.00  0.00     0.052 A 
HETATM    9  N   UNL     1      41.249 -12.414  -0.459  1.00  0.00    -0.356 N 
HETATM   10  H   UNL     1      41.657 -11.487  -0.500  1.00  0.00     0.166 HD
HETATM   11  C   UNL     1      41.513 -13.319   0.545  1.00  0.00     0.043 A 
HETATM   12  C   UNL     1      40.744 -14.460   0.304  1.00  0.00     0.002 A 
HETATM   13  C   UNL     1      42.369 -13.208   1.644  1.00  0.00     0.033 A 
HETATM   14  C   UNL     1      42.414 -14.284   2.536  1.00  0.00     0.039 A 
HETATM   15  C   UNL     1      41.629 -15.421   2.346  1.00  0.00     0.070 A 
HETATM   16  C   UNL     1      40.813 -15.534   1.215  1.00  0.00     0.051 A 
ENDROOT
BRANCH   1  17
HETATM   17  C   UNL     1      38.873 -11.094  -2.257  1.00  0.00    -0.021 A 
HETATM   18  C   UNL     1      38.487 -10.255  -3.314  1.00  0.00     0.012 A 
HETATM   19  C   UNL     1      37.576  -9.211  -3.108  1.00  0.00     0.038 A 
HETATM   20  C   UNL     1      37.030  -8.982  -1.843  1.00  0.00     0.076 A 
HETATM   21  C   UNL     1      37.418  -9.793  -0.764  1.00  0.00    -0.000 A 
HETATM   22  C   UNL     1      38.325 -10.850  -0.987  1.00  0.00     0.021 A 
BRANCH  20  23
HETATM   23  O   UNL     1      36.101  -8.016  -1.564  1.00  0.00    -0.355 OA
HETATM   24  C   UNL     1      35.289  -7.543  -2.631  1.00  0.00     0.210 C 
ENDBRANCH  20  23
BRANCH  21  25
HETATM   25  C   UNL     1      36.818  -9.595   0.618  1.00  0.00     0.217 C 
BRANCH  25  26
HETATM   26  O   UNL     1      36.905 -10.817   1.362  1.00  0.00    -0.347 OA
BRANCH  26  27
HETATM   27  C   UNL     1      37.939 -10.892   2.256  1.00  0.00     0.069 A 
HETATM   28  C   UNL     1      38.421 -12.176   2.510  1.00  0.00     0.039 A 
HETATM   29  C   UNL     1      39.481 -12.376   3.402  1.00  0.00     0.032 A 
HETATM   30  C   UNL     1      40.066 -11.293   4.068  1.00  0.00     0.034 A 
HETATM   31  C   UNL     1      39.570 -10.012   3.823  1.00  0.00     0.032 A 
HETATM   32  C   UNL     1      38.513  -9.812   2.924  1.00  0.00     0.039 A 
BRANCH  30  33
HETATM   33  N   UNL     1      41.131 -11.569   4.949  1.00  0.00    -0.328 N 
HETATM   34  C   UNL     1      42.452 -11.175   4.822  1.00  0.00     0.218 C 
HETATM   35  C   UNL     1      43.305 -11.678   5.959  1.00  0.00     0.117 C 
HETATM   36  O   UNL     1      42.938 -10.509   3.916  1.00  0.00    -0.274 OA
HETATM   37  H   UNL     1      40.903 -12.124   5.765  1.00  0.00     0.169 HD
ENDBRANCH  30  33
ENDBRANCH  26  27
ENDBRANCH  25  26
ENDBRANCH  21  25
ENDBRANCH   1  17
BRANCH  15  38
HETATM   38  O   UNL     1      41.751 -16.375   3.321  1.00  0.00    -0.347 OA
BRANCH  38  39
HETATM   39  C   UNL     1      43.085 -16.679   3.739  1.00  0.00     0.214 C 
BRANCH  39  40
HETATM   40  C   UNL     1      43.337 -18.159   3.584  1.00  0.00    -0.034 A 
HETATM   41  C   UNL     1      43.124 -18.793   2.350  1.00  0.00     0.009 A 
HETATM   42  C   UNL     1      43.408 -20.151   2.190  1.00  0.00     0.001 A 
HETATM   43  C   UNL     1      43.916 -20.886   3.258  1.00  0.00     0.000 A 
HETATM   44  C   UNL     1      44.142 -20.267   4.485  1.00  0.00     0.001 A 
HETATM   45  C   UNL     1      43.857 -18.909   4.648  1.00  0.00     0.009 A 
ENDBRANCH  39  40
ENDBRANCH  38  39
ENDBRANCH  15  38
TORSDOF 9
ENDMDL
MODEL 6
REMARK VINA RESULT:      -9.5      2.150      3.051
REMARK  9 active torsions:
REMARK  status: ('A' for Active; 'I' for Inactive)
REMARK       I    between atoms: C_2  and  N_3 
REMARK    1  A    between atoms: N_3  and  C_4 
REMARK    2  A    between atoms: C_7  and  O_8 
REMARK    3  A    between atoms: O_8  and  C_9 
REMARK    4  A    between atoms: C_9  and  C_10 
REMARK    5  A    between atoms: C_11  and  O_12 
REMARK    6  A    between atoms: C_16  and  C_17 
REMARK    7  A    between atoms: C_31  and  O_32 
REMARK    8  A    between atoms: O_32  and  C_33 
REMARK    9  A    between atoms: C_33  and  C_34 
ROOT
HETATM    1  C   UNL     1      40.350  -9.349   5.295  1.00  0.00     0.269 C 
HETATM    2  N   UNL     1      39.021  -9.646   5.951  1.00  0.00    -0.061 N 
HETATM    3  H   UNL     1      38.330  -9.756   5.203  1.00  0.00     0.278 HD
HETATM    4  H   UNL     1      38.746  -8.830   6.508  1.00  0.00     0.278 HD
HETATM    5  C   UNL     1      39.001 -10.886   6.815  1.00  0.00     0.238 C 
HETATM    6  C   UNL     1      39.314 -12.146   5.988  1.00  0.00     0.069 C 
HETATM    7  C   UNL     1      40.464 -11.900   5.072  1.00  0.00    -0.019 A 
HETATM    8  C   UNL     1      40.902 -10.626   4.763  1.00  0.00     0.052 A 
HETATM    9  N   UNL     1      41.952 -10.736   3.889  1.00  0.00    -0.356 N 
HETATM   10  H   UNL     1      42.498  -9.978   3.496  1.00  0.00     0.166 HD
HETATM   11  C   UNL     1      42.204 -12.068   3.636  1.00  0.00     0.043 A 
HETATM   12  C   UNL     1      41.293 -12.822   4.380  1.00  0.00     0.002 A 
HETATM   13  C   UNL     1      43.167 -12.653   2.811  1.00  0.00     0.033 A 
HETATM   14  C   UNL     1      43.218 -14.049   2.771  1.00  0.00     0.039 A 
HETATM   15  C   UNL     1      42.351 -14.832   3.531  1.00  0.00     0.070 A 
HETATM   16  C   UNL     1      41.361 -14.229   4.317  1.00  0.00     0.051 A 
ENDROOT
BRANCH   1  17
HETATM   17  C   UNL     1      41.262  -8.588   6.240  1.00  0.00    -0.021 A 
HETATM   18  C   UNL     1      41.153  -7.191   6.325  1.00  0.00     0.012 A 
HETATM   19  C   UNL     1      41.919  -6.464   7.244  1.00  0.00     0.038 A 
HETATM   20  C   UNL     1      42.811  -7.113   8.099  1.00  0.00     0.076 A 
HETATM   21  C   UNL     1      42.956  -8.509   8.018  1.00  0.00    -0.000 A 
HETATM   22  C   UNL     1      42.168  -9.231   7.099  1.00  0.00     0.021 A 
BRANCH  20  23
HETATM   23  O   UNL     1      43.563  -6.487   9.056  1.00  0.00    -0.355 OA
HETATM   24  C   UNL     1      42.882  -5.742  10.058  1.00  0.00     0.210 C 
ENDBRANCH  20  23
BRANCH  21  25
HETATM   25  C   UNL     1      43.891  -9.253   8.957  1.00  0.00     0.217 C 
BRANCH  25  26
HETATM   26  O   UNL     1      43.126 -10.075   9.848  1.00  0.00    -0.347 OA
BRANCH  26  27
HETATM   27  C   UNL     1      42.689  -9.461  10.990  1.00  0.00     0.069 A 
HETATM   28  C   UNL     1      43.677  -8.830  11.747  1.00  0.00     0.039 A 
HETATM   29  C   UNL     1      43.348  -8.164  12.934  1.00  0.00     0.032 A 
HETATM   30  C   UNL     1      42.027  -8.132  13.391  1.00  0.00     0.034 A 
HETATM   31  C   UNL     1      41.045  -8.780  12.640  1.00  0.00     0.032 A 
HETATM   32  C   UNL     1      41.373  -9.440  11.448  1.00  0.00     0.039 A 
BRANCH  30  33
HETATM   33  N   UNL     1      41.769  -7.440  14.592  1.00  0.00    -0.328 N 
HETATM   34  C   UNL     1      41.525  -6.086  14.746  1.00  0.00     0.218 C 
HETATM   35  C   UNL     1      41.311  -5.710  16.191  1.00  0.00     0.117 C 
HETATM   36  O   UNL     1      41.487  -5.239  13.862  1.00  0.00    -0.274 OA
HETATM   37  H   UNL     1      41.769  -7.998  15.437  1.00  0.00     0.169 HD
ENDBRANCH  30  33
ENDBRANCH  26  27
ENDBRANCH  25  26
ENDBRANCH  21  25
ENDBRANCH   1  17
BRANCH  15  38
HETATM   38  O   UNL     1      42.544 -16.182   3.419  1.00  0.00    -0.347 OA
BRANCH  38  39
HETATM   39  C   UNL     1      43.631 -16.726   4.175  1.00  0.00     0.214 C 
BRANCH  39  40
HETATM   40  C   UNL     1      43.746 -18.206   3.900  1.00  0.00    -0.034 A 
HETATM   41  C   UNL     1      44.094 -19.096   4.928  1.00  0.00     0.009 A 
HETATM   42  C   UNL     1      44.149 -20.471   4.690  1.00  0.00     0.001 A 
HETATM   43  C   UNL     1      43.847 -20.970   3.425  1.00  0.00     0.000 A 
HETATM   44  C   UNL     1      43.489 -20.098   2.399  1.00  0.00     0.001 A 
HETATM   45  C   UNL     1      43.435 -18.722   2.635  1.00  0.00     0.009 A 
ENDBRANCH  39  40
ENDBRANCH  38  39
ENDBRANCH  15  38
TORSDOF 9
ENDMDL
MODEL 7
REMARK VINA RESULT:      -9.4      1.575      2.070
REMARK  9 active torsions:
REMARK  status: ('A' for Active; 'I' for Inactive)
REMARK       I    between atoms: C_2  and  N_3 
REMARK    1  A    between atoms: N_3  and  C_4 
REMARK    2  A    between atoms: C_7  and  O_8 
REMARK    3  A    between atoms: O_8  and  C_9 
REMARK    4  A    between atoms: C_9  and  C_10 
REMARK    5  A    between atoms: C_11  and  O_12 
REMARK    6  A    between atoms: C_16  and  C_17 
REMARK    7  A    between atoms: C_31  and  O_32 
REMARK    8  A    between atoms: O_32  and  C_33 
REMARK    9  A    between atoms: C_33  and  C_34 
ROOT
HETATM    1  C   UNL     1      42.533  -9.447   7.353  1.00  0.00     0.269 C 
HETATM    2  N   UNL     1      41.783  -8.605   6.347  1.00  0.00    -0.061 N 
HETATM    3  H   UNL     1      42.442  -8.365   5.600  1.00  0.00     0.278 HD
HETATM    4  H   UNL     1      41.502  -7.731   6.803  1.00  0.00     0.278 HD
HETATM    5  C   UNL     1      40.576  -9.274   5.731  1.00  0.00     0.238 C 
HETATM    6  C   UNL     1      40.977 -10.541   4.954  1.00  0.00     0.069 C 
HETATM    7  C   UNL     1      41.953 -11.350   5.737  1.00  0.00    -0.019 A 
HETATM    8  C   UNL     1      42.655 -10.827   6.807  1.00  0.00     0.052 A 
HETATM    9  N   UNL     1      43.477 -11.808   7.298  1.00  0.00    -0.356 N 
HETATM   10  H   UNL     1      44.100 -11.736   8.094  1.00  0.00     0.166 HD
HETATM   11  C   UNL     1      43.308 -12.962   6.563  1.00  0.00     0.043 A 
HETATM   12  C   UNL     1      42.343 -12.707   5.585  1.00  0.00     0.002 A 
HETATM   13  C   UNL     1      43.935 -14.204   6.695  1.00  0.00     0.033 A 
HETATM   14  C   UNL     1      43.539 -15.220   5.821  1.00  0.00     0.039 A 
HETATM   15  C   UNL     1      42.550 -15.011   4.860  1.00  0.00     0.070 A 
HETATM   16  C   UNL     1      41.967 -13.748   4.711  1.00  0.00     0.051 A 
ENDROOT
BRANCH   1  17
HETATM   17  C   UNL     1      41.896  -9.343   8.727  1.00  0.00    -0.021 A 
HETATM   18  C   UNL     1      40.497  -9.366   8.840  1.00  0.00     0.012 A 
HETATM   19  C   UNL     1      39.876  -9.355  10.094  1.00  0.00     0.038 A 
HETATM   20  C   UNL     1      40.635  -9.322  11.265  1.00  0.00     0.076 A 
HETATM   21  C   UNL     1      42.038  -9.276  11.180  1.00  0.00    -0.000 A 
HETATM   22  C   UNL     1      42.651  -9.302   9.911  1.00  0.00     0.021 A 
BRANCH  20  23
HETATM   23  O   UNL     1      40.113  -9.356  12.529  1.00  0.00    -0.355 OA
HETATM   24  C   UNL     1      39.520 -10.570  12.975  1.00  0.00     0.210 C 
ENDBRANCH  20  23
BRANCH  21  25
HETATM   25  C   UNL     1      42.897  -9.276  12.433  1.00  0.00     0.217 C 
BRANCH  25  26
HETATM   26  O   UNL     1      43.393  -7.954  12.677  1.00  0.00    -0.347 OA
BRANCH  26  27
HETATM   27  C   UNL     1      42.694  -7.220  13.597  1.00  0.00     0.069 A 
HETATM   28  C   UNL     1      42.310  -5.945  13.181  1.00  0.00     0.039 A 
HETATM   29  C   UNL     1      41.585  -5.105  14.035  1.00  0.00     0.032 A 
HETATM   30  C   UNL     1      41.246  -5.523  15.327  1.00  0.00     0.034 A 
HETATM   31  C   UNL     1      41.647  -6.792  15.744  1.00  0.00     0.032 A 
HETATM   32  C   UNL     1      42.367  -7.636  14.887  1.00  0.00     0.039 A 
BRANCH  30  33
HETATM   33  N   UNL     1      40.512  -4.626  16.129  1.00  0.00    -0.328 N 
HETATM   34  C   UNL     1      40.900  -4.068  17.336  1.00  0.00     0.218 C 
HETATM   35  C   UNL     1      39.836  -3.165  17.910  1.00  0.00     0.117 C 
HETATM   36  O   UNL     1      41.957  -4.252  17.927  1.00  0.00    -0.274 OA
HETATM   37  H   UNL     1      39.596  -4.366  15.786  1.00  0.00     0.169 HD
ENDBRANCH  30  33
ENDBRANCH  26  27
ENDBRANCH  25  26
ENDBRANCH  21  25
ENDBRANCH   1  17
BRANCH  15  38
HETATM   38  O   UNL     1      42.241 -16.109   4.103  1.00  0.00    -0.347 OA
BRANCH  38  39
HETATM   39  C   UNL     1      43.243 -16.533   3.174  1.00  0.00     0.214 C 
BRANCH  39  40
HETATM   40  C   UNL     1      43.411 -18.031   3.263  1.00  0.00    -0.034 A 
HETATM   41  C   UNL     1      43.073 -18.852   2.175  1.00  0.00     0.009 A 
HETATM   42  C   UNL     1      43.278 -20.231   2.235  1.00  0.00     0.001 A 
HETATM   43  C   UNL     1      43.832 -20.804   3.378  1.00  0.00     0.000 A 
HETATM   44  C   UNL     1      44.181 -20.000   4.460  1.00  0.00     0.001 A 
HETATM   45  C   UNL     1      43.976 -18.619   4.404  1.00  0.00     0.009 A 
ENDBRANCH  39  40
ENDBRANCH  38  39
ENDBRANCH  15  38
TORSDOF 9
ENDMDL
MODEL 8
REMARK VINA RESULT:      -9.4      3.986      9.599
REMARK  9 active torsions:
REMARK  status: ('A' for Active; 'I' for Inactive)
REMARK       I    between atoms: C_2  and  N_3 
REMARK    1  A    between atoms: N_3  and  C_4 
REMARK    2  A    between atoms: C_7  and  O_8 
REMARK    3  A    between atoms: O_8  and  C_9 
REMARK    4  A    between atoms: C_9  and  C_10 
REMARK    5  A    between atoms: C_11  and  O_12 
REMARK    6  A    between atoms: C_16  and  C_17 
REMARK    7  A    between atoms: C_31  and  O_32 
REMARK    8  A    between atoms: O_32  and  C_33 
REMARK    9  A    between atoms: C_33  and  C_34 
ROOT
HETATM    1  C   UNL     1      41.897 -14.768   1.538  1.00  0.00     0.269 C 
HETATM    2  N   UNL     1      41.315 -16.087   1.991  1.00  0.00    -0.061 N 
HETATM    3  H   UNL     1      42.096 -16.736   2.122  1.00  0.00     0.278 HD
HETATM    4  H   UNL     1      40.728 -16.458   1.236  1.00  0.00     0.278 HD
HETATM    5  C   UNL     1      40.518 -16.024   3.274  1.00  0.00     0.238 C 
HETATM    6  C   UNL     1      41.395 -15.564   4.452  1.00  0.00     0.069 C 
HETATM    7  C   UNL     1      42.247 -14.408   4.052  1.00  0.00    -0.019 A 
HETATM    8  C   UNL     1      42.470 -14.080   2.727  1.00  0.00     0.052 A 
HETATM    9  N   UNL     1      43.302 -12.991   2.693  1.00  0.00    -0.356 N 
HETATM   10  H   UNL     1      43.632 -12.504   1.867  1.00  0.00     0.166 HD
HETATM   11  C   UNL     1      43.613 -12.606   3.979  1.00  0.00     0.043 A 
HETATM   12  C   UNL     1      42.949 -13.470   4.854  1.00  0.00     0.002 A 
HETATM   13  C   UNL     1      44.425 -11.562   4.427  1.00  0.00     0.033 A 
HETATM   14  C   UNL     1      44.536 -11.379   5.809  1.00  0.00     0.039 A 
HETATM   15  C   UNL     1      43.855 -12.198   6.709  1.00  0.00     0.070 A 
HETATM   16  C   UNL     1      43.083 -13.268   6.244  1.00  0.00     0.051 A 
ENDROOT
BRANCH   1  17
HETATM   17  C   UNL     1      40.875 -13.968   0.751  1.00  0.00    -0.021 A 
HETATM   18  C   UNL     1      40.265 -14.548  -0.373  1.00  0.00     0.012 A 
HETATM   19  C   UNL     1      39.260 -13.872  -1.075  1.00  0.00     0.038 A 
HETATM   20  C   UNL     1      38.839 -12.603  -0.672  1.00  0.00     0.076 A 
HETATM   21  C   UNL     1      39.450 -11.991   0.436  1.00  0.00    -0.000 A 
HETATM   22  C   UNL     1      40.451 -12.688   1.143  1.00  0.00     0.021 A 
BRANCH  20  23
HETATM   23  O   UNL     1      37.834 -11.894  -1.270  1.00  0.00    -0.355 OA
HETATM   24  C   UNL     1      37.236 -12.440  -2.440  1.00  0.00     0.210 C 
ENDBRANCH  20  23
BRANCH  21  25
HETATM   25  C   UNL     1      38.993 -10.626   0.924  1.00  0.00     0.217 C 
BRANCH  25  26
HETATM   26  O   UNL     1      38.070 -10.786   2.008  1.00  0.00    -0.347 OA
BRANCH  26  27
HETATM   27  C   UNL     1      38.581 -10.559   3.258  1.00  0.00     0.069 A 
HETATM   28  C   UNL     1      38.203  -9.353   3.850  1.00  0.00     0.039 A 
HETATM   29  C   UNL     1      38.660  -9.014   5.129  1.00  0.00     0.032 A 
HETATM   30  C   UNL     1      39.515  -9.871   5.831  1.00  0.00     0.034 A 
HETATM   31  C   UNL     1      39.903 -11.068   5.228  1.00  0.00     0.032 A 
HETATM   32  C   UNL     1      39.440 -11.410   3.950  1.00  0.00     0.039 A 
BRANCH  30  33
HETATM   33  N   UNL     1      39.931  -9.466   7.116  1.00  0.00    -0.328 N 
HETATM   34  C   UNL     1      39.450  -9.911   8.335  1.00  0.00     0.218 C 
HETATM   35  C   UNL     1      40.132  -9.230   9.496  1.00  0.00     0.117 C 
HETATM   36  O   UNL     1      38.571 -10.744   8.521  1.00  0.00    -0.274 OA
HETATM   37  H   UNL     1      40.662  -8.765   7.148  1.00  0.00     0.169 HD
ENDBRANCH  30  33
ENDBRANCH  26  27
ENDBRANCH  25  26
ENDBRANCH  21  25
ENDBRANCH   1  17
BRANCH  15  38
HETATM   38  O   UNL     1      44.029 -11.874   8.027  1.00  0.00    -0.347 OA
BRANCH  38  39
HETATM   39  C   UNL     1      44.893 -10.766   8.293  1.00  0.00     0.214 C 
BRANCH  39  40
HETATM   40  C   UNL     1      44.285  -9.899   9.370  1.00  0.00    -0.034 A 
HETATM   41  C   UNL     1      44.069 -10.410  10.659  1.00  0.00     0.009 A 
HETATM   42  C   UNL     1      43.558  -9.595  11.671  1.00  0.00     0.001 A 
HETATM   43  C   UNL     1      43.266  -8.259  11.407  1.00  0.00     0.000 A 
HETATM   44  C   UNL     1      43.486  -7.736  10.135  1.00  0.00     0.001 A 
HETATM   45  C   UNL     1      43.996  -8.550   9.121  1.00  0.00     0.009 A 
ENDBRANCH  39  40
ENDBRANCH  38  39
ENDBRANCH  15  38
TORSDOF 9
ENDMDL
MODEL 9
REMARK VINA RESULT:      -9.4      8.460     11.292
REMARK  9 active torsions:
REMARK  status: ('A' for Active; 'I' for Inactive)
REMARK       I    between atoms: C_2  and  N_3 
REMARK    1  A    between atoms: N_3  and  C_4 
REMARK    2  A    between atoms: C_7  and  O_8 
REMARK    3  A    between atoms: O_8  and  C_9 
REMARK    4  A    between atoms: C_9  and  C_10 
REMARK    5  A    between atoms: C_11  and  O_12 
REMARK    6  A    between atoms: C_16  and  C_17 
REMARK    7  A    between atoms: C_31  and  O_32 
REMARK    8  A    between atoms: O_32  and  C_33 
REMARK    9  A    between atoms: C_33  and  C_34 
ROOT
HETATM    1  C   UNL     1      38.432 -11.211   2.300  1.00  0.00     0.269 C 
HETATM    2  N   UNL     1      39.153  -9.952   2.724  1.00  0.00    -0.061 N 
HETATM    3  H   UNL     1      39.100  -9.900   3.745  1.00  0.00     0.278 HD
HETATM    4  H   UNL     1      38.645  -9.146   2.346  1.00  0.00     0.278 HD
HETATM    5  C   UNL     1      40.605  -9.881   2.311  1.00  0.00     0.238 C 
HETATM    6  C   UNL     1      41.420 -11.025   2.942  1.00  0.00     0.069 C 
HETATM    7  C   UNL     1      40.683 -12.316   2.836  1.00  0.00    -0.019 A 
HETATM    8  C   UNL     1      39.329 -12.371   2.560  1.00  0.00     0.052 A 
HETATM    9  N   UNL     1      38.951 -13.689   2.548  1.00  0.00    -0.356 N 
HETATM   10  H   UNL     1      38.025 -14.053   2.354  1.00  0.00     0.166 HD
HETATM   11  C   UNL     1      40.045 -14.486   2.804  1.00  0.00     0.043 A 
HETATM   12  C   UNL     1      41.152 -13.649   2.972  1.00  0.00     0.002 A 
HETATM   13  C   UNL     1      40.135 -15.877   2.895  1.00  0.00     0.033 A 
HETATM   14  C   UNL     1      41.397 -16.427   3.135  1.00  0.00     0.039 A 
HETATM   15  C   UNL     1      42.529 -15.623   3.268  1.00  0.00     0.070 A 
HETATM   16  C   UNL     1      42.413 -14.229   3.220  1.00  0.00     0.051 A 
ENDROOT
BRANCH   1  17
HETATM   17  C   UNL     1      37.921 -11.088   0.875  1.00  0.00    -0.021 A 
HETATM   18  C   UNL     1      36.799 -10.286   0.614  1.00  0.00     0.012 A 
HETATM   19  C   UNL     1      36.349 -10.083  -0.696  1.00  0.00     0.038 A 
HETATM   20  C   UNL     1      37.008 -10.675  -1.775  1.00  0.00     0.076 A 
HETATM   21  C   UNL     1      38.121 -11.501  -1.539  1.00  0.00    -0.000 A 
HETATM   22  C   UNL     1      38.573 -11.686  -0.217  1.00  0.00     0.021 A 
BRANCH  20  23
HETATM   23  O   UNL     1      36.665 -10.493  -3.087  1.00  0.00    -0.355 OA
HETATM   24  C   UNL     1      35.283 -10.391  -3.408  1.00  0.00     0.210 C 
ENDBRANCH  20  23
BRANCH  21  25
HETATM   25  C   UNL     1      38.884 -12.132  -2.692  1.00  0.00     0.217 C 
BRANCH  25  26
HETATM   26  O   UNL     1      40.293 -12.023  -2.455  1.00  0.00    -0.347 OA
BRANCH  26  27
HETATM   27  C   UNL     1      40.811 -10.759  -2.546  1.00  0.00     0.069 A 
HETATM   28  C   UNL     1      41.555 -10.335  -1.445  1.00  0.00     0.039 A 
HETATM   29  C   UNL     1      42.138  -9.062  -1.427  1.00  0.00     0.032 A 
HETATM   30  C   UNL     1      41.973  -8.187  -2.506  1.00  0.00     0.034 A 
HETATM   31  C   UNL     1      41.214  -8.610  -3.598  1.00  0.00     0.032 A 
HETATM   32  C   UNL     1      40.636  -9.886  -3.618  1.00  0.00     0.039 A 
BRANCH  30  33
HETATM   33  N   UNL     1      42.592  -6.923  -2.420  1.00  0.00    -0.328 N 
HETATM   34  C   UNL     1      42.036  -5.745  -1.950  1.00  0.00     0.218 C 
HETATM   35  C   UNL     1      43.003  -4.591  -2.031  1.00  0.00     0.117 C 
HETATM   36  O   UNL     1      40.900  -5.587  -1.521  1.00  0.00    -0.274 OA
HETATM   37  H   UNL     1      43.550  -6.872  -2.744  1.00  0.00     0.169 HD
ENDBRANCH  30  33
ENDBRANCH  26  27
ENDBRANCH  25  26
ENDBRANCH  21  25
ENDBRANCH   1  17
BRANCH  15  38
HETATM   38  O   UNL     1      43.700 -16.303   3.461  1.00  0.00    -0.347 OA
BRANCH  38  39
HETATM   39  C   UNL     1      43.801 -17.047   4.679  1.00  0.00     0.214 C 
BRANCH  39  40
HETATM   40  C   UNL     1      43.886 -18.521   4.365  1.00  0.00    -0.034 A 
HETATM   41  C   UNL     1      43.968 -19.466   5.399  1.00  0.00     0.009 A 
HETATM   42  C   UNL     1      43.992 -20.832   5.113  1.00  0.00     0.001 A 
HETATM   43  C   UNL     1      43.924 -21.268   3.792  1.00  0.00     0.000 A 
HETATM   44  C   UNL     1      43.831 -20.341   2.757  1.00  0.00     0.001 A 
HETATM   45  C   UNL     1      43.809 -18.973   3.040  1.00  0.00     0.009 A 
ENDBRANCH  39  40
ENDBRANCH  38  39
ENDBRANCH  15  38
TORSDOF 9
ENDMDL
MODEL 10
REMARK VINA RESULT:      -9.2      4.688     10.507
REMARK  9 active torsions:
REMARK  status: ('A' for Active; 'I' for Inactive)
REMARK       I    between atoms: C_2  and  N_3 
REMARK    1  A    between atoms: N_3  and  C_4 
REMARK    2  A    between atoms: C_7  and  O_8 
REMARK    3  A    between atoms: O_8  and  C_9 
REMARK    4  A    between atoms: C_9  and  C_10 
REMARK    5  A    between atoms: C_11  and  O_12 
REMARK    6  A    between atoms: C_16  and  C_17 
REMARK    7  A    between atoms: C_31  and  O_32 
REMARK    8  A    between atoms: O_32  and  C_33 
REMARK    9  A    between atoms: C_33  and  C_34 
ROOT
HETATM    1  C   UNL     1      38.899 -10.726   4.022  1.00  0.00     0.269 C 
HETATM    2  N   UNL     1      38.714  -9.228   4.091  1.00  0.00    -0.061 N 
HETATM    3  H   UNL     1      38.349  -9.008   5.023  1.00  0.00     0.278 HD
HETATM    4  H   UNL     1      37.997  -8.959   3.408  1.00  0.00     0.278 HD
HETATM    5  C   UNL     1      39.969  -8.419   3.860  1.00  0.00     0.238 C 
HETATM    6  C   UNL     1      41.034  -8.727   4.928  1.00  0.00     0.069 C 
HETATM    7  C   UNL     1      41.132 -10.195   5.165  1.00  0.00    -0.019 A 
HETATM    8  C   UNL     1      40.145 -11.075   4.759  1.00  0.00     0.052 A 
HETATM    9  N   UNL     1      40.520 -12.338   5.138  1.00  0.00    -0.356 N 
HETATM   10  H   UNL     1      40.014 -13.199   4.964  1.00  0.00     0.166 HD
HETATM   11  C   UNL     1      41.740 -12.286   5.776  1.00  0.00     0.043 A 
HETATM   12  C   UNL     1      42.156 -10.952   5.792  1.00  0.00     0.002 A 
HETATM   13  C   UNL     1      42.501 -13.317   6.332  1.00  0.00     0.033 A 
HETATM   14  C   UNL     1      43.735 -12.976   6.894  1.00  0.00     0.039 A 
HETATM   15  C   UNL     1      44.198 -11.661   6.891  1.00  0.00     0.070 A 
HETATM   16  C   UNL     1      43.402 -10.634   6.371  1.00  0.00     0.051 A 
ENDROOT
BRANCH   1  17
HETATM   17  C   UNL     1      38.833 -11.214   2.586  1.00  0.00    -0.021 A 
HETATM   18  C   UNL     1      37.717 -10.888   1.800  1.00  0.00     0.012 A 
HETATM   19  C   UNL     1      37.658 -11.250   0.449  1.00  0.00     0.038 A 
HETATM   20  C   UNL     1      38.711 -11.944  -0.149  1.00  0.00     0.076 A 
HETATM   21  C   UNL     1      39.830 -12.303   0.622  1.00  0.00    -0.000 A 
HETATM   22  C   UNL     1      39.884 -11.920   1.977  1.00  0.00     0.021 A 
BRANCH  20  23
HETATM   23  O   UNL     1      38.756 -12.296  -1.471  1.00  0.00    -0.355 OA
HETATM   24  C   UNL     1      38.723 -11.255  -2.440  1.00  0.00     0.210 C 
ENDBRANCH  20  23
BRANCH  21  25
HETATM   25  C   UNL     1      41.010 -13.028  -0.004  1.00  0.00     0.217 C 
BRANCH  25  26
HETATM   26  O   UNL     1      40.802 -14.444   0.074  1.00  0.00    -0.347 OA
BRANCH  26  27
HETATM   27  C   UNL     1      41.252 -15.045   1.219  1.00  0.00     0.069 A 
HETATM   28  C   UNL     1      42.559 -14.727   1.589  1.00  0.00     0.039 A 
HETATM   29  C   UNL     1      43.126 -15.277   2.745  1.00  0.00     0.032 A 
HETATM   30  C   UNL     1      42.398 -16.167   3.542  1.00  0.00     0.034 A 
HETATM   31  C   UNL     1      41.097 -16.496   3.158  1.00  0.00     0.032 A 
HETATM   32  C   UNL     1      40.528 -15.939   2.004  1.00  0.00     0.039 A 
BRANCH  30  33
HETATM   33  N   UNL     1      43.031 -16.679   4.692  1.00  0.00    -0.328 N 
HETATM   34  C   UNL     1      42.495 -16.800   5.963  1.00  0.00     0.218 C 
HETATM   35  C   UNL     1      43.487 -17.377   6.943  1.00  0.00     0.117 C 
HETATM   36  O   UNL     1      41.366 -16.485   6.320  1.00  0.00    -0.274 OA
HETATM   37  H   UNL     1      43.989 -16.986   4.576  1.00  0.00     0.169 HD
ENDBRANCH  30  33
ENDBRANCH  26  27
ENDBRANCH  25  26
ENDBRANCH  21  25
ENDBRANCH   1  17
BRANCH  15  38
HETATM   38  O   UNL     1      45.439 -11.485   7.441  1.00  0.00    -0.347 OA
BRANCH  38  39
HETATM   39  C   UNL     1      45.870 -10.130   7.599  1.00  0.00     0.214 C 
BRANCH  39  40
HETATM   40  C   UNL     1      45.137  -9.500   8.758  1.00  0.00    -0.034 A 
HETATM   41  C   UNL     1      44.463  -8.279   8.597  1.00  0.00     0.009 A 
HETATM   42  C   UNL     1      43.739  -7.722   9.652  1.00  0.00     0.001 A 
HETATM   43  C   UNL     1      43.674  -8.382  10.877  1.00  0.00     0.000 A 
HETATM   44  C   UNL     1      44.330  -9.599  11.047  1.00  0.00     0.001 A 
HETATM   45  C   UNL     1      45.056 -10.158   9.993  1.00  0.00     0.009 A 
ENDBRANCH  39  40
ENDBRANCH  38  39
ENDBRANCH  15  38
TORSDOF 9
ENDMDL
