MODEL 1
REMARK VINA RESULT:      -7.8      0.000      0.000
REMARK  4 active torsions:
REMARK  status: ('A' for Active; 'I' for Inactive)
REMARK    1  A    between atoms: C_4  and  C_5 
REMARK    2  A    between atoms: C_7  and  C_8 
REMARK       I    between atoms: C_8  and  N_9 
REMARK    3  A    between atoms: N_9  and  C_10 
REMARK    4  A    between atoms: C_13  and  N_14 
ROOT
HETATM    1  C   UNL     1      40.501 -14.583   0.127  1.00  0.00     0.252 C 
HETATM    2  N   UNL     1      40.737 -13.561  -0.768  1.00  0.00    -0.352 N 
HETATM    3  O   UNL     1      39.621 -15.420  -0.030  1.00  0.00    -0.268 OA
HETATM    4  H   UNL     1      41.582 -13.019  -0.632  1.00  0.00     0.163 HD
ENDROOT
BRANCH   1   5
HETATM    5  C   UNL     1      41.399 -14.674   1.317  1.00  0.00     0.032 A 
HETATM    6  C   UNL     1      41.972 -15.879   1.752  1.00  0.00     0.031 A 
HETATM    7  C   UNL     1      42.811 -15.911   2.878  1.00  0.00    -0.001 A 
HETATM    8  C   UNL     1      43.086 -14.712   3.550  1.00  0.00     0.014 A 
HETATM    9  C   UNL     1      42.533 -13.507   3.117  1.00  0.00     0.002 A 
HETATM   10  C   UNL     1      41.693 -13.489   2.004  1.00  0.00     0.017 A 
BRANCH   7  11
HETATM   11  C   UNL     1      43.391 -17.166   3.346  1.00  0.00     0.086 A 
HETATM   12  O   UNL     1      43.292 -18.232   2.495  1.00  0.00    -0.315 OA
HETATM   13  C   UNL     1      43.842 -19.308   3.124  1.00  0.00     0.050 A 
HETATM   14  C   UNL     1      43.819 -20.590   2.393  1.00  0.00     0.076 C 
HETATM   15  C   UNL     1      44.317 -18.940   4.363  1.00  0.00     0.035 A 
HETATM   16  C   UNL     1      44.022 -17.563   4.509  1.00  0.00     0.040 A 
ENDBRANCH   7  11
ENDBRANCH   1   5
BRANCH   2  17
HETATM   17  C   UNL     1      40.013 -13.291  -2.005  1.00  0.00     0.084 C 
HETATM   18  C   UNL     1      38.576 -12.802  -1.787  1.00  0.00     0.027 C 
HETATM   19  C   UNL     1      38.448 -11.304  -1.522  1.00  0.00     0.035 C 
HETATM   20  C   UNL     1      39.243 -10.428  -2.491  1.00  0.00     0.183 C 
HETATM   21  C   UNL     1      40.655 -10.915  -2.815  1.00  0.00     0.035 C 
HETATM   22  C   UNL     1      40.774 -12.426  -3.019  1.00  0.00     0.027 C 
BRANCH  20  23
HETATM   23  N   UNL     1      38.477 -10.344  -3.775  1.00  0.00    -0.075 N 
HETATM   24  H   UNL     1      38.755  -9.540  -4.351  1.00  0.00     0.274 HD
HETATM   25  H   UNL     1      38.609 -11.195  -4.338  1.00  0.00     0.274 HD
HETATM   26  H   UNL     1      37.467 -10.263  -3.593  1.00  0.00     0.274 HD
ENDBRANCH  20  23
ENDBRANCH   2  17
TORSDOF 4
ENDMDL
MODEL 2
REMARK VINA RESULT:      -7.8      4.452      5.581
REMARK  4 active torsions:
REMARK  status: ('A' for Active; 'I' for Inactive)
REMARK    1  A    between atoms: C_4  and  C_5 
REMARK    2  A    between atoms: C_7  and  C_8 
REMARK       I    between atoms: C_8  and  N_9 
REMARK    3  A    between atoms: N_9  and  C_10 
REMARK    4  A    between atoms: C_13  and  N_14 
ROOT
HETATM    1  C   UNL     1      42.607 -13.852   5.118  1.00  0.00     0.252 C 
HETATM    2  N   UNL     1      41.633 -12.885   4.981  1.00  0.00    -0.352 N 
HETATM    3  O   UNL     1      43.229 -14.033   6.157  1.00  0.00    -0.268 OA
HETATM    4  H   UNL     1      41.069 -12.918   4.139  1.00  0.00     0.163 HD
ENDROOT
BRANCH   1   5
HETATM    5  C   UNL     1      42.872 -14.730   3.939  1.00  0.00     0.032 A 
HETATM    6  C   UNL     1      43.015 -16.122   4.041  1.00  0.00     0.031 A 
HETATM    7  C   UNL     1      43.262 -16.906   2.901  1.00  0.00    -0.001 A 
HETATM    8  C   UNL     1      43.343 -16.273   1.652  1.00  0.00     0.014 A 
HETATM    9  C   UNL     1      43.188 -14.892   1.539  1.00  0.00     0.002 A 
HETATM   10  C   UNL     1      42.952 -14.123   2.679  1.00  0.00     0.017 A 
BRANCH   7  11
HETATM   11  C   UNL     1      43.434 -18.350   3.006  1.00  0.00     0.086 A 
HETATM   12  O   UNL     1      43.800 -18.828   4.235  1.00  0.00    -0.315 OA
HETATM   13  C   UNL     1      43.954 -20.177   4.118  1.00  0.00     0.050 A 
HETATM   14  C   UNL     1      44.380 -20.905   5.329  1.00  0.00     0.076 C 
HETATM   15  C   UNL     1      43.666 -20.577   2.832  1.00  0.00     0.035 A 
HETATM   16  C   UNL     1      43.336 -19.401   2.115  1.00  0.00     0.040 A 
ENDBRANCH   7  11
ENDBRANCH   1   5
BRANCH   2  17
HETATM   17  C   UNL     1      41.187 -11.936   5.996  1.00  0.00     0.084 C 
HETATM   18  C   UNL     1      41.953 -10.608   5.979  1.00  0.00     0.027 C 
HETATM   19  C   UNL     1      41.437  -9.589   4.967  1.00  0.00     0.035 C 
HETATM   20  C   UNL     1      39.918  -9.410   4.979  1.00  0.00     0.183 C 
HETATM   21  C   UNL     1      39.102 -10.697   5.083  1.00  0.00     0.035 C 
HETATM   22  C   UNL     1      39.668 -11.731   6.058  1.00  0.00     0.027 C 
BRANCH  20  23
HETATM   23  N   UNL     1      39.563  -8.542   6.148  1.00  0.00    -0.075 N 
HETATM   24  H   UNL     1      38.742  -8.884   6.661  1.00  0.00     0.274 HD
HETATM   25  H   UNL     1      40.346  -8.483   6.812  1.00  0.00     0.274 HD
HETATM   26  H   UNL     1      39.362  -7.581   5.841  1.00  0.00     0.274 HD
ENDBRANCH  20  23
ENDBRANCH   2  17
TORSDOF 4
ENDMDL
MODEL 3
REMARK VINA RESULT:      -7.7      7.441     10.160
REMARK  4 active torsions:
REMARK  status: ('A' for Active; 'I' for Inactive)
REMARK    1  A    between atoms: C_4  and  C_5 
REMARK    2  A    between atoms: C_7  and  C_8 
REMARK       I    between atoms: C_8  and  N_9 
REMARK    3  A    between atoms: N_9  and  C_10 
REMARK    4  A    between atoms: C_13  and  N_14 
ROOT
HETATM    1  C   UNL     1      44.329 -11.804   6.217  1.00  0.00     0.252 C 
HETATM    2  N   UNL     1      43.634 -12.951   6.535  1.00  0.00    -0.352 N 
HETATM    3  O   UNL     1      44.542 -11.448   5.065  1.00  0.00    -0.268 OA
HETATM    4  H   UNL     1      43.374 -13.075   7.507  1.00  0.00     0.163 HD
ENDROOT
BRANCH   1   5
HETATM    5  C   UNL     1      44.804 -10.953   7.350  1.00  0.00     0.032 A 
HETATM    6  C   UNL     1      44.107 -10.836   8.561  1.00  0.00     0.031 A 
HETATM    7  C   UNL     1      44.596 -10.023   9.598  1.00  0.00    -0.001 A 
HETATM    8  C   UNL     1      45.809  -9.345   9.408  1.00  0.00     0.014 A 
HETATM    9  C   UNL     1      46.517  -9.467   8.212  1.00  0.00     0.002 A 
HETATM   10  C   UNL     1      46.016 -10.269   7.187  1.00  0.00     0.017 A 
BRANCH   7  11
HETATM   11  C   UNL     1      43.863  -9.881  10.850  1.00  0.00     0.086 A 
HETATM   12  O   UNL     1      43.856  -8.632  11.409  1.00  0.00    -0.315 OA
HETATM   13  C   UNL     1      43.168  -8.715  12.582  1.00  0.00     0.050 A 
HETATM   14  C   UNL     1      43.058  -7.476  13.378  1.00  0.00     0.076 C 
HETATM   15  C   UNL     1      42.711  -9.999  12.774  1.00  0.00     0.035 A 
HETATM   16  C   UNL     1      43.162 -10.752  11.662  1.00  0.00     0.040 A 
ENDBRANCH   7  11
ENDBRANCH   1   5
BRANCH   2  17
HETATM   17  C   UNL     1      43.055 -13.915   5.606  1.00  0.00     0.084 C 
HETATM   18  C   UNL     1      43.119 -15.365   6.099  1.00  0.00     0.027 C 
HETATM   19  C   UNL     1      41.985 -15.767   7.040  1.00  0.00     0.035 C 
HETATM   20  C   UNL     1      40.595 -15.356   6.554  1.00  0.00     0.183 C 
HETATM   21  C   UNL     1      40.489 -13.948   5.969  1.00  0.00     0.035 C 
HETATM   22  C   UNL     1      41.663 -13.541   5.077  1.00  0.00     0.027 C 
BRANCH  20  23
HETATM   23  N   UNL     1      40.166 -16.328   5.498  1.00  0.00    -0.075 N 
HETATM   24  H   UNL     1      40.237 -15.941   4.549  1.00  0.00     0.274 HD
HETATM   25  H   UNL     1      40.739 -17.183   5.532  1.00  0.00     0.274 HD
HETATM   26  H   UNL     1      39.191 -16.620   5.645  1.00  0.00     0.274 HD
ENDBRANCH  20  23
ENDBRANCH   2  17
TORSDOF 4
ENDMDL
MODEL 4
REMARK VINA RESULT:      -7.7      1.566      2.053
REMARK  4 active torsions:
REMARK  status: ('A' for Active; 'I' for Inactive)
REMARK    1  A    between atoms: C_4  and  C_5 
REMARK    2  A    between atoms: C_7  and  C_8 
REMARK       I    between atoms: C_8  and  N_9 
REMARK    3  A    between atoms: N_9  and  C_10 
REMARK    4  A    between atoms: C_13  and  N_14 
ROOT
HETATM    1  C   UNL     1      41.373 -13.255   1.440  1.00  0.00     0.252 C 
HETATM    2  N   UNL     1      40.766 -13.734   0.298  1.00  0.00    -0.352 N 
HETATM    3  O   UNL     1      41.790 -12.108   1.545  1.00  0.00    -0.268 OA
HETATM    4  H   UNL     1      40.315 -14.640   0.364  1.00  0.00     0.163 HD
ENDROOT
BRANCH   1   5
HETATM    5  C   UNL     1      41.483 -14.188   2.602  1.00  0.00     0.032 A 
HETATM    6  C   UNL     1      42.256 -15.358   2.570  1.00  0.00     0.031 A 
HETATM    7  C   UNL     1      42.328 -16.203   3.691  1.00  0.00    -0.001 A 
HETATM    8  C   UNL     1      41.629 -15.845   4.852  1.00  0.00     0.014 A 
HETATM    9  C   UNL     1      40.870 -14.676   4.897  1.00  0.00     0.002 A 
HETATM   10  C   UNL     1      40.797 -13.851   3.776  1.00  0.00     0.017 A 
BRANCH   7  11
HETATM   11  C   UNL     1      43.113 -17.432   3.654  1.00  0.00     0.086 A 
HETATM   12  O   UNL     1      42.903 -18.252   2.580  1.00  0.00    -0.315 OA
HETATM   13  C   UNL     1      43.684 -19.356   2.751  1.00  0.00     0.050 A 
HETATM   14  C   UNL     1      43.596 -20.401   1.713  1.00  0.00     0.076 C 
HETATM   15  C   UNL     1      44.415 -19.243   3.913  1.00  0.00     0.035 A 
HETATM   16  C   UNL     1      44.044 -18.008   4.497  1.00  0.00     0.040 A 
ENDBRANCH   7  11
ENDBRANCH   1   5
BRANCH   2  17
HETATM   17  C   UNL     1      40.524 -13.005  -0.942  1.00  0.00     0.084 C 
HETATM   18  C   UNL     1      40.132 -13.902  -2.121  1.00  0.00     0.027 C 
HETATM   19  C   UNL     1      38.650 -14.263  -2.181  1.00  0.00     0.035 C 
HETATM   20  C   UNL     1      37.710 -13.073  -1.991  1.00  0.00     0.183 C 
HETATM   21  C   UNL     1      38.098 -12.094  -0.884  1.00  0.00     0.035 C 
HETATM   22  C   UNL     1      39.595 -11.791  -0.802  1.00  0.00     0.027 C 
BRANCH  20  23
HETATM   23  N   UNL     1      37.656 -12.314  -3.282  1.00  0.00    -0.075 N 
HETATM   24  H   UNL     1      38.070 -12.832  -4.065  1.00  0.00     0.274 HD
HETATM   25  H   UNL     1      36.684 -12.087  -3.534  1.00  0.00     0.274 HD
HETATM   26  H   UNL     1      38.156 -11.419  -3.199  1.00  0.00     0.274 HD
ENDBRANCH  20  23
ENDBRANCH   2  17
TORSDOF 4
ENDMDL
MODEL 5
REMARK VINA RESULT:      -7.7      5.581      8.750
REMARK  4 active torsions:
REMARK  status: ('A' for Active; 'I' for Inactive)
REMARK    1  A    between atoms: C_4  and  C_5 
REMARK    2  A    between atoms: C_7  and  C_8 
REMARK       I    between atoms: C_8  and  N_9 
REMARK    3  A    between atoms: N_9  and  C_10 
REMARK    4  A    between atoms: C_13  and  N_14 
ROOT
HETATM    1  C   UNL     1      42.516 -14.657   5.853  1.00  0.00     0.252 C 
HETATM    2  N   UNL     1      42.991 -15.561   4.926  1.00  0.00    -0.352 N 
HETATM    3  O   UNL     1      41.582 -14.899   6.607  1.00  0.00    -0.268 OA
HETATM    4  H   UNL     1      43.862 -15.328   4.463  1.00  0.00     0.163 HD
ENDROOT
BRANCH   1   5
HETATM    5  C   UNL     1      43.215 -13.340   5.946  1.00  0.00     0.032 A 
HETATM    6  C   UNL     1      43.580 -12.755   7.168  1.00  0.00     0.031 A 
HETATM    7  C   UNL     1      44.238 -11.513   7.203  1.00  0.00    -0.001 A 
HETATM    8  C   UNL     1      44.543 -10.877   5.992  1.00  0.00     0.014 A 
HETATM    9  C   UNL     1      44.196 -11.457   4.772  1.00  0.00     0.002 A 
HETATM   10  C   UNL     1      43.535 -12.685   4.750  1.00  0.00     0.017 A 
BRANCH   7  11
HETATM   11  C   UNL     1      44.599 -10.891   8.472  1.00  0.00     0.086 A 
HETATM   12  O   UNL     1      43.757 -11.129   9.524  1.00  0.00    -0.315 OA
HETATM   13  C   UNL     1      44.234 -10.432  10.593  1.00  0.00     0.050 A 
HETATM   14  C   UNL     1      43.457 -10.520  11.845  1.00  0.00     0.076 C 
HETATM   15  C   UNL     1      45.390  -9.767  10.248  1.00  0.00     0.035 A 
HETATM   16  C   UNL     1      45.622 -10.058   8.882  1.00  0.00     0.040 A 
ENDBRANCH   7  11
ENDBRANCH   1   5
BRANCH   2  17
HETATM   17  C   UNL     1      42.490 -16.908   4.675  1.00  0.00     0.084 C 
HETATM   18  C   UNL     1      42.146 -17.175   3.205  1.00  0.00     0.027 C 
HETATM   19  C   UNL     1      43.334 -17.582   2.337  1.00  0.00     0.035 C 
HETATM   20  C   UNL     1      44.218 -18.665   2.957  1.00  0.00     0.183 C 
HETATM   21  C   UNL     1      44.524 -18.497   4.445  1.00  0.00     0.035 C 
HETATM   22  C   UNL     1      43.336 -18.032   5.288  1.00  0.00     0.027 C 
BRANCH  20  23
HETATM   23  N   UNL     1      43.534 -19.984   2.771  1.00  0.00    -0.075 N 
HETATM   24  H   UNL     1      42.628 -19.898   2.296  1.00  0.00     0.274 HD
HETATM   25  H   UNL     1      44.118 -20.626   2.219  1.00  0.00     0.274 HD
HETATM   26  H   UNL     1      43.369 -20.441   3.678  1.00  0.00     0.274 HD
ENDBRANCH  20  23
ENDBRANCH   2  17
TORSDOF 4
ENDMDL
MODEL 6
REMARK VINA RESULT:      -7.6      5.971      8.702
REMARK  4 active torsions:
REMARK  status: ('A' for Active; 'I' for Inactive)
REMARK    1  A    between atoms: C_4  and  C_5 
REMARK    2  A    between atoms: C_7  and  C_8 
REMARK       I    between atoms: C_8  and  N_9 
REMARK    3  A    between atoms: N_9  and  C_10 
REMARK    4  A    between atoms: C_13  and  N_14 
ROOT
HETATM    1  C   UNL     1      44.180 -12.337   6.991  1.00  0.00     0.252 C 
HETATM    2  N   UNL     1      43.585 -11.639   8.020  1.00  0.00    -0.352 N 
HETATM    3  O   UNL     1      45.129 -11.904   6.349  1.00  0.00    -0.268 OA
HETATM    4  H   UNL     1      42.916 -12.143   8.590  1.00  0.00     0.163 HD
ENDROOT
BRANCH   1   5
HETATM    5  C   UNL     1      43.647 -13.699   6.688  1.00  0.00     0.032 A 
HETATM    6  C   UNL     1      43.656 -14.253   5.399  1.00  0.00     0.031 A 
HETATM    7  C   UNL     1      43.143 -15.540   5.165  1.00  0.00    -0.001 A 
HETATM    8  C   UNL     1      42.640 -16.273   6.249  1.00  0.00     0.014 A 
HETATM    9  C   UNL     1      42.641 -15.737   7.537  1.00  0.00     0.002 A 
HETATM   10  C   UNL     1      43.143 -14.454   7.755  1.00  0.00     0.017 A 
BRANCH   7  11
HETATM   11  C   UNL     1      43.131 -16.110   3.822  1.00  0.00     0.086 A 
HETATM   12  O   UNL     1      43.100 -17.476   3.746  1.00  0.00    -0.315 OA
HETATM   13  C   UNL     1      43.140 -17.811   2.425  1.00  0.00     0.050 A 
HETATM   14  C   UNL     1      43.146 -19.252   2.104  1.00  0.00     0.076 C 
HETATM   15  C   UNL     1      43.171 -16.674   1.650  1.00  0.00     0.035 A 
HETATM   16  C   UNL     1      43.170 -15.579   2.548  1.00  0.00     0.040 A 
ENDBRANCH   7  11
ENDBRANCH   1   5
BRANCH   2  17
HETATM   17  C   UNL     1      43.949 -10.314   8.510  1.00  0.00     0.084 C 
HETATM   18  C   UNL     1      42.769  -9.339   8.593  1.00  0.00     0.027 C 
HETATM   19  C   UNL     1      41.937  -9.454   9.868  1.00  0.00     0.035 C 
HETATM   20  C   UNL     1      42.767  -9.507  11.151  1.00  0.00     0.183 C 
HETATM   21  C   UNL     1      44.008 -10.397  11.099  1.00  0.00     0.035 C 
HETATM   22  C   UNL     1      44.795 -10.312   9.790  1.00  0.00     0.027 C 
BRANCH  20  23
HETATM   23  N   UNL     1      43.211  -8.114  11.475  1.00  0.00    -0.075 N 
HETATM   24  H   UNL     1      42.501  -7.581  11.993  1.00  0.00     0.274 HD
HETATM   25  H   UNL     1      44.070  -8.124  12.040  1.00  0.00     0.274 HD
HETATM   26  H   UNL     1      43.428  -7.591  10.616  1.00  0.00     0.274 HD
ENDBRANCH  20  23
ENDBRANCH   2  17
TORSDOF 4
ENDMDL
MODEL 7
REMARK VINA RESULT:      -7.3      4.021      6.389
REMARK  4 active torsions:
REMARK  status: ('A' for Active; 'I' for Inactive)
REMARK    1  A    between atoms: C_4  and  C_5 
REMARK    2  A    between atoms: C_7  and  C_8 
REMARK       I    between atoms: C_8  and  N_9 
REMARK    3  A    between atoms: N_9  and  C_10 
REMARK    4  A    between atoms: C_13  and  N_14 
ROOT
HETATM    1  C   UNL     1      41.996 -12.456   3.639  1.00  0.00     0.252 C 
HETATM    2  N   UNL     1      43.045 -12.338   4.525  1.00  0.00    -0.352 N 
HETATM    3  O   UNL     1      41.403 -11.491   3.171  1.00  0.00    -0.268 OA
HETATM    4  H   UNL     1      43.569 -13.182   4.729  1.00  0.00     0.163 HD
ENDROOT
BRANCH   1   5
HETATM    5  C   UNL     1      41.605 -13.835   3.216  1.00  0.00     0.032 A 
HETATM    6  C   UNL     1      42.425 -14.955   3.417  1.00  0.00     0.031 A 
HETATM    7  C   UNL     1      42.012 -16.233   3.002  1.00  0.00    -0.001 A 
HETATM    8  C   UNL     1      40.752 -16.372   2.402  1.00  0.00     0.014 A 
HETATM    9  C   UNL     1      39.924 -15.266   2.212  1.00  0.00     0.002 A 
HETATM   10  C   UNL     1      40.350 -14.002   2.619  1.00  0.00     0.017 A 
BRANCH   7  11
HETATM   11  C   UNL     1      42.870 -17.397   3.189  1.00  0.00     0.086 A 
HETATM   12  O   UNL     1      42.786 -18.370   2.231  1.00  0.00    -0.315 OA
HETATM   13  C   UNL     1      43.619 -19.382   2.604  1.00  0.00     0.050 A 
HETATM   14  C   UNL     1      43.667 -20.564   1.721  1.00  0.00     0.076 C 
HETATM   15  C   UNL     1      44.258 -19.059   3.780  1.00  0.00     0.035 A 
HETATM   16  C   UNL     1      43.773 -17.784   4.159  1.00  0.00     0.040 A 
ENDBRANCH   7  11
ENDBRANCH   1   5
BRANCH   2  17
HETATM   17  C   UNL     1      43.616 -11.104   5.054  1.00  0.00     0.084 C 
HETATM   18  C   UNL     1      42.661 -10.322   5.963  1.00  0.00     0.027 C 
HETATM   19  C   UNL     1      42.634 -10.794   7.414  1.00  0.00     0.035 C 
HETATM   20  C   UNL     1      44.018 -11.001   8.030  1.00  0.00     0.183 C 
HETATM   21  C   UNL     1      45.041 -11.700   7.135  1.00  0.00     0.035 C 
HETATM   22  C   UNL     1      45.013 -11.256   5.672  1.00  0.00     0.027 C 
BRANCH  20  23
HETATM   23  N   UNL     1      44.568  -9.657   8.397  1.00  0.00    -0.075 N 
HETATM   24  H   UNL     1      44.333  -9.381   9.358  1.00  0.00     0.274 HD
HETATM   25  H   UNL     1      45.593  -9.642   8.308  1.00  0.00     0.274 HD
HETATM   26  H   UNL     1      44.206  -8.929   7.766  1.00  0.00     0.274 HD
ENDBRANCH  20  23
ENDBRANCH   2  17
TORSDOF 4
ENDMDL
MODEL 8
REMARK VINA RESULT:      -7.3      7.064      9.570
REMARK  4 active torsions:
REMARK  status: ('A' for Active; 'I' for Inactive)
REMARK    1  A    between atoms: C_4  and  C_5 
REMARK    2  A    between atoms: C_7  and  C_8 
REMARK       I    between atoms: C_8  and  N_9 
REMARK    3  A    between atoms: N_9  and  C_10 
REMARK    4  A    between atoms: C_13  and  N_14 
ROOT
HETATM    1  C   UNL     1      43.660 -12.598   6.903  1.00  0.00     0.252 C 
HETATM    2  N   UNL     1      42.371 -12.429   6.443  1.00  0.00    -0.352 N 
HETATM    3  O   UNL     1      44.263 -13.661   6.829  1.00  0.00    -0.268 OA
HETATM    4  H   UNL     1      42.019 -11.479   6.405  1.00  0.00     0.163 HD
ENDROOT
BRANCH   1   5
HETATM    5  C   UNL     1      44.343 -11.403   7.484  1.00  0.00     0.032 A 
HETATM    6  C   UNL     1      43.718 -10.529   8.385  1.00  0.00     0.031 A 
HETATM    7  C   UNL     1      44.405  -9.418   8.904  1.00  0.00    -0.001 A 
HETATM    8  C   UNL     1      45.737  -9.209   8.521  1.00  0.00     0.014 A 
HETATM    9  C   UNL     1      46.372 -10.081   7.636  1.00  0.00     0.002 A 
HETATM   10  C   UNL     1      45.677 -11.174   7.120  1.00  0.00     0.017 A 
BRANCH   7  11
HETATM   11  C   UNL     1      43.751  -8.494   9.825  1.00  0.00     0.086 A 
HETATM   12  O   UNL     1      43.806  -8.823  11.152  1.00  0.00    -0.315 OA
HETATM   13  C   UNL     1      43.107  -7.874  11.836  1.00  0.00     0.050 A 
HETATM   14  C   UNL     1      43.009  -8.045  13.298  1.00  0.00     0.076 C 
HETATM   15  C   UNL     1      42.623  -6.924  10.965  1.00  0.00     0.035 A 
HETATM   16  C   UNL     1      43.033  -7.325   9.670  1.00  0.00     0.040 A 
ENDBRANCH   7  11
ENDBRANCH   1   5
BRANCH   2  17
HETATM   17  C   UNL     1      41.521 -13.437   5.819  1.00  0.00     0.084 C 
HETATM   18  C   UNL     1      40.021 -13.182   6.005  1.00  0.00     0.027 C 
HETATM   19  C   UNL     1      39.411 -12.211   4.997  1.00  0.00     0.035 C 
HETATM   20  C   UNL     1      39.799 -12.492   3.545  1.00  0.00     0.183 C 
HETATM   21  C   UNL     1      41.268 -12.839   3.310  1.00  0.00     0.035 C 
HETATM   22  C   UNL     1      41.878 -13.765   4.363  1.00  0.00     0.027 C 
BRANCH  20  23
HETATM   23  N   UNL     1      38.969 -13.640   3.057  1.00  0.00    -0.075 N 
HETATM   24  H   UNL     1      38.146 -13.335   2.524  1.00  0.00     0.274 HD
HETATM   25  H   UNL     1      39.522 -14.262   2.453  1.00  0.00     0.274 HD
HETATM   26  H   UNL     1      38.638 -14.211   3.846  1.00  0.00     0.274 HD
ENDBRANCH  20  23
ENDBRANCH   2  17
TORSDOF 4
ENDMDL
MODEL 9
REMARK VINA RESULT:      -7.1     15.194     18.531
REMARK  4 active torsions:
REMARK  status: ('A' for Active; 'I' for Inactive)
REMARK    1  A    between atoms: C_4  and  C_5 
REMARK    2  A    between atoms: C_7  and  C_8 
REMARK       I    between atoms: C_8  and  N_9 
REMARK    3  A    between atoms: N_9  and  C_10 
REMARK    4  A    between atoms: C_13  and  N_14 
ROOT
HETATM    1  C   UNL     1      49.323 -29.666  -0.505  1.00  0.00     0.252 C 
HETATM    2  N   UNL     1      49.462 -29.908   0.844  1.00  0.00    -0.352 N 
HETATM    3  O   UNL     1      50.228 -29.834  -1.313  1.00  0.00    -0.268 OA
HETATM    4  H   UNL     1      48.616 -29.892   1.403  1.00  0.00     0.163 HD
ENDROOT
BRANCH   1   5
HETATM    5  C   UNL     1      47.983 -29.210  -0.987  1.00  0.00     0.032 A 
HETATM    6  C   UNL     1      47.358 -29.746  -2.122  1.00  0.00     0.031 A 
HETATM    7  C   UNL     1      46.096 -29.285  -2.534  1.00  0.00    -0.001 A 
HETATM    8  C   UNL     1      45.461 -28.291  -1.776  1.00  0.00     0.014 A 
HETATM    9  C   UNL     1      46.069 -27.763  -0.637  1.00  0.00     0.002 A 
HETATM   10  C   UNL     1      47.326 -28.221  -0.244  1.00  0.00     0.017 A 
BRANCH   7  11
HETATM   11  C   UNL     1      45.452 -29.824  -3.726  1.00  0.00     0.086 A 
HETATM   12  O   UNL     1      46.182 -30.725  -4.453  1.00  0.00    -0.315 OA
HETATM   13  C   UNL     1      45.436 -31.071  -5.539  1.00  0.00     0.050 A 
HETATM   14  C   UNL     1      46.046 -32.023  -6.489  1.00  0.00     0.076 C 
HETATM   15  C   UNL     1      44.223 -30.421  -5.508  1.00  0.00     0.035 A 
HETATM   16  C   UNL     1      44.235 -29.614  -4.344  1.00  0.00     0.040 A 
ENDBRANCH   7  11
ENDBRANCH   1   5
BRANCH   2  17
HETATM   17  C   UNL     1      50.657 -30.381   1.535  1.00  0.00     0.084 C 
HETATM   18  C   UNL     1      50.861 -29.753   2.918  1.00  0.00     0.027 C 
HETATM   19  C   UNL     1      50.085 -30.429   4.045  1.00  0.00     0.035 C 
HETATM   20  C   UNL     1      50.197 -31.954   4.053  1.00  0.00     0.183 C 
HETATM   21  C   UNL     1      50.088 -32.631   2.687  1.00  0.00     0.035 C 
HETATM   22  C   UNL     1      50.824 -31.906   1.559  1.00  0.00     0.027 C 
BRANCH  20  23
HETATM   23  N   UNL     1      51.524 -32.318   4.645  1.00  0.00    -0.075 N 
HETATM   24  H   UNL     1      52.008 -33.051   4.113  1.00  0.00     0.274 HD
HETATM   25  H   UNL     1      52.144 -31.499   4.688  1.00  0.00     0.274 HD
HETATM   26  H   UNL     1      51.412 -32.655   5.611  1.00  0.00     0.274 HD
ENDBRANCH  20  23
ENDBRANCH   2  17
TORSDOF 4
ENDMDL
MODEL 10
REMARK VINA RESULT:      -7.0     14.581     16.822
REMARK  4 active torsions:
REMARK  status: ('A' for Active; 'I' for Inactive)
REMARK    1  A    between atoms: C_4  and  C_5 
REMARK    2  A    between atoms: C_7  and  C_8 
REMARK       I    between atoms: C_8  and  N_9 
REMARK    3  A    between atoms: N_9  and  C_10 
REMARK    4  A    between atoms: C_13  and  N_14 
ROOT
HETATM    1  C   UNL     1      47.188 -28.559   1.568  1.00  0.00     0.252 C 
HETATM    2  N   UNL     1      46.702 -29.005   0.357  1.00  0.00    -0.352 N 
HETATM    3  O   UNL     1      47.502 -27.393   1.775  1.00  0.00    -0.268 OA
HETATM    4  H   UNL     1      46.324 -29.945   0.333  1.00  0.00     0.163 HD
ENDROOT
BRANCH   1   5
HETATM    5  C   UNL     1      47.295 -29.557   2.674  1.00  0.00     0.032 A 
HETATM    6  C   UNL     1      48.513 -29.898   3.280  1.00  0.00     0.031 A 
HETATM    7  C   UNL     1      48.561 -30.843   4.319  1.00  0.00    -0.001 A 
HETATM    8  C   UNL     1      47.363 -31.426   4.756  1.00  0.00     0.014 A 
HETATM    9  C   UNL     1      46.145 -31.083   4.169  1.00  0.00     0.002 A 
HETATM   10  C   UNL     1      46.112 -30.152   3.132  1.00  0.00     0.017 A 
BRANCH   7  11
HETATM   11  C   UNL     1      49.829 -31.216   4.937  1.00  0.00     0.086 A 
HETATM   12  O   UNL     1      49.784 -32.250   5.831  1.00  0.00    -0.315 OA
HETATM   13  C   UNL     1      51.043 -32.413   6.328  1.00  0.00     0.050 A 
HETATM   14  C   UNL     1      51.226 -33.468   7.344  1.00  0.00     0.076 C 
HETATM   15  C   UNL     1      51.903 -31.510   5.744  1.00  0.00     0.035 A 
HETATM   16  C   UNL     1      51.121 -30.736   4.852  1.00  0.00     0.040 A 
ENDBRANCH   7  11
ENDBRANCH   1   5
BRANCH   2  17
HETATM   17  C   UNL     1      46.487 -28.214  -0.850  1.00  0.00     0.084 C 
HETATM   18  C   UNL     1      47.342 -28.659  -2.041  1.00  0.00     0.027 C 
HETATM   19  C   UNL     1      46.762 -29.823  -2.842  1.00  0.00     0.035 C 
HETATM   20  C   UNL     1      45.281 -29.666  -3.187  1.00  0.00     0.183 C 
HETATM   21  C   UNL     1      44.392 -29.141  -2.061  1.00  0.00     0.035 C 
HETATM   22  C   UNL     1      45.014 -28.015  -1.233  1.00  0.00     0.027 C 
BRANCH  20  23
HETATM   23  N   UNL     1      45.172 -28.718  -4.342  1.00  0.00    -0.075 N 
HETATM   24  H   UNL     1      44.261 -28.768  -4.812  1.00  0.00     0.274 HD
HETATM   25  H   UNL     1      45.315 -27.747  -4.034  1.00  0.00     0.274 HD
HETATM   26  H   UNL     1      45.898 -28.915  -5.045  1.00  0.00     0.274 HD
ENDBRANCH  20  23
ENDBRANCH   2  17
TORSDOF 4
ENDMDL
