MODEL 1
REMARK VINA RESULT:      -7.9      0.000      0.000
REMARK  3 active torsions:
REMARK  status: ('A' for Active; 'I' for Inactive)
REMARK    1  A    between atoms: C_2  and  C_3 
REMARK    2  A    between atoms: C_9  and  C_10 
REMARK    3  A    between atoms: C_20  and  N_21 
ROOT
HETATM    1  C   UNL     1      43.667 -18.504   4.451  1.00  0.00     0.043 A 
HETATM    2  N   UNL     1      43.615 -19.400   5.497  1.00  0.00    -0.279 N 
HETATM    3  H   UNL     1      43.715 -20.410   5.460  1.00  0.00     0.189 HD
HETATM    4  N   UNL     1      43.420 -18.825   6.700  1.00  0.00    -0.148 NA
HETATM    5  C   UNL     1      43.352 -17.537   6.394  1.00  0.00     0.199 A 
HETATM    6  C   UNL     1      43.464 -17.263   5.028  1.00  0.00     0.035 A 
HETATM    7  C   UNL     1      43.398 -15.860   4.528  1.00  0.00     0.107 A 
HETATM    8  C   UNL     1      43.292 -14.874   5.690  1.00  0.00     0.081 A 
HETATM    9  C   UNL     1      43.330 -13.489   5.354  1.00  0.00     0.100 C 
HETATM   10  N   UNL     1      43.341 -12.360   5.082  1.00  0.00    -0.191 NA
HETATM   11  C   UNL     1      43.201 -15.266   6.988  1.00  0.00     0.140 A 
HETATM   12  O   UNL     1      43.191 -16.618   7.361  1.00  0.00    -0.277 OA
ENDROOT
BRANCH   7  13
HETATM   13  C   UNL     1      42.193 -15.800   3.591  1.00  0.00    -0.022 A 
HETATM   14  C   UNL     1      42.310 -15.393   2.249  1.00  0.00     0.041 A 
HETATM   15 CL   UNL     1      43.825 -14.951   1.543  1.00  0.00    -0.084 Cl
HETATM   16  C   UNL     1      41.185 -15.323   1.419  1.00  0.00     0.024 A 
HETATM   17  C   UNL     1      39.923 -15.648   1.911  1.00  0.00     0.002 A 
HETATM   18  C   UNL     1      39.780 -16.042   3.236  1.00  0.00     0.001 A 
HETATM   19  C   UNL     1      40.899 -16.113   4.069  1.00  0.00     0.010 A 
ENDBRANCH   7  13
BRANCH  11  20
HETATM   20  N   UNL     1      43.106 -14.418   8.069  1.00  0.00    -0.282 NA
HETATM   21  H   UNL     1      43.969 -14.244   8.579  1.00  0.00     0.126 HD
HETATM   22  H   UNL     1      42.591 -13.569   7.846  1.00  0.00     0.126 HD
ENDBRANCH  11  20
BRANCH   1  23
HETATM   23  C   UNL     1      43.897 -18.926   3.031  1.00  0.00     0.029 C 
HETATM   24  C   UNL     1      42.663 -18.665   2.168  1.00  0.00     0.016 C 
HETATM   25  C   UNL     1      44.324 -20.391   2.948  1.00  0.00     0.016 C 
ENDBRANCH   1  23
TORSDOF 3
ENDMDL
MODEL 2
REMARK VINA RESULT:      -7.7      2.986      5.659
REMARK  3 active torsions:
REMARK  status: ('A' for Active; 'I' for Inactive)
REMARK    1  A    between atoms: C_2  and  C_3 
REMARK    2  A    between atoms: C_9  and  C_10 
REMARK    3  A    between atoms: C_20  and  N_21 
ROOT
HETATM    1  C   UNL     1      40.817 -12.251   1.711  1.00  0.00     0.043 A 
HETATM    2  N   UNL     1      41.176 -11.099   1.043  1.00  0.00    -0.279 N 
HETATM    3  H   UNL     1      40.736 -10.690   0.225  1.00  0.00     0.189 HD
HETATM    4  N   UNL     1      42.235 -10.464   1.579  1.00  0.00    -0.148 NA
HETATM    5  C   UNL     1      42.542 -11.238   2.611  1.00  0.00     0.199 A 
HETATM    6  C   UNL     1      41.735 -12.372   2.739  1.00  0.00     0.035 A 
HETATM    7  C   UNL     1      41.962 -13.343   3.847  1.00  0.00     0.107 A 
HETATM    8  C   UNL     1      43.073 -12.858   4.776  1.00  0.00     0.081 A 
HETATM    9  C   UNL     1      43.318 -13.644   5.940  1.00  0.00     0.100 C 
HETATM   10  N   UNL     1      43.533 -14.291   6.880  1.00  0.00    -0.191 NA
HETATM   11  C   UNL     1      43.784 -11.721   4.549  1.00  0.00     0.140 A 
HETATM   12  O   UNL     1      43.553 -10.907   3.432  1.00  0.00    -0.277 OA
ENDROOT
BRANCH   7  13
HETATM   13  C   UNL     1      42.292 -14.678   3.180  1.00  0.00    -0.022 A 
HETATM   14  C   UNL     1      41.695 -15.885   3.590  1.00  0.00     0.041 A 
HETATM   15 CL   UNL     1      40.526 -15.957   4.862  1.00  0.00    -0.084 Cl
HETATM   16  C   UNL     1      42.034 -17.097   2.978  1.00  0.00     0.024 A 
HETATM   17  C   UNL     1      42.977 -17.132   1.954  1.00  0.00     0.002 A 
HETATM   18  C   UNL     1      43.588 -15.955   1.539  1.00  0.00     0.001 A 
HETATM   19  C   UNL     1      43.255 -14.743   2.146  1.00  0.00     0.010 A 
ENDBRANCH   7  13
BRANCH  11  20
HETATM   20  N   UNL     1      44.792 -11.241   5.356  1.00  0.00    -0.282 NA
HETATM   21  H   UNL     1      44.824 -10.232   5.479  1.00  0.00     0.126 HD
HETATM   22  H   UNL     1      44.862 -11.758   6.230  1.00  0.00     0.126 HD
ENDBRANCH  11  20
BRANCH   1  23
HETATM   23  C   UNL     1      39.654 -13.101   1.297  1.00  0.00     0.029 C 
HETATM   24  C   UNL     1      40.094 -14.224   0.359  1.00  0.00     0.016 C 
HETATM   25  C   UNL     1      38.547 -12.259   0.663  1.00  0.00     0.016 C 
ENDBRANCH   1  23
TORSDOF 3
ENDMDL
MODEL 3
REMARK VINA RESULT:      -7.6     13.415     15.130
REMARK  3 active torsions:
REMARK  status: ('A' for Active; 'I' for Inactive)
REMARK    1  A    between atoms: C_2  and  C_3 
REMARK    2  A    between atoms: C_9  and  C_10 
REMARK    3  A    between atoms: C_20  and  N_21 
ROOT
HETATM    1  C   UNL     1      44.743 -29.462   1.172  1.00  0.00     0.043 A 
HETATM    2  N   UNL     1      45.045 -28.632   2.231  1.00  0.00    -0.279 N 
HETATM    3  H   UNL     1      44.412 -28.261   2.933  1.00  0.00     0.189 HD
HETATM    4  N   UNL     1      46.349 -28.306   2.315  1.00  0.00    -0.148 NA
HETATM    5  C   UNL     1      46.874 -28.954   1.284  1.00  0.00     0.199 A 
HETATM    6  C   UNL     1      45.945 -29.661   0.516  1.00  0.00     0.035 A 
HETATM    7  C   UNL     1      46.382 -30.434  -0.681  1.00  0.00     0.107 A 
HETATM    8  C   UNL     1      47.901 -30.385  -0.834  1.00  0.00     0.081 A 
HETATM    9  C   UNL     1      48.461 -31.175  -1.882  1.00  0.00     0.100 C 
HETATM   10  N   UNL     1      48.918 -31.802  -2.745  1.00  0.00    -0.191 NA
HETATM   11  C   UNL     1      48.705 -29.664  -0.009  1.00  0.00     0.140 A 
HETATM   12  O   UNL     1      48.196 -28.899   1.049  1.00  0.00    -0.277 OA
ENDROOT
BRANCH   7  13
HETATM   13  C   UNL     1      45.649 -29.821  -1.873  1.00  0.00    -0.022 A 
HETATM   14  C   UNL     1      44.648 -30.520  -2.574  1.00  0.00     0.041 A 
HETATM   15 CL   UNL     1      44.150 -32.116  -2.135  1.00  0.00    -0.084 Cl
HETATM   16  C   UNL     1      44.010 -29.943  -3.679  1.00  0.00     0.024 A 
HETATM   17  C   UNL     1      44.360 -28.666  -4.109  1.00  0.00     0.002 A 
HETATM   18  C   UNL     1      45.352 -27.960  -3.440  1.00  0.00     0.001 A 
HETATM   19  C   UNL     1      45.993 -28.530  -2.338  1.00  0.00     0.010 A 
ENDBRANCH   7  13
BRANCH  11  20
HETATM   20  N   UNL     1      50.078 -29.589  -0.104  1.00  0.00    -0.282 NA
HETATM   21  H   UNL     1      50.478 -29.832  -1.007  1.00  0.00     0.126 HD
HETATM   22  H   UNL     1      50.442 -28.719   0.278  1.00  0.00     0.126 HD
ENDBRANCH  11  20
BRANCH   1  23
HETATM   23  C   UNL     1      43.356 -29.965   0.904  1.00  0.00     0.029 C 
HETATM   24  C   UNL     1      42.306 -29.075   1.568  1.00  0.00     0.016 C 
HETATM   25  C   UNL     1      43.197 -31.421   1.343  1.00  0.00     0.016 C 
ENDBRANCH   1  23
TORSDOF 3
ENDMDL
MODEL 4
REMARK VINA RESULT:      -7.3      3.192      5.095
REMARK  3 active torsions:
REMARK  status: ('A' for Active; 'I' for Inactive)
REMARK    1  A    between atoms: C_2  and  C_3 
REMARK    2  A    between atoms: C_9  and  C_10 
REMARK    3  A    between atoms: C_20  and  N_21 
ROOT
HETATM    1  C   UNL     1      42.486 -16.450   4.613  1.00  0.00     0.043 A 
HETATM    2  N   UNL     1      43.016 -17.482   3.868  1.00  0.00    -0.279 N 
HETATM    3  H   UNL     1      43.633 -18.225   4.181  1.00  0.00     0.189 HD
HETATM    4  N   UNL     1      42.634 -17.475   2.576  1.00  0.00    -0.148 NA
HETATM    5  C   UNL     1      41.843 -16.413   2.517  1.00  0.00     0.199 A 
HETATM    6  C   UNL     1      41.728 -15.713   3.721  1.00  0.00     0.035 A 
HETATM    7  C   UNL     1      40.879 -14.491   3.809  1.00  0.00     0.107 A 
HETATM    8  C   UNL     1      40.158 -14.233   2.487  1.00  0.00     0.081 A 
HETATM    9  C   UNL     1      39.228 -13.153   2.470  1.00  0.00     0.100 C 
HETATM   10  N   UNL     1      38.484 -12.262   2.446  1.00  0.00    -0.191 NA
HETATM   11  C   UNL     1      40.347 -14.999   1.380  1.00  0.00     0.140 A 
HETATM   12  O   UNL     1      41.230 -16.088   1.366  1.00  0.00    -0.277 OA
ENDROOT
BRANCH   7  13
HETATM   13  C   UNL     1      41.817 -13.351   4.201  1.00  0.00    -0.022 A 
HETATM   14  C   UNL     1      41.541 -12.495   5.285  1.00  0.00     0.041 A 
HETATM   15 CL   UNL     1      40.135 -12.676   6.274  1.00  0.00    -0.084 Cl
HETATM   16  C   UNL     1      42.406 -11.442   5.606  1.00  0.00     0.024 A 
HETATM   17  C   UNL     1      43.555 -11.217   4.853  1.00  0.00     0.002 A 
HETATM   18  C   UNL     1      43.843 -12.041   3.772  1.00  0.00     0.001 A 
HETATM   19  C   UNL     1      42.984 -13.092   3.445  1.00  0.00     0.010 A 
ENDBRANCH   7  13
BRANCH  11  20
HETATM   20  N   UNL     1      39.720 -14.810   0.168  1.00  0.00    -0.282 NA
HETATM   21  H   UNL     1      39.878 -15.528  -0.535  1.00  0.00     0.126 HD
HETATM   22  H   UNL     1      38.739 -14.562   0.279  1.00  0.00     0.126 HD
ENDBRANCH  11  20
BRANCH   1  23
HETATM   23  C   UNL     1      42.763 -16.279   6.076  1.00  0.00     0.029 C 
HETATM   24  C   UNL     1      41.482 -15.977   6.852  1.00  0.00     0.016 C 
HETATM   25  C   UNL     1      43.820 -15.202   6.322  1.00  0.00     0.016 C 
ENDBRANCH   1  23
TORSDOF 3
ENDMDL
MODEL 5
REMARK VINA RESULT:      -7.2      3.106      4.810
REMARK  3 active torsions:
REMARK  status: ('A' for Active; 'I' for Inactive)
REMARK    1  A    between atoms: C_2  and  C_3 
REMARK    2  A    between atoms: C_9  and  C_10 
REMARK    3  A    between atoms: C_20  and  N_21 
ROOT
HETATM    1  C   UNL     1      42.894 -16.473   4.010  1.00  0.00     0.043 A 
HETATM    2  N   UNL     1      42.821 -17.031   2.751  1.00  0.00    -0.279 N 
HETATM    3  H   UNL     1      43.378 -17.792   2.373  1.00  0.00     0.189 HD
HETATM    4  N   UNL     1      41.878 -16.481   1.963  1.00  0.00    -0.148 NA
HETATM    5  C   UNL     1      41.347 -15.559   2.753  1.00  0.00     0.199 A 
HETATM    6  C   UNL     1      41.939 -15.472   4.016  1.00  0.00     0.035 A 
HETATM    7  C   UNL     1      41.455 -14.476   5.013  1.00  0.00     0.107 A 
HETATM    8  C   UNL     1      40.247 -13.711   4.476  1.00  0.00     0.081 A 
HETATM    9  C   UNL     1      39.619 -12.800   5.376  1.00  0.00     0.100 C 
HETATM   10  N   UNL     1      39.116 -12.044   6.099  1.00  0.00    -0.191 NA
HETATM   11  C   UNL     1      39.753 -13.894   3.223  1.00  0.00     0.140 A 
HETATM   12  O   UNL     1      40.324 -14.802   2.320  1.00  0.00    -0.277 OA
ENDROOT
BRANCH   7  13
HETATM   13  C   UNL     1      42.644 -13.565   5.314  1.00  0.00    -0.022 A 
HETATM   14  C   UNL     1      43.347 -13.631   6.532  1.00  0.00     0.041 A 
HETATM   15 CL   UNL     1      42.941 -14.759   7.777  1.00  0.00    -0.084 Cl
HETATM   16  C   UNL     1      44.417 -12.766   6.790  1.00  0.00     0.024 A 
HETATM   17  C   UNL     1      44.803 -11.817   5.847  1.00  0.00     0.002 A 
HETATM   18  C   UNL     1      44.117 -11.725   4.642  1.00  0.00     0.001 A 
HETATM   19  C   UNL     1      43.048 -12.583   4.378  1.00  0.00     0.010 A 
ENDBRANCH   7  13
BRANCH  11  20
HETATM   20  N   UNL     1      38.666 -13.233   2.694  1.00  0.00    -0.282 NA
HETATM   21  H   UNL     1      37.800 -13.763   2.645  1.00  0.00     0.126 HD
HETATM   22  H   UNL     1      38.551 -12.304   3.095  1.00  0.00     0.126 HD
ENDBRANCH  11  20
BRANCH   1  23
HETATM   23  C   UNL     1      43.859 -16.948   5.054  1.00  0.00     0.029 C 
HETATM   24  C   UNL     1      44.836 -17.973   4.482  1.00  0.00     0.016 C 
HETATM   25  C   UNL     1      43.128 -17.509   6.274  1.00  0.00     0.016 C 
ENDBRANCH   1  23
TORSDOF 3
ENDMDL
MODEL 6
REMARK VINA RESULT:      -7.1      3.612      5.414
REMARK  3 active torsions:
REMARK  status: ('A' for Active; 'I' for Inactive)
REMARK    1  A    between atoms: C_2  and  C_3 
REMARK    2  A    between atoms: C_9  and  C_10 
REMARK    3  A    between atoms: C_20  and  N_21 
ROOT
HETATM    1  C   UNL     1      41.678 -15.357   2.543  1.00  0.00     0.043 A 
HETATM    2  N   UNL     1      41.770 -15.131   1.187  1.00  0.00    -0.279 N 
HETATM    3  H   UNL     1      42.210 -15.718   0.484  1.00  0.00     0.189 HD
HETATM    4  N   UNL     1      41.184 -13.987   0.783  1.00  0.00    -0.148 NA
HETATM    5  C   UNL     1      40.711 -13.491   1.917  1.00  0.00     0.199 A 
HETATM    6  C   UNL     1      41.002 -14.261   3.047  1.00  0.00     0.035 A 
HETATM    7  C   UNL     1      40.543 -13.828   4.398  1.00  0.00     0.107 A 
HETATM    8  C   UNL     1      39.697 -12.560   4.304  1.00  0.00     0.081 A 
HETATM    9  C   UNL     1      39.104 -12.099   5.516  1.00  0.00     0.100 C 
HETATM   10  N   UNL     1      38.635 -11.710   6.504  1.00  0.00    -0.191 NA
HETATM   11  C   UNL     1      39.475 -11.903   3.134  1.00  0.00     0.140 A 
HETATM   12  O   UNL     1      40.015 -12.341   1.917  1.00  0.00    -0.277 OA
ENDROOT
BRANCH   7  13
HETATM   13  C   UNL     1      41.807 -13.634   5.233  1.00  0.00    -0.022 A 
HETATM   14  C   UNL     1      42.107 -14.457   6.336  1.00  0.00     0.041 A 
HETATM   15 CL   UNL     1      41.088 -15.766   6.821  1.00  0.00    -0.084 Cl
HETATM   16  C   UNL     1      43.260 -14.241   7.099  1.00  0.00     0.024 A 
HETATM   17  C   UNL     1      44.130 -13.200   6.786  1.00  0.00     0.002 A 
HETATM   18  C   UNL     1      43.849 -12.367   5.709  1.00  0.00     0.001 A 
HETATM   19  C   UNL     1      42.700 -12.577   4.944  1.00  0.00     0.010 A 
ENDBRANCH   7  13
BRANCH  11  20
HETATM   20  N   UNL     1      38.719 -10.759   2.997  1.00  0.00    -0.282 NA
HETATM   21  H   UNL     1      38.501 -10.262   3.857  1.00  0.00     0.126 HD
HETATM   22  H   UNL     1      39.071 -10.155   2.258  1.00  0.00     0.126 HD
ENDBRANCH  11  20
BRANCH   1  23
HETATM   23  C   UNL     1      42.243 -16.580   3.203  1.00  0.00     0.029 C 
HETATM   24  C   UNL     1      43.605 -16.291   3.833  1.00  0.00     0.016 C 
HETATM   25  C   UNL     1      42.329 -17.751   2.224  1.00  0.00     0.016 C 
ENDBRANCH   1  23
TORSDOF 3
ENDMDL
MODEL 7
REMARK VINA RESULT:      -7.0      3.013      4.348
REMARK  3 active torsions:
REMARK  status: ('A' for Active; 'I' for Inactive)
REMARK    1  A    between atoms: C_2  and  C_3 
REMARK    2  A    between atoms: C_9  and  C_10 
REMARK    3  A    between atoms: C_20  and  N_21 
ROOT
HETATM    1  C   UNL     1      40.652 -14.982   3.651  1.00  0.00     0.043 A 
HETATM    2  N   UNL     1      40.022 -16.165   3.973  1.00  0.00    -0.279 N 
HETATM    3  H   UNL     1      39.388 -16.712   3.398  1.00  0.00     0.189 HD
HETATM    4  N   UNL     1      40.318 -16.624   5.205  1.00  0.00    -0.148 NA
HETATM    5  C   UNL     1      41.159 -15.705   5.658  1.00  0.00     0.199 A 
HETATM    6  C   UNL     1      41.389 -14.648   4.773  1.00  0.00     0.035 A 
HETATM    7  C   UNL     1      42.305 -13.533   5.146  1.00  0.00     0.107 A 
HETATM    8  C   UNL     1      42.952 -13.791   6.505  1.00  0.00     0.081 A 
HETATM    9  C   UNL     1      43.934 -12.850   6.932  1.00  0.00     0.100 C 
HETATM   10  N   UNL     1      44.721 -12.076   7.291  1.00  0.00    -0.191 NA
HETATM   11  C   UNL     1      42.651 -14.872   7.274  1.00  0.00     0.140 A 
HETATM   12  O   UNL     1      41.713 -15.834   6.876  1.00  0.00    -0.277 OA
ENDROOT
BRANCH   7  13
HETATM   13  C   UNL     1      41.456 -12.263   5.128  1.00  0.00    -0.022 A 
HETATM   14  C   UNL     1      41.759 -11.174   4.288  1.00  0.00     0.041 A 
HETATM   15 CL   UNL     1      43.097 -11.190   3.194  1.00  0.00    -0.084 Cl
HETATM   16  C   UNL     1      40.978 -10.012   4.311  1.00  0.00     0.024 A 
HETATM   17  C   UNL     1      39.889  -9.909   5.172  1.00  0.00     0.002 A 
HETATM   18  C   UNL     1      39.577 -10.966   6.018  1.00  0.00     0.001 A 
HETATM   19  C   UNL     1      40.352 -12.128   6.001  1.00  0.00     0.010 A 
ENDBRANCH   7  13
BRANCH  11  20
HETATM   20  N   UNL     1      43.207 -15.150   8.503  1.00  0.00    -0.282 NA
HETATM   21  H   UNL     1      43.169 -16.121   8.802  1.00  0.00     0.126 HD
HETATM   22  H   UNL     1      44.128 -14.729   8.611  1.00  0.00     0.126 HD
ENDBRANCH  11  20
BRANCH   1  23
HETATM   23  C   UNL     1      40.481 -14.306   2.324  1.00  0.00     0.029 C 
HETATM   24  C   UNL     1      39.386 -13.241   2.381  1.00  0.00     0.016 C 
HETATM   25  C   UNL     1      40.202 -15.320   1.214  1.00  0.00     0.016 C 
ENDBRANCH   1  23
TORSDOF 3
ENDMDL
MODEL 8
REMARK VINA RESULT:      -6.7      8.600     10.347
REMARK  3 active torsions:
REMARK  status: ('A' for Active; 'I' for Inactive)
REMARK    1  A    between atoms: C_2  and  C_3 
REMARK    2  A    between atoms: C_9  and  C_10 
REMARK    3  A    between atoms: C_20  and  N_21 
ROOT
HETATM    1  C   UNL     1      39.572  -9.906  10.764  1.00  0.00     0.043 A 
HETATM    2  N   UNL     1      38.604 -10.831  10.436  1.00  0.00    -0.279 N 
HETATM    3  H   UNL     1      38.083 -11.438  11.061  1.00  0.00     0.189 HD
HETATM    4  N   UNL     1      38.336 -10.897   9.117  1.00  0.00    -0.148 NA
HETATM    5  C   UNL     1      39.156  -9.986   8.612  1.00  0.00     0.199 A 
HETATM    6  C   UNL     1      39.970  -9.357   9.558  1.00  0.00     0.035 A 
HETATM    7  C   UNL     1      40.951  -8.315   9.141  1.00  0.00     0.107 A 
HETATM    8  C   UNL     1      40.838  -8.029   7.645  1.00  0.00     0.081 A 
HETATM    9  C   UNL     1      41.648  -6.972   7.136  1.00  0.00     0.100 C 
HETATM   10  N   UNL     1      42.320  -6.125   6.714  1.00  0.00    -0.191 NA
HETATM   11  C   UNL     1      39.992  -8.707   6.824  1.00  0.00     0.140 A 
HETATM   12  O   UNL     1      39.158  -9.732   7.292  1.00  0.00    -0.277 OA
ENDROOT
BRANCH   7  13
HETATM   13  C   UNL     1      42.328  -8.845   9.538  1.00  0.00    -0.022 A 
HETATM   14  C   UNL     1      43.074  -8.274  10.587  1.00  0.00     0.041 A 
HETATM   15 CL   UNL     1      42.489  -6.946  11.526  1.00  0.00    -0.084 Cl
HETATM   16  C   UNL     1      44.344  -8.765  10.913  1.00  0.00     0.024 A 
HETATM   17  C   UNL     1      44.897  -9.824  10.198  1.00  0.00     0.002 A 
HETATM   18  C   UNL     1      44.185 -10.397   9.152  1.00  0.00     0.001 A 
HETATM   19  C   UNL     1      42.918  -9.912   8.821  1.00  0.00     0.010 A 
ENDBRANCH   7  13
BRANCH  11  20
HETATM   20  N   UNL     1      39.851  -8.486   5.472  1.00  0.00    -0.282 NA
HETATM   21  H   UNL     1      39.164  -9.062   4.993  1.00  0.00     0.126 HD
HETATM   22  H   UNL     1      39.773  -7.495   5.252  1.00  0.00     0.126 HD
ENDBRANCH  11  20
BRANCH   1  23
HETATM   23  C   UNL     1      40.009  -9.654  12.176  1.00  0.00     0.029 C 
HETATM   24  C   UNL     1      39.631 -10.818  13.090  1.00  0.00     0.016 C 
HETATM   25  C   UNL     1      39.445  -8.335  12.706  1.00  0.00     0.016 C 
ENDBRANCH   1  23
TORSDOF 3
ENDMDL
MODEL 9
REMARK VINA RESULT:      -6.6      9.840     12.421
REMARK  3 active torsions:
REMARK  status: ('A' for Active; 'I' for Inactive)
REMARK    1  A    between atoms: C_2  and  C_3 
REMARK    2  A    between atoms: C_9  and  C_10 
REMARK    3  A    between atoms: C_20  and  N_21 
ROOT
HETATM    1  C   UNL     1      41.773  -5.590  11.946  1.00  0.00     0.043 A 
HETATM    2  N   UNL     1      41.701  -4.509  11.093  1.00  0.00    -0.279 N 
HETATM    3  H   UNL     1      41.242  -3.618  11.254  1.00  0.00     0.189 HD
HETATM    4  N   UNL     1      42.338  -4.694   9.921  1.00  0.00    -0.148 NA
HETATM    5  C   UNL     1      42.824  -5.921  10.050  1.00  0.00     0.199 A 
HETATM    6  C   UNL     1      42.493  -6.548  11.254  1.00  0.00     0.035 A 
HETATM    7  C   UNL     1      42.960  -7.934  11.541  1.00  0.00     0.107 A 
HETATM    8  C   UNL     1      43.860  -8.447  10.419  1.00  0.00     0.081 A 
HETATM    9  C   UNL     1      44.463  -9.724  10.620  1.00  0.00     0.100 C 
HETATM   10  N   UNL     1      44.941 -10.771  10.772  1.00  0.00    -0.191 NA
HETATM   11  C   UNL     1      44.118  -7.732   9.292  1.00  0.00     0.140 A 
HETATM   12  O   UNL     1      43.568  -6.462   9.070  1.00  0.00    -0.277 OA
ENDROOT
BRANCH   7  13
HETATM   13  C   UNL     1      41.699  -8.778  11.719  1.00  0.00    -0.022 A 
HETATM   14  C   UNL     1      41.321  -9.300  12.971  1.00  0.00     0.041 A 
HETATM   15 CL   UNL     1      42.234  -9.012  14.411  1.00  0.00    -0.084 Cl
HETATM   16  C   UNL     1      40.174 -10.092  13.101  1.00  0.00     0.024 A 
HETATM   17  C   UNL     1      39.388 -10.385  11.990  1.00  0.00     0.002 A 
HETATM   18  C   UNL     1      39.747  -9.890  10.742  1.00  0.00     0.001 A 
HETATM   19  C   UNL     1      40.890  -9.101  10.605  1.00  0.00     0.010 A 
ENDBRANCH   7  13
BRANCH  11  20
HETATM   20  N   UNL     1      44.923  -8.149   8.254  1.00  0.00    -0.282 NA
HETATM   21  H   UNL     1      45.753  -8.676   8.516  1.00  0.00     0.126 HD
HETATM   22  H   UNL     1      44.388  -8.583   7.505  1.00  0.00     0.126 HD
ENDBRANCH  11  20
BRANCH   1  23
HETATM   23  C   UNL     1      41.152  -5.591  13.310  1.00  0.00     0.029 C 
HETATM   24  C   UNL     1      39.677  -5.984  13.248  1.00  0.00     0.016 C 
HETATM   25  C   UNL     1      41.331  -4.241  14.005  1.00  0.00     0.016 C 
ENDBRANCH   1  23
TORSDOF 3
ENDMDL
MODEL 10
REMARK VINA RESULT:      -6.6     13.652     15.214
REMARK  3 active torsions:
REMARK  status: ('A' for Active; 'I' for Inactive)
REMARK    1  A    between atoms: C_2  and  C_3 
REMARK    2  A    between atoms: C_9  and  C_10 
REMARK    3  A    between atoms: C_20  and  N_21 
ROOT
HETATM    1  C   UNL     1      47.049 -29.508  -1.670  1.00  0.00     0.043 A 
HETATM    2  N   UNL     1      46.602 -28.559  -2.566  1.00  0.00    -0.279 N 
HETATM    3  H   UNL     1      47.077 -28.207  -3.391  1.00  0.00     0.189 HD
HETATM    4  N   UNL     1      45.378 -28.074  -2.282  1.00  0.00    -0.148 NA
HETATM    5  C   UNL     1      45.053 -28.741  -1.183  1.00  0.00     0.199 A 
HETATM    6  C   UNL     1      46.042 -29.618  -0.729  1.00  0.00     0.035 A 
HETATM    7  C   UNL     1      45.825 -30.433   0.501  1.00  0.00     0.107 A 
HETATM    8  C   UNL     1      44.419 -30.216   1.056  1.00  0.00     0.081 A 
HETATM    9  C   UNL     1      44.045 -31.020   2.173  1.00  0.00     0.100 C 
HETATM   10  N   UNL     1      43.743 -31.660   3.093  1.00  0.00    -0.191 NA
HETATM   11  C   UNL     1      43.536 -29.335   0.514  1.00  0.00     0.140 A 
HETATM   12  O   UNL     1      43.856 -28.549  -0.602  1.00  0.00    -0.277 OA
ENDROOT
BRANCH   7  13
HETATM   13  C   UNL     1      46.918 -30.016   1.483  1.00  0.00    -0.022 A 
HETATM   14  C   UNL     1      47.751 -30.958   2.118  1.00  0.00     0.041 A 
HETATM   15 CL   UNL     1      47.624 -32.656   1.822  1.00  0.00    -0.084 Cl
HETATM   16  C   UNL     1      48.728 -30.549   3.033  1.00  0.00     0.024 A 
HETATM   17  C   UNL     1      48.890 -29.200   3.340  1.00  0.00     0.002 A 
HETATM   18  C   UNL     1      48.073 -28.253   2.735  1.00  0.00     0.001 A 
HETATM   19  C   UNL     1      47.095 -28.654   1.822  1.00  0.00     0.010 A 
ENDBRANCH   7  13
BRANCH  11  20
HETATM   20  N   UNL     1      42.259 -29.106   0.975  1.00  0.00    -0.282 NA
HETATM   21  H   UNL     1      41.980 -28.132   1.054  1.00  0.00     0.126 HD
HETATM   22  H   UNL     1      41.571 -29.687   0.501  1.00  0.00     0.126 HD
ENDBRANCH  11  20
BRANCH   1  23
HETATM   23  C   UNL     1      48.375 -30.193  -1.808  1.00  0.00     0.029 C 
HETATM   24  C   UNL     1      48.244 -31.701  -1.602  1.00  0.00     0.016 C 
HETATM   25  C   UNL     1      49.412 -29.597  -0.856  1.00  0.00     0.016 C 
ENDBRANCH   1  23
TORSDOF 3
ENDMDL
