MODEL 1
REMARK VINA RESULT:      -9.1      0.000      0.000
REMARK  4 active torsions:
REMARK  status: ('A' for Active; 'I' for Inactive)
REMARK    1  A    between atoms: N_4  and  C_5 
REMARK    2  A    between atoms: C_14  and  C_15 
REMARK       I    between atoms: C_15  and  N_16 
REMARK    3  A    between atoms: N_16  and  N_17 
REMARK       I    between atoms: N_17  and  C_18 
REMARK       I    between atoms: C_18  and  N_19 
REMARK    4  A    between atoms: N_19  and  C_20 
ROOT
HETATM    1  C   UNL     1      44.454 -11.033   8.293  1.00  0.00     0.277 C 
HETATM    2  N   UNL     1      43.525 -10.828   9.294  1.00  0.00    -0.261 N 
HETATM    3  O   UNL     1      45.658 -10.889   8.503  1.00  0.00    -0.265 OA
HETATM    4  H   UNL     1      42.521 -10.844   9.112  1.00  0.00     0.190 HD
ENDROOT
BRANCH   1   5
HETATM    5  C   UNL     1      43.901 -11.423   7.003  1.00  0.00     0.077 A 
HETATM    6  S   UNL     1      44.139 -13.035   6.370  1.00  0.00    -0.064 SA
HETATM    7  C   UNL     1      43.235 -12.670   5.020  1.00  0.00     0.113 A 
HETATM    8  N   UNL     1      42.775 -13.257   3.868  1.00  0.00    -0.226 N 
HETATM    9  C   UNL     1      42.789 -11.410   5.031  1.00  0.00     0.027 A 
HETATM   10  N   UNL     1      42.052 -12.324   3.139  1.00  0.00    -0.171 NA
HETATM   11  C   UNL     1      42.069 -11.193   3.870  1.00  0.00     0.064 A 
HETATM   12  C   UNL     1      41.391  -9.968   3.393  1.00  0.00     0.073 C 
HETATM   13  C   UNL     1      43.126 -10.644   6.143  1.00  0.00     0.041 A 
BRANCH   8  14
HETATM   14  C   UNL     1      42.918 -14.589   3.379  1.00  0.00     0.059 A 
HETATM   15  C   UNL     1      43.172 -14.787   2.011  1.00  0.00     0.031 A 
HETATM   16  C   UNL     1      43.303 -16.078   1.490  1.00  0.00     0.002 A 
HETATM   17  C   UNL     1      43.184 -17.183   2.327  1.00  0.00     0.000 A 
HETATM   18  C   UNL     1      42.936 -16.998   3.685  1.00  0.00     0.002 A 
HETATM   19  C   UNL     1      42.803 -15.709   4.211  1.00  0.00     0.031 A 
ENDBRANCH   8  14
ENDBRANCH   1   5
BRANCH   2  20
HETATM   20  N   UNL     1      43.920 -10.288  10.529  1.00  0.00    -0.249 N 
HETATM   21  C   UNL     1      42.936  -9.599  11.224  1.00  0.00     0.339 C 
HETATM   22  N   UNL     1      43.428  -9.004  12.364  1.00  0.00    -0.308 N 
HETATM   23  O   UNL     1      41.775  -9.592  10.825  1.00  0.00    -0.245 OA
HETATM   24  H   UNL     1      44.406  -9.160  12.557  1.00  0.00     0.170 HD
HETATM   25  H   UNL     1      44.891  -9.985  10.572  1.00  0.00     0.192 HD
BRANCH  22  26
HETATM   26  C   UNL     1      42.704  -8.267  13.324  1.00  0.00     0.036 A 
HETATM   27  C   UNL     1      42.699  -6.872  13.395  1.00  0.00     0.031 A 
HETATM   28  C   UNL     1      41.941  -6.210  14.368  1.00  0.00     0.026 A 
HETATM   29  C   UNL     1      41.187  -6.943  15.277  1.00  0.00     0.034 A 
HETATM   30 CL   UNL     1      40.252  -6.129  16.469  1.00  0.00    -0.084 Cl
HETATM   31  C   UNL     1      41.184  -8.333  15.224  1.00  0.00     0.026 A 
HETATM   32  C   UNL     1      41.942  -8.993  14.250  1.00  0.00     0.031 A 
ENDBRANCH  22  26
ENDBRANCH   2  20
TORSDOF 4
ENDMDL
MODEL 2
REMARK VINA RESULT:      -8.6      7.729     11.427
REMARK  4 active torsions:
REMARK  status: ('A' for Active; 'I' for Inactive)
REMARK    1  A    between atoms: N_4  and  C_5 
REMARK    2  A    between atoms: C_14  and  C_15 
REMARK       I    between atoms: C_15  and  N_16 
REMARK    3  A    between atoms: N_16  and  N_17 
REMARK       I    between atoms: N_17  and  C_18 
REMARK       I    between atoms: C_18  and  N_19 
REMARK    4  A    between atoms: N_19  and  C_20 
ROOT
HETATM    1  C   UNL     1      39.843 -13.478   2.188  1.00  0.00     0.277 C 
HETATM    2  N   UNL     1      39.665 -13.875   0.877  1.00  0.00    -0.261 N 
HETATM    3  O   UNL     1      39.231 -12.516   2.651  1.00  0.00    -0.265 OA
HETATM    4  H   UNL     1      40.237 -14.604   0.450  1.00  0.00     0.190 HD
ENDROOT
BRANCH   1   5
HETATM    5  C   UNL     1      40.792 -14.274   2.954  1.00  0.00     0.077 A 
HETATM    6  S   UNL     1      41.116 -15.941   2.537  1.00  0.00    -0.064 SA
HETATM    7  C   UNL     1      42.232 -16.062   3.768  1.00  0.00     0.113 A 
HETATM    8  N   UNL     1      43.105 -16.969   4.314  1.00  0.00    -0.226 N 
HETATM    9  C   UNL     1      42.349 -14.926   4.463  1.00  0.00     0.027 A 
HETATM   10  N   UNL     1      43.753 -16.384   5.392  1.00  0.00    -0.171 NA
HETATM   11  C   UNL     1      43.278 -15.126   5.468  1.00  0.00     0.064 A 
HETATM   12  C   UNL     1      43.750 -14.196   6.517  1.00  0.00     0.073 C 
HETATM   13  C   UNL     1      41.561 -13.859   4.043  1.00  0.00     0.041 A 
BRANCH   8  14
HETATM   14  C   UNL     1      43.413 -18.310   3.938  1.00  0.00     0.059 A 
HETATM   15  C   UNL     1      43.826 -19.216   4.929  1.00  0.00     0.031 A 
HETATM   16  C   UNL     1      44.153 -20.535   4.599  1.00  0.00     0.002 A 
HETATM   17  C   UNL     1      44.070 -20.963   3.277  1.00  0.00     0.000 A 
HETATM   18  C   UNL     1      43.657 -20.074   2.287  1.00  0.00     0.002 A 
HETATM   19  C   UNL     1      43.331 -18.753   2.613  1.00  0.00     0.031 A 
ENDBRANCH   8  14
ENDBRANCH   1   5
BRANCH   2  20
HETATM   20  N   UNL     1      38.908 -13.087  -0.006  1.00  0.00    -0.249 N 
HETATM   21  C   UNL     1      39.639 -12.320  -0.902  1.00  0.00     0.339 C 
HETATM   22  N   UNL     1      38.834 -11.494  -1.652  1.00  0.00    -0.308 N 
HETATM   23  O   UNL     1      40.858 -12.441  -0.981  1.00  0.00    -0.245 OA
HETATM   24  H   UNL     1      37.843 -11.566  -1.479  1.00  0.00     0.170 HD
HETATM   25  H   UNL     1      38.031 -12.740   0.376  1.00  0.00     0.192 HD
BRANCH  22  26
HETATM   26  C   UNL     1      39.234 -10.616  -2.682  1.00  0.00     0.036 A 
HETATM   27  C   UNL     1      40.564 -10.283  -2.951  1.00  0.00     0.031 A 
HETATM   28  C   UNL     1      40.884  -9.417  -4.002  1.00  0.00     0.026 A 
HETATM   29  C   UNL     1      39.872  -8.876  -4.788  1.00  0.00     0.034 A 
HETATM   30 CL   UNL     1      40.265  -7.815  -6.083  1.00  0.00    -0.084 Cl
HETATM   31  C   UNL     1      38.541  -9.192  -4.530  1.00  0.00     0.026 A 
HETATM   32  C   UNL     1      38.224 -10.060  -3.479  1.00  0.00     0.031 A 
ENDBRANCH  22  26
ENDBRANCH   2  20
TORSDOF 4
ENDMDL
MODEL 3
REMARK VINA RESULT:      -8.6      2.997      4.098
REMARK  4 active torsions:
REMARK  status: ('A' for Active; 'I' for Inactive)
REMARK    1  A    between atoms: N_4  and  C_5 
REMARK    2  A    between atoms: C_14  and  C_15 
REMARK       I    between atoms: C_15  and  N_16 
REMARK    3  A    between atoms: N_16  and  N_17 
REMARK       I    between atoms: N_17  and  C_18 
REMARK       I    between atoms: C_18  and  N_19 
REMARK    4  A    between atoms: N_19  and  C_20 
ROOT
HETATM    1  C   UNL     1      39.653 -11.913   5.527  1.00  0.00     0.277 C 
HETATM    2  N   UNL     1      40.312 -10.700   5.554  1.00  0.00    -0.261 N 
HETATM    3  O   UNL     1      38.702 -12.138   6.275  1.00  0.00    -0.265 OA
HETATM    4  H   UNL     1      41.162 -10.534   5.014  1.00  0.00     0.190 HD
ENDROOT
BRANCH   1   5
HETATM    5  C   UNL     1      40.165 -12.877   4.562  1.00  0.00     0.077 A 
HETATM    6  S   UNL     1      41.265 -14.145   5.050  1.00  0.00    -0.064 SA
HETATM    7  C   UNL     1      41.303 -14.749   3.498  1.00  0.00     0.113 A 
HETATM    8  N   UNL     1      41.864 -15.774   2.779  1.00  0.00    -0.226 N 
HETATM    9  C   UNL     1      40.547 -14.037   2.656  1.00  0.00     0.027 A 
HETATM   10  N   UNL     1      41.466 -15.671   1.454  1.00  0.00    -0.171 NA
HETATM   11  C   UNL     1      40.654 -14.598   1.397  1.00  0.00     0.064 A 
HETATM   12  C   UNL     1      40.037 -14.179   0.119  1.00  0.00     0.073 C 
HETATM   13  C   UNL     1      39.860 -12.958   3.202  1.00  0.00     0.041 A 
BRANCH   8  14
HETATM   14  C   UNL     1      42.714 -16.844   3.187  1.00  0.00     0.059 A 
HETATM   15  C   UNL     1      42.840 -17.968   2.354  1.00  0.00     0.031 A 
HETATM   16  C   UNL     1      43.652 -19.044   2.727  1.00  0.00     0.002 A 
HETATM   17  C   UNL     1      44.345 -19.010   3.932  1.00  0.00     0.000 A 
HETATM   18  C   UNL     1      44.231 -17.898   4.764  1.00  0.00     0.002 A 
HETATM   19  C   UNL     1      43.419 -16.820   4.397  1.00  0.00     0.031 A 
ENDBRANCH   8  14
ENDBRANCH   1   5
BRANCH   2  20
HETATM   20  N   UNL     1      40.022  -9.757   6.554  1.00  0.00    -0.249 N 
HETATM   21  C   UNL     1      40.952  -9.666   7.580  1.00  0.00     0.339 C 
HETATM   22  N   UNL     1      40.543  -8.807   8.574  1.00  0.00    -0.308 N 
HETATM   23  O   UNL     1      42.011 -10.285   7.523  1.00  0.00    -0.245 OA
HETATM   24  H   UNL     1      39.657  -8.348   8.425  1.00  0.00     0.170 HD
HETATM   25  H   UNL     1      39.031  -9.626   6.742  1.00  0.00     0.192 HD
BRANCH  22  26
HETATM   26  C   UNL     1      41.254  -8.444   9.737  1.00  0.00     0.036 A 
HETATM   27  C   UNL     1      42.015  -7.277   9.854  1.00  0.00     0.031 A 
HETATM   28  C   UNL     1      42.681  -6.977  11.047  1.00  0.00     0.026 A 
HETATM   29  C   UNL     1      42.590  -7.844  12.130  1.00  0.00     0.034 A 
HETATM   30 CL   UNL     1      43.403  -7.471  13.599  1.00  0.00    -0.084 Cl
HETATM   31  C   UNL     1      41.840  -9.013  12.030  1.00  0.00     0.026 A 
HETATM   32  C   UNL     1      41.175  -9.311  10.835  1.00  0.00     0.031 A 
ENDBRANCH  22  26
ENDBRANCH   2  20
TORSDOF 4
ENDMDL
MODEL 4
REMARK VINA RESULT:      -8.5      2.565      3.053
REMARK  4 active torsions:
REMARK  status: ('A' for Active; 'I' for Inactive)
REMARK    1  A    between atoms: N_4  and  C_5 
REMARK    2  A    between atoms: C_14  and  C_15 
REMARK       I    between atoms: C_15  and  N_16 
REMARK    3  A    between atoms: N_16  and  N_17 
REMARK       I    between atoms: N_17  and  C_18 
REMARK       I    between atoms: C_18  and  N_19 
REMARK    4  A    between atoms: N_19  and  C_20 
ROOT
HETATM    1  C   UNL     1      39.197 -11.125   6.816  1.00  0.00     0.277 C 
HETATM    2  N   UNL     1      39.892 -10.534   7.853  1.00  0.00    -0.261 N 
HETATM    3  O   UNL     1      37.969 -11.204   6.836  1.00  0.00    -0.265 OA
HETATM    4  H   UNL     1      40.911 -10.550   7.900  1.00  0.00     0.190 HD
ENDROOT
BRANCH   1   5
HETATM    5  C   UNL     1      40.020 -11.632   5.727  1.00  0.00     0.077 A 
HETATM    6  S   UNL     1      40.693 -13.245   5.779  1.00  0.00    -0.064 SA
HETATM    7  C   UNL     1      41.382 -13.037   4.277  1.00  0.00     0.113 A 
HETATM    8  N   UNL     1      42.135 -13.725   3.358  1.00  0.00    -0.226 N 
HETATM    9  C   UNL     1      41.137 -11.827   3.767  1.00  0.00     0.027 A 
HETATM   10  N   UNL     1      42.383 -12.904   2.268  1.00  0.00    -0.171 NA
HETATM   11  C   UNL     1      41.759 -11.740   2.535  1.00  0.00     0.064 A 
HETATM   12  C   UNL     1      41.812 -10.612   1.579  1.00  0.00     0.073 C 
HETATM   13  C   UNL     1      40.354 -10.976   4.540  1.00  0.00     0.041 A 
BRANCH   8  14
HETATM   14  C   UNL     1      42.635 -15.060   3.374  1.00  0.00     0.059 A 
HETATM   15  C   UNL     1      42.662 -15.790   2.173  1.00  0.00     0.031 A 
HETATM   16  C   UNL     1      43.130 -17.108   2.150  1.00  0.00     0.002 A 
HETATM   17  C   UNL     1      43.576 -17.710   3.322  1.00  0.00     0.000 A 
HETATM   18  C   UNL     1      43.557 -16.994   4.517  1.00  0.00     0.002 A 
HETATM   19  C   UNL     1      43.089 -15.676   4.546  1.00  0.00     0.031 A 
ENDBRANCH   8  14
ENDBRANCH   1   5
BRANCH   2  20
HETATM   20  N   UNL     1      39.225 -10.162   9.032  1.00  0.00    -0.249 N 
HETATM   21  C   UNL     1      40.029  -9.638  10.035  1.00  0.00     0.339 C 
HETATM   22  N   UNL     1      39.325  -9.405  11.194  1.00  0.00    -0.308 N 
HETATM   23  O   UNL     1      41.217  -9.406   9.829  1.00  0.00    -0.245 OA
HETATM   24  H   UNL     1      38.338  -9.615  11.161  1.00  0.00     0.170 HD
HETATM   25  H   UNL     1      38.417 -10.733   9.264  1.00  0.00     0.192 HD
BRANCH  22  26
HETATM   26  C   UNL     1      39.811  -8.840  12.391  1.00  0.00     0.036 A 
HETATM   27  C   UNL     1      40.703  -9.485  13.252  1.00  0.00     0.031 A 
HETATM   28  C   UNL     1      41.154  -8.852  14.416  1.00  0.00     0.026 A 
HETATM   29  C   UNL     1      40.712  -7.571  14.725  1.00  0.00     0.034 A 
HETATM   30 CL   UNL     1      41.271  -6.792  16.153  1.00  0.00    -0.084 Cl
HETATM   31  C   UNL     1      39.820  -6.916  13.882  1.00  0.00     0.026 A 
HETATM   32  C   UNL     1      39.371  -7.550  12.718  1.00  0.00     0.031 A 
ENDBRANCH  22  26
ENDBRANCH   2  20
TORSDOF 4
ENDMDL
MODEL 5
REMARK VINA RESULT:      -8.1      1.983      3.016
REMARK  4 active torsions:
REMARK  status: ('A' for Active; 'I' for Inactive)
REMARK    1  A    between atoms: N_4  and  C_5 
REMARK    2  A    between atoms: C_14  and  C_15 
REMARK       I    between atoms: C_15  and  N_16 
REMARK    3  A    between atoms: N_16  and  N_17 
REMARK       I    between atoms: N_17  and  C_18 
REMARK       I    between atoms: C_18  and  N_19 
REMARK    4  A    between atoms: N_19  and  C_20 
ROOT
HETATM    1  C   UNL     1      44.106 -11.602   7.650  1.00  0.00     0.277 C 
HETATM    2  N   UNL     1      43.225 -10.777   8.320  1.00  0.00    -0.261 N 
HETATM    3  O   UNL     1      45.323 -11.456   7.757  1.00  0.00    -0.265 OA
HETATM    4  H   UNL     1      42.218 -10.820   8.163  1.00  0.00     0.190 HD
ENDROOT
BRANCH   1   5
HETATM    5  C   UNL     1      43.488 -12.633   6.828  1.00  0.00     0.077 A 
HETATM    6  S   UNL     1      42.646 -12.226   5.350  1.00  0.00    -0.064 SA
HETATM    7  C   UNL     1      42.325 -13.833   5.055  1.00  0.00     0.113 A 
HETATM    8  N   UNL     1      41.718 -14.634   4.120  1.00  0.00    -0.226 N 
HETATM    9  C   UNL     1      42.807 -14.633   6.012  1.00  0.00     0.027 A 
HETATM   10  N   UNL     1      41.805 -15.956   4.528  1.00  0.00    -0.171 NA
HETATM   11  C   UNL     1      42.480 -15.938   5.693  1.00  0.00     0.064 A 
HETATM   12  C   UNL     1      42.759 -17.190   6.430  1.00  0.00     0.073 C 
HETATM   13  C   UNL     1      43.493 -14.012   7.051  1.00  0.00     0.041 A 
BRANCH   8  14
HETATM   14  C   UNL     1      41.083 -14.308   2.885  1.00  0.00     0.059 A 
HETATM   15  C   UNL     1      41.068 -15.264   1.855  1.00  0.00     0.031 A 
HETATM   16  C   UNL     1      40.469 -14.977   0.625  1.00  0.00     0.002 A 
HETATM   17  C   UNL     1      39.879 -13.735   0.410  1.00  0.00     0.000 A 
HETATM   18  C   UNL     1      39.884 -12.782   1.425  1.00  0.00     0.002 A 
HETATM   19  C   UNL     1      40.483 -13.064   2.657  1.00  0.00     0.031 A 
ENDBRANCH   8  14
ENDBRANCH   1   5
BRANCH   2  20
HETATM   20  N   UNL     1      43.695  -9.645   9.005  1.00  0.00    -0.249 N 
HETATM   21  C   UNL     1      42.953  -9.264  10.115  1.00  0.00     0.339 C 
HETATM   22  N   UNL     1      43.408  -8.087  10.663  1.00  0.00    -0.308 N 
HETATM   23  O   UNL     1      42.030  -9.965  10.522  1.00  0.00    -0.245 OA
HETATM   24  H   UNL     1      44.214  -7.674  10.217  1.00  0.00     0.170 HD
HETATM   25  H   UNL     1      44.141  -8.945   8.418  1.00  0.00     0.192 HD
BRANCH  22  26
HETATM   26  C   UNL     1      42.920  -7.436  11.815  1.00  0.00     0.036 A 
HETATM   27  C   UNL     1      42.104  -6.302  11.784  1.00  0.00     0.031 A 
HETATM   28  C   UNL     1      41.646  -5.720  12.971  1.00  0.00     0.026 A 
HETATM   29  C   UNL     1      42.005  -6.269  14.197  1.00  0.00     0.034 A 
HETATM   30 CL   UNL     1      41.437  -5.557  15.656  1.00  0.00    -0.084 Cl
HETATM   31  C   UNL     1      42.822  -7.395  14.247  1.00  0.00     0.026 A 
HETATM   32  C   UNL     1      43.278  -7.976  13.058  1.00  0.00     0.031 A 
ENDBRANCH  22  26
ENDBRANCH   2  20
TORSDOF 4
ENDMDL
MODEL 6
REMARK VINA RESULT:      -8.0      7.562     10.922
REMARK  4 active torsions:
REMARK  status: ('A' for Active; 'I' for Inactive)
REMARK    1  A    between atoms: N_4  and  C_5 
REMARK    2  A    between atoms: C_14  and  C_15 
REMARK       I    between atoms: C_15  and  N_16 
REMARK    3  A    between atoms: N_16  and  N_17 
REMARK       I    between atoms: N_17  and  C_18 
REMARK       I    between atoms: C_18  and  N_19 
REMARK    4  A    between atoms: N_19  and  C_20 
ROOT
HETATM    1  C   UNL     1      40.511 -12.903   0.369  1.00  0.00     0.277 C 
HETATM    2  N   UNL     1      41.330 -12.511  -0.671  1.00  0.00    -0.261 N 
HETATM    3  O   UNL     1      39.311 -12.629   0.373  1.00  0.00    -0.265 OA
HETATM    4  H   UNL     1      42.341 -12.641  -0.641  1.00  0.00     0.190 HD
ENDROOT
BRANCH   1   5
HETATM    5  C   UNL     1      41.170 -13.649   1.432  1.00  0.00     0.077 A 
HETATM    6  S   UNL     1      41.504 -15.357   1.263  1.00  0.00    -0.064 SA
HETATM    7  C   UNL     1      42.234 -15.393   2.759  1.00  0.00     0.113 A 
HETATM    8  N   UNL     1      42.874 -16.269   3.600  1.00  0.00    -0.226 N 
HETATM    9  C   UNL     1      42.220 -14.200   3.361  1.00  0.00     0.027 A 
HETATM   10  N   UNL     1      43.235 -15.602   4.761  1.00  0.00    -0.171 NA
HETATM   11  C   UNL     1      42.828 -14.329   4.597  1.00  0.00     0.064 A 
HETATM   12  C   UNL     1      43.046 -13.318   5.654  1.00  0.00     0.073 C 
HETATM   13  C   UNL     1      41.635 -13.155   2.652  1.00  0.00     0.041 A 
BRANCH   8  14
HETATM   14  C   UNL     1      43.199 -17.648   3.438  1.00  0.00     0.059 A 
HETATM   15  C   UNL     1      43.897 -18.307   4.464  1.00  0.00     0.031 A 
HETATM   16  C   UNL     1      44.248 -19.654   4.336  1.00  0.00     0.002 A 
HETATM   17  C   UNL     1      43.906 -20.358   3.185  1.00  0.00     0.000 A 
HETATM   18  C   UNL     1      43.211 -19.715   2.163  1.00  0.00     0.002 A 
HETATM   19  C   UNL     1      42.859 -18.367   2.286  1.00  0.00     0.031 A 
ENDBRANCH   8  14
ENDBRANCH   1   5
BRANCH   2  20
HETATM   20  N   UNL     1      40.848 -11.644  -1.666  1.00  0.00    -0.249 N 
HETATM   21  C   UNL     1      41.283 -10.329  -1.578  1.00  0.00     0.339 C 
HETATM   22  N   UNL     1      40.681  -9.521  -2.515  1.00  0.00    -0.308 N 
HETATM   23  O   UNL     1      42.134 -10.005  -0.755  1.00  0.00    -0.245 OA
HETATM   24  H   UNL     1      40.037  -9.977  -3.143  1.00  0.00     0.170 HD
HETATM   25  H   UNL     1      39.910 -11.857  -1.999  1.00  0.00     0.192 HD
BRANCH  22  26
HETATM   26  C   UNL     1      40.917  -8.149  -2.739  1.00  0.00     0.036 A 
HETATM   27  C   UNL     1      41.978  -7.655  -3.502  1.00  0.00     0.031 A 
HETATM   28  C   UNL     1      42.139  -6.278  -3.694  1.00  0.00     0.026 A 
HETATM   29  C   UNL     1      41.238  -5.388  -3.119  1.00  0.00     0.034 A 
HETATM   30 CL   UNL     1      41.432  -3.696  -3.360  1.00  0.00    -0.084 Cl
HETATM   31  C   UNL     1      40.179  -5.862  -2.352  1.00  0.00     0.026 A 
HETATM   32  C   UNL     1      40.020  -7.240  -2.163  1.00  0.00     0.031 A 
ENDBRANCH  22  26
ENDBRANCH   2  20
TORSDOF 4
ENDMDL
MODEL 7
REMARK VINA RESULT:      -8.0      7.565     11.362
REMARK  4 active torsions:
REMARK  status: ('A' for Active; 'I' for Inactive)
REMARK    1  A    between atoms: N_4  and  C_5 
REMARK    2  A    between atoms: C_14  and  C_15 
REMARK       I    between atoms: C_15  and  N_16 
REMARK    3  A    between atoms: N_16  and  N_17 
REMARK       I    between atoms: N_17  and  C_18 
REMARK       I    between atoms: C_18  and  N_19 
REMARK    4  A    between atoms: N_19  and  C_20 
ROOT
HETATM    1  C   UNL     1      41.250 -12.686   0.753  1.00  0.00     0.277 C 
HETATM    2  N   UNL     1      40.395 -13.276  -0.156  1.00  0.00    -0.261 N 
HETATM    3  O   UNL     1      41.534 -11.491   0.678  1.00  0.00    -0.265 OA
HETATM    4  H   UNL     1      40.229 -14.283  -0.168  1.00  0.00     0.190 HD
ENDROOT
BRANCH   1   5
HETATM    5  C   UNL     1      41.773 -13.575   1.782  1.00  0.00     0.077 A 
HETATM    6  S   UNL     1      41.979 -15.284   1.477  1.00  0.00    -0.064 SA
HETATM    7  C   UNL     1      42.600 -15.512   3.006  1.00  0.00     0.113 A 
HETATM    8  N   UNL     1      43.109 -16.508   3.800  1.00  0.00    -0.226 N 
HETATM    9  C   UNL     1      42.640 -14.378   3.713  1.00  0.00     0.027 A 
HETATM   10  N   UNL     1      43.442 -15.978   5.038  1.00  0.00    -0.171 NA
HETATM   11  C   UNL     1      43.150 -14.665   4.966  1.00  0.00     0.064 A 
HETATM   12  C   UNL     1      43.376 -13.771   6.123  1.00  0.00     0.073 C 
HETATM   13  C   UNL     1      42.191 -13.230   3.068  1.00  0.00     0.041 A 
BRANCH   8  14
HETATM   14  C   UNL     1      43.333 -17.891   3.533  1.00  0.00     0.059 A 
HETATM   15  C   UNL     1      43.921 -18.690   4.528  1.00  0.00     0.031 A 
HETATM   16  C   UNL     1      44.172 -20.046   4.299  1.00  0.00     0.002 A 
HETATM   17  C   UNL     1      43.837 -20.620   3.076  1.00  0.00     0.000 A 
HETATM   18  C   UNL     1      43.250 -19.838   2.084  1.00  0.00     0.002 A 
HETATM   19  C   UNL     1      42.998 -18.481   2.308  1.00  0.00     0.031 A 
ENDBRANCH   8  14
ENDBRANCH   1   5
BRANCH   2  20
HETATM   20  N   UNL     1      39.962 -12.565  -1.287  1.00  0.00    -0.249 N 
HETATM   21  C   UNL     1      38.689 -12.018  -1.201  1.00  0.00     0.339 C 
HETATM   22  N   UNL     1      38.294 -11.438  -2.385  1.00  0.00    -0.308 N 
HETATM   23  O   UNL     1      38.060 -12.057  -0.147  1.00  0.00    -0.245 OA
HETATM   24  H   UNL     1      38.968 -11.461  -3.135  1.00  0.00     0.170 HD
HETATM   25  H   UNL     1      40.313 -12.919  -2.174  1.00  0.00     0.192 HD
BRANCH  22  26
HETATM   26  C   UNL     1      37.087 -10.754  -2.641  1.00  0.00     0.036 A 
HETATM   27  C   UNL     1      35.958 -11.351  -3.209  1.00  0.00     0.031 A 
HETATM   28  C   UNL     1      34.789 -10.610  -3.418  1.00  0.00     0.026 A 
HETATM   29  C   UNL     1      34.746  -9.267  -3.062  1.00  0.00     0.034 A 
HETATM   30 CL   UNL     1      33.308  -8.358  -3.314  1.00  0.00    -0.084 Cl
HETATM   31  C   UNL     1      35.863  -8.656  -2.499  1.00  0.00     0.026 A 
HETATM   32  C   UNL     1      37.030  -9.399  -2.290  1.00  0.00     0.031 A 
ENDBRANCH  22  26
ENDBRANCH   2  20
TORSDOF 4
ENDMDL
MODEL 8
REMARK VINA RESULT:      -7.9     20.597     22.755
REMARK  4 active torsions:
REMARK  status: ('A' for Active; 'I' for Inactive)
REMARK    1  A    between atoms: N_4  and  C_5 
REMARK    2  A    between atoms: C_14  and  C_15 
REMARK       I    between atoms: C_15  and  N_16 
REMARK    3  A    between atoms: N_16  and  N_17 
REMARK       I    between atoms: N_17  and  C_18 
REMARK       I    between atoms: C_18  and  N_19 
REMARK    4  A    between atoms: N_19  and  C_20 
ROOT
HETATM    1  C   UNL     1      42.416 -30.126   2.778  1.00  0.00     0.277 C 
HETATM    2  N   UNL     1      43.677 -30.142   3.340  1.00  0.00    -0.261 N 
HETATM    3  O   UNL     1      42.190 -29.508   1.738  1.00  0.00    -0.265 OA
HETATM    4  H   UNL     1      43.858 -30.563   4.251  1.00  0.00     0.190 HD
ENDROOT
BRANCH   1   5
HETATM    5  C   UNL     1      41.404 -30.882   3.503  1.00  0.00     0.077 A 
HETATM    6  S   UNL     1      40.210 -31.836   2.653  1.00  0.00    -0.064 SA
HETATM    7  C   UNL     1      39.549 -32.346   4.093  1.00  0.00     0.113 A 
HETATM    8  N   UNL     1      38.549 -33.159   4.566  1.00  0.00    -0.226 N 
HETATM    9  C   UNL     1      40.174 -31.824   5.154  1.00  0.00     0.027 A 
HETATM   10  N   UNL     1      38.541 -33.110   5.952  1.00  0.00    -0.171 NA
HETATM   11  C   UNL     1      39.549 -32.286   6.297  1.00  0.00     0.064 A 
HETATM   12  C   UNL     1      39.839 -31.992   7.718  1.00  0.00     0.073 C 
HETATM   13  C   UNL     1      41.251 -30.986   4.886  1.00  0.00     0.041 A 
BRANCH   8  14
HETATM   14  C   UNL     1      37.613 -33.984   3.875  1.00  0.00     0.059 A 
HETATM   15  C   UNL     1      36.359 -33.450   3.533  1.00  0.00     0.031 A 
HETATM   16  C   UNL     1      35.408 -34.231   2.870  1.00  0.00     0.002 A 
HETATM   17  C   UNL     1      35.699 -35.552   2.540  1.00  0.00     0.000 A 
HETATM   18  C   UNL     1      36.940 -36.090   2.871  1.00  0.00     0.002 A 
HETATM   19  C   UNL     1      37.894 -35.312   3.535  1.00  0.00     0.031 A 
ENDBRANCH   8  14
ENDBRANCH   1   5
BRANCH   2  20
HETATM   20  N   UNL     1      44.692 -29.316   2.829  1.00  0.00    -0.249 N 
HETATM   21  C   UNL     1      45.612 -29.940   1.997  1.00  0.00     0.339 C 
HETATM   22  N   UNL     1      46.635 -29.095   1.631  1.00  0.00    -0.308 N 
HETATM   23  O   UNL     1      45.449 -31.105   1.645  1.00  0.00    -0.245 OA
HETATM   24  H   UNL     1      46.575 -28.151   1.983  1.00  0.00     0.170 HD
HETATM   25  H   UNL     1      44.983 -28.564   3.450  1.00  0.00     0.192 HD
BRANCH  22  26
HETATM   26  C   UNL     1      47.710 -29.381   0.765  1.00  0.00     0.036 A 
HETATM   27  C   UNL     1      48.890 -30.013   1.168  1.00  0.00     0.031 A 
HETATM   28  C   UNL     1      49.908 -30.278   0.245  1.00  0.00     0.026 A 
HETATM   29  C   UNL     1      49.752 -29.908  -1.086  1.00  0.00     0.034 A 
HETATM   30 CL   UNL     1      51.001 -30.238  -2.220  1.00  0.00    -0.084 Cl
HETATM   31  C   UNL     1      48.586 -29.272  -1.503  1.00  0.00     0.026 A 
HETATM   32  C   UNL     1      47.569 -29.009  -0.579  1.00  0.00     0.031 A 
ENDBRANCH  22  26
ENDBRANCH   2  20
TORSDOF 4
ENDMDL
MODEL 9
REMARK VINA RESULT:      -7.9      4.763     10.964
REMARK  4 active torsions:
REMARK  status: ('A' for Active; 'I' for Inactive)
REMARK    1  A    between atoms: N_4  and  C_5 
REMARK    2  A    between atoms: C_14  and  C_15 
REMARK       I    between atoms: C_15  and  N_16 
REMARK    3  A    between atoms: N_16  and  N_17 
REMARK       I    between atoms: N_17  and  C_18 
REMARK       I    between atoms: C_18  and  N_19 
REMARK    4  A    between atoms: N_19  and  C_20 
ROOT
HETATM    1  C   UNL     1      42.682 -11.189   5.548  1.00  0.00     0.277 C 
HETATM    2  N   UNL     1      42.546 -12.560   5.640  1.00  0.00    -0.261 N 
HETATM    3  O   UNL     1      42.752 -10.627   4.456  1.00  0.00    -0.265 OA
HETATM    4  H   UNL     1      42.588 -13.049   6.534  1.00  0.00     0.190 HD
ENDROOT
BRANCH   1   5
HETATM    5  C   UNL     1      42.734 -10.484   6.821  1.00  0.00     0.077 A 
HETATM    6  S   UNL     1      41.403  -9.480   7.351  1.00  0.00    -0.064 SA
HETATM    7  C   UNL     1      42.196  -9.129   8.773  1.00  0.00     0.113 A 
HETATM    8  N   UNL     1      42.014  -8.422   9.935  1.00  0.00    -0.226 N 
HETATM    9  C   UNL     1      43.394  -9.717   8.847  1.00  0.00     0.027 A 
HETATM   10  N   UNL     1      43.143  -8.555  10.729  1.00  0.00    -0.171 NA
HETATM   11  C   UNL     1      43.982  -9.357  10.046  1.00  0.00     0.064 A 
HETATM   12  C   UNL     1      45.307  -9.718  10.596  1.00  0.00     0.073 C 
HETATM   13  C   UNL     1      43.760 -10.515   7.767  1.00  0.00     0.041 A 
BRANCH   8  14
HETATM   14  C   UNL     1      40.905  -7.651  10.394  1.00  0.00     0.059 A 
HETATM   15  C   UNL     1      41.098  -6.291  10.687  1.00  0.00     0.031 A 
HETATM   16  C   UNL     1      40.040  -5.505  11.154  1.00  0.00     0.002 A 
HETATM   17  C   UNL     1      38.780  -6.068  11.333  1.00  0.00     0.000 A 
HETATM   18  C   UNL     1      38.577  -7.415  11.043  1.00  0.00     0.002 A 
HETATM   19  C   UNL     1      39.633  -8.206  10.576  1.00  0.00     0.031 A 
ENDBRANCH   8  14
ENDBRANCH   1   5
BRANCH   2  20
HETATM   20  N   UNL     1      42.655 -13.362   4.492  1.00  0.00    -0.249 N 
HETATM   21  C   UNL     1      42.863 -14.715   4.723  1.00  0.00     0.339 C 
HETATM   22  N   UNL     1      43.072 -15.413   3.555  1.00  0.00    -0.308 N 
HETATM   23  O   UNL     1      42.820 -15.170   5.862  1.00  0.00    -0.245 OA
HETATM   24  H   UNL     1      43.025 -14.874   2.704  1.00  0.00     0.170 HD
HETATM   25  H   UNL     1      43.080 -12.903   3.689  1.00  0.00     0.192 HD
BRANCH  22  26
HETATM   26  C   UNL     1      43.272 -16.802   3.414  1.00  0.00     0.036 A 
HETATM   27  C   UNL     1      42.792 -17.553   2.337  1.00  0.00     0.031 A 
HETATM   28  C   UNL     1      43.045 -18.927   2.258  1.00  0.00     0.026 A 
HETATM   29  C   UNL     1      43.777 -19.557   3.258  1.00  0.00     0.034 A 
HETATM   30 CL   UNL     1      44.092 -21.245   3.158  1.00  0.00    -0.084 Cl
HETATM   31  C   UNL     1      44.257 -18.825   4.340  1.00  0.00     0.026 A 
HETATM   32  C   UNL     1      44.005 -17.451   4.417  1.00  0.00     0.031 A 
ENDBRANCH  22  26
ENDBRANCH   2  20
TORSDOF 4
ENDMDL
MODEL 10
REMARK VINA RESULT:      -7.8      9.093     11.860
REMARK  4 active torsions:
REMARK  status: ('A' for Active; 'I' for Inactive)
REMARK    1  A    between atoms: N_4  and  C_5 
REMARK    2  A    between atoms: C_14  and  C_15 
REMARK       I    between atoms: C_15  and  N_16 
REMARK    3  A    between atoms: N_16  and  N_17 
REMARK       I    between atoms: N_17  and  C_18 
REMARK       I    between atoms: C_18  and  N_19 
REMARK    4  A    between atoms: N_19  and  C_20 
ROOT
HETATM    1  C   UNL     1      40.112 -13.691  -0.310  1.00  0.00     0.277 C 
HETATM    2  N   UNL     1      40.974 -13.742   0.767  1.00  0.00    -0.261 N 
HETATM    3  O   UNL     1      40.160 -14.534  -1.206  1.00  0.00    -0.265 OA
HETATM    4  H   UNL     1      41.015 -12.998   1.463  1.00  0.00     0.190 HD
ENDROOT
BRANCH   1   5
HETATM    5  C   UNL     1      39.165 -12.585  -0.296  1.00  0.00     0.077 A 
HETATM    6  S   UNL     1      38.062 -12.324  -1.628  1.00  0.00    -0.064 SA
HETATM    7  C   UNL     1      37.385 -11.016  -0.850  1.00  0.00     0.113 A 
HETATM    8  N   UNL     1      36.396 -10.081  -1.024  1.00  0.00    -0.226 N 
HETATM    9  C   UNL     1      37.957 -10.776   0.335  1.00  0.00     0.027 A 
HETATM   10  N   UNL     1      36.381  -9.226   0.068  1.00  0.00    -0.171 NA
HETATM   11  C   UNL     1      37.346  -9.670   0.896  1.00  0.00     0.064 A 
HETATM   12  C   UNL     1      37.622  -8.987   2.179  1.00  0.00     0.073 C 
HETATM   13  C   UNL     1      38.976 -11.643   0.717  1.00  0.00     0.041 A 
BRANCH   8  14
HETATM   14  C   UNL     1      35.457  -9.903  -2.082  1.00  0.00     0.059 A 
HETATM   15  C   UNL     1      34.118  -9.621  -1.763  1.00  0.00     0.031 A 
HETATM   16  C   UNL     1      33.164  -9.455  -2.771  1.00  0.00     0.002 A 
HETATM   17  C   UNL     1      33.535  -9.569  -4.107  1.00  0.00     0.000 A 
HETATM   18  C   UNL     1      34.860  -9.844  -4.436  1.00  0.00     0.002 A 
HETATM   19  C   UNL     1      35.818 -10.012  -3.430  1.00  0.00     0.031 A 
ENDBRANCH   8  14
ENDBRANCH   1   5
BRANCH   2  20
HETATM   20  N   UNL     1      42.038 -14.659   0.781  1.00  0.00    -0.249 N 
HETATM   21  C   UNL     1      42.024 -15.578   1.821  1.00  0.00     0.339 C 
HETATM   22  N   UNL     1      43.153 -16.364   1.832  1.00  0.00    -0.308 N 
HETATM   23  O   UNL     1      41.065 -15.645   2.586  1.00  0.00    -0.245 OA
HETATM   24  H   UNL     1      43.816 -16.196   1.091  1.00  0.00     0.170 HD
HETATM   25  H   UNL     1      42.919 -14.297   0.424  1.00  0.00     0.192 HD
BRANCH  22  26
HETATM   26  C   UNL     1      43.449 -17.423   2.716  1.00  0.00     0.036 A 
HETATM   27  C   UNL     1      43.812 -17.244   4.054  1.00  0.00     0.031 A 
HETATM   28  C   UNL     1      44.076 -18.346   4.875  1.00  0.00     0.026 A 
HETATM   29  C   UNL     1      43.980 -19.634   4.359  1.00  0.00     0.034 A 
HETATM   30 CL   UNL     1      44.299 -20.989   5.370  1.00  0.00    -0.084 Cl
HETATM   31  C   UNL     1      43.625 -19.830   3.028  1.00  0.00     0.026 A 
HETATM   32  C   UNL     1      43.361 -18.727   2.209  1.00  0.00     0.031 A 
ENDBRANCH  22  26
ENDBRANCH   2  20
TORSDOF 4
ENDMDL
