MODEL 1
REMARK VINA RESULT:      -8.6      0.000      0.000
REMARK  6 active torsions:
REMARK  status: ('A' for Active; 'I' for Inactive)
REMARK    1  A    between atoms: C_2  and  O_3 
REMARK    2  A    between atoms: C_2  and  C_4 
REMARK    3  A    between atoms: C_6  and  N_7 
REMARK       I    between atoms: N_7  and  C_8 
REMARK    4  A    between atoms: C_8  and  C_9 
REMARK    5  A    between atoms: C_12  and  C_13 
REMARK    6  A    between atoms: C_18  and  C_19 
ROOT
HETATM    1  C   UNL     1      41.977 -12.798   5.462  1.00  0.00     0.096 A 
HETATM    2  C   UNL     1      42.207 -13.431   4.254  1.00  0.00     0.138 A 
HETATM    3  N   UNL     1      40.989 -13.568   3.646  1.00  0.00    -0.240 N 
HETATM    4  C   UNL     1      40.773 -14.249   2.383  1.00  0.00     0.221 C 
HETATM    5  C   UNL     1      42.096 -14.354   1.600  1.00  0.00     0.068 C 
HETATM    6  C   UNL     1      43.313 -14.722   2.469  1.00  0.00     0.143 C 
HETATM    7  N   UNL     1      43.337 -13.872   3.656  1.00  0.00    -0.363 N 
HETATM    8  N   UNL     1      39.985 -12.979   4.314  1.00  0.00    -0.181 NA
HETATM    9  C   UNL     1      40.581 -12.539   5.428  1.00  0.00     0.160 A 
HETATM   10  H   UNL     1      44.209 -13.880   4.194  1.00  0.00     0.162 HD
ENDROOT
BRANCH   1  11
HETATM   11  C   UNL     1      42.993 -12.501   6.470  1.00  0.00     0.261 C 
HETATM   12  N   UNL     1      42.907 -11.229   7.012  1.00  0.00    -0.323 N 
HETATM   13  H   UNL     1      42.174 -10.627   6.668  1.00  0.00     0.169 HD
HETATM   14  O   UNL     1      43.823 -13.348   6.787  1.00  0.00    -0.267 OA
BRANCH  12  15
HETATM   15  C   UNL     1      43.719 -10.661   8.018  1.00  0.00     0.035 A 
HETATM   16  C   UNL     1      43.318 -10.479   9.345  1.00  0.00     0.039 A 
HETATM   17  C   UNL     1      44.180  -9.896  10.294  1.00  0.00    -0.028 A 
HETATM   18  C   UNL     1      45.465  -9.510   9.892  1.00  0.00     0.010 A 
HETATM   19  C   UNL     1      45.876  -9.688   8.574  1.00  0.00     0.003 A 
HETATM   20  C   UNL     1      45.008 -10.261   7.643  1.00  0.00     0.029 A 
BRANCH  17  21
HETATM   21  C   UNL     1      43.716  -9.738  11.725  1.00  0.00     0.147 C 
HETATM   22  C   UNL     1      43.277  -8.307  12.013  1.00  0.00     0.044 C 
BRANCH  21  23
HETATM   23  O   UNL     1      42.627 -10.621  11.988  1.00  0.00    -0.391 OA
HETATM   24  H   UNL     1      42.788 -11.429  11.473  1.00  0.00     0.210 HD
ENDBRANCH  21  23
ENDBRANCH  17  21
ENDBRANCH  12  15
ENDBRANCH   1  11
BRANCH   4  25
HETATM   25  C   UNL     1      40.094 -15.578   2.627  1.00  0.00     0.409 C 
HETATM   26  F   UNL     1      40.488 -16.193   3.759  1.00  0.00    -0.169 F 
HETATM   27  F   UNL     1      38.747 -15.452   2.688  1.00  0.00    -0.169 F 
HETATM   28  F   UNL     1      40.341 -16.430   1.599  1.00  0.00    -0.169 F 
ENDBRANCH   4  25
BRANCH   6  29
HETATM   29  C   UNL     1      43.427 -16.187   2.745  1.00  0.00     0.075 A 
HETATM   30  O   UNL     1      43.636 -16.552   4.044  1.00  0.00    -0.325 OA
HETATM   31  C   UNL     1      43.692 -17.908   4.073  1.00  0.00     0.142 A 
HETATM   32  C   UNL     1      43.511 -18.425   2.812  1.00  0.00     0.027 A 
HETATM   33  C   UNL     1      43.331 -17.316   1.954  1.00  0.00     0.037 A 
ENDBRANCH   6  29
TORSDOF 6
ENDMDL
MODEL 2
REMARK VINA RESULT:      -8.3      2.065      3.202
REMARK  6 active torsions:
REMARK  status: ('A' for Active; 'I' for Inactive)
REMARK    1  A    between atoms: C_2  and  O_3 
REMARK    2  A    between atoms: C_2  and  C_4 
REMARK    3  A    between atoms: C_6  and  N_7 
REMARK       I    between atoms: N_7  and  C_8 
REMARK    4  A    between atoms: C_8  and  C_9 
REMARK    5  A    between atoms: C_12  and  C_13 
REMARK    6  A    between atoms: C_18  and  C_19 
ROOT
HETATM    1  C   UNL     1      43.347 -13.899   6.039  1.00  0.00     0.096 A 
HETATM    2  C   UNL     1      42.336 -14.507   5.315  1.00  0.00     0.138 A 
HETATM    3  N   UNL     1      42.717 -15.807   5.127  1.00  0.00    -0.240 N 
HETATM    4  C   UNL     1      41.969 -16.777   4.349  1.00  0.00     0.221 C 
HETATM    5  C   UNL     1      40.506 -16.321   4.189  1.00  0.00     0.068 C 
HETATM    6  C   UNL     1      40.346 -14.817   3.894  1.00  0.00     0.143 C 
HETATM    7  N   UNL     1      41.158 -14.049   4.834  1.00  0.00    -0.363 N 
HETATM    8  N   UNL     1      43.854 -16.133   5.762  1.00  0.00    -0.181 NA
HETATM    9  C   UNL     1      44.248 -14.968   6.289  1.00  0.00     0.160 A 
HETATM   10  H   UNL     1      40.967 -13.043   4.871  1.00  0.00     0.162 HD
ENDROOT
BRANCH   1  11
HETATM   11  C   UNL     1      43.388 -12.489   6.418  1.00  0.00     0.261 C 
HETATM   12  N   UNL     1      44.276 -12.196   7.440  1.00  0.00    -0.323 N 
HETATM   13  H   UNL     1      44.800 -12.963   7.833  1.00  0.00     0.169 HD
HETATM   14  O   UNL     1      42.685 -11.666   5.837  1.00  0.00    -0.267 OA
BRANCH  12  15
HETATM   15  C   UNL     1      44.561 -10.932   8.002  1.00  0.00     0.035 A 
HETATM   16  C   UNL     1      43.735 -10.273   8.917  1.00  0.00     0.039 A 
HETATM   17  C   UNL     1      44.078  -9.007   9.430  1.00  0.00    -0.028 A 
HETATM   18  C   UNL     1      45.278  -8.415   9.019  1.00  0.00     0.010 A 
HETATM   19  C   UNL     1      46.110  -9.062   8.108  1.00  0.00     0.003 A 
HETATM   20  C   UNL     1      45.753 -10.314   7.604  1.00  0.00     0.029 A 
BRANCH  17  21
HETATM   21  C   UNL     1      43.168  -8.338  10.437  1.00  0.00     0.147 C 
HETATM   22  C   UNL     1      43.620  -8.615  11.865  1.00  0.00     0.044 C 
BRANCH  21  23
HETATM   23  O   UNL     1      43.149  -6.928  10.219  1.00  0.00    -0.391 OA
HETATM   24  H   UNL     1      44.073  -6.644  10.130  1.00  0.00     0.210 HD
ENDBRANCH  21  23
ENDBRANCH  17  21
ENDBRANCH  12  15
ENDBRANCH   1  11
BRANCH   4  25
HETATM   25  C   UNL     1      42.679 -17.042   3.040  1.00  0.00     0.409 C 
HETATM   26  F   UNL     1      43.285 -15.957   2.519  1.00  0.00    -0.169 F 
HETATM   27  F   UNL     1      43.623 -18.005   3.165  1.00  0.00    -0.169 F 
HETATM   28  F   UNL     1      41.801 -17.499   2.111  1.00  0.00    -0.169 F 
ENDBRANCH   4  25
BRANCH   6  29
HETATM   29  C   UNL     1      40.553 -14.467   2.455  1.00  0.00     0.075 A 
HETATM   30  O   UNL     1      41.407 -13.435   2.192  1.00  0.00    -0.325 OA
HETATM   31  C   UNL     1      41.461 -13.297   0.842  1.00  0.00     0.142 A 
HETATM   32  C   UNL     1      40.662 -14.232   0.230  1.00  0.00     0.027 A 
HETATM   33  C   UNL     1      40.081 -14.995   1.269  1.00  0.00     0.037 A 
ENDBRANCH   6  29
TORSDOF 6
ENDMDL
MODEL 3
REMARK VINA RESULT:      -8.0      5.352      8.489
REMARK  6 active torsions:
REMARK  status: ('A' for Active; 'I' for Inactive)
REMARK    1  A    between atoms: C_2  and  O_3 
REMARK    2  A    between atoms: C_2  and  C_4 
REMARK    3  A    between atoms: C_6  and  N_7 
REMARK       I    between atoms: N_7  and  C_8 
REMARK    4  A    between atoms: C_8  and  C_9 
REMARK    5  A    between atoms: C_12  and  C_13 
REMARK    6  A    between atoms: C_18  and  C_19 
ROOT
HETATM    1  C   UNL     1      40.046 -14.401   0.588  1.00  0.00     0.096 A 
HETATM    2  C   UNL     1      39.326 -13.250   0.853  1.00  0.00     0.138 A 
HETATM    3  N   UNL     1      39.178 -12.597  -0.339  1.00  0.00    -0.240 N 
HETATM    4  C   UNL     1      38.541 -11.303  -0.494  1.00  0.00     0.221 C 
HETATM    5  C   UNL     1      37.644 -11.000   0.721  1.00  0.00     0.068 C 
HETATM    6  C   UNL     1      38.269 -11.388   2.075  1.00  0.00     0.143 C 
HETATM    7  N   UNL     1      38.800 -12.746   1.993  1.00  0.00    -0.363 N 
HETATM    8  N   UNL     1      39.656 -13.282  -1.391  1.00  0.00    -0.181 NA
HETATM    9  C   UNL     1      40.208 -14.360  -0.822  1.00  0.00     0.160 A 
HETATM   10  H   UNL     1      39.045 -13.184   2.886  1.00  0.00     0.162 HD
ENDROOT
BRANCH   1  11
HETATM   11  C   UNL     1      40.487 -15.374   1.586  1.00  0.00     0.261 C 
HETATM   12  N   UNL     1      41.833 -15.693   1.518  1.00  0.00    -0.323 N 
HETATM   13  H   UNL     1      42.381 -15.245   0.799  1.00  0.00     0.169 HD
HETATM   14  O   UNL     1      39.694 -15.830   2.404  1.00  0.00    -0.267 OA
BRANCH  12  15
HETATM   15  C   UNL     1      42.557 -16.571   2.356  1.00  0.00     0.035 A 
HETATM   16  C   UNL     1      42.841 -17.903   2.042  1.00  0.00     0.039 A 
HETATM   17  C   UNL     1      43.560 -18.724   2.932  1.00  0.00    -0.028 A 
HETATM   18  C   UNL     1      44.006 -18.180   4.143  1.00  0.00     0.010 A 
HETATM   19  C   UNL     1      43.730 -16.854   4.466  1.00  0.00     0.003 A 
HETATM   20  C   UNL     1      43.009 -16.054   3.576  1.00  0.00     0.029 A 
BRANCH  17  21
HETATM   21  C   UNL     1      43.868 -20.154   2.545  1.00  0.00     0.147 C 
HETATM   22  C   UNL     1      43.857 -21.074   3.759  1.00  0.00     0.044 C 
BRANCH  21  23
HETATM   23  O   UNL     1      42.910 -20.622   1.597  1.00  0.00    -0.391 OA
HETATM   24  H   UNL     1      42.164 -20.983   2.104  1.00  0.00     0.210 HD
ENDBRANCH  21  23
ENDBRANCH  17  21
ENDBRANCH  12  15
ENDBRANCH   1  11
BRANCH   4  25
HETATM   25  C   UNL     1      39.588 -10.245  -0.767  1.00  0.00     0.409 C 
HETATM   26  F   UNL     1      39.258  -9.021  -0.312  1.00  0.00    -0.169 F 
HETATM   27  F   UNL     1      40.784 -10.567  -0.218  1.00  0.00    -0.169 F 
HETATM   28  F   UNL     1      39.809 -10.133  -2.102  1.00  0.00    -0.169 F 
ENDBRANCH   4  25
BRANCH   6  29
HETATM   29  C   UNL     1      39.228 -10.369   2.602  1.00  0.00     0.075 A 
HETATM   30  O   UNL     1      38.758  -9.094   2.727  1.00  0.00    -0.325 OA
HETATM   31  C   UNL     1      39.772  -8.343   3.230  1.00  0.00     0.142 A 
HETATM   32  C   UNL     1      40.887  -9.119   3.441  1.00  0.00     0.027 A 
HETATM   33  C   UNL     1      40.535 -10.430   3.043  1.00  0.00     0.037 A 
ENDBRANCH   6  29
TORSDOF 6
ENDMDL
MODEL 4
REMARK VINA RESULT:      -8.0      2.177      3.522
REMARK  6 active torsions:
REMARK  status: ('A' for Active; 'I' for Inactive)
REMARK    1  A    between atoms: C_2  and  O_3 
REMARK    2  A    between atoms: C_2  and  C_4 
REMARK    3  A    between atoms: C_6  and  N_7 
REMARK       I    between atoms: N_7  and  C_8 
REMARK    4  A    between atoms: C_8  and  C_9 
REMARK    5  A    between atoms: C_12  and  C_13 
REMARK    6  A    between atoms: C_18  and  C_19 
ROOT
HETATM    1  C   UNL     1      42.660 -13.436   5.376  1.00  0.00     0.096 A 
HETATM    2  C   UNL     1      41.677 -13.575   4.413  1.00  0.00     0.138 A 
HETATM    3  N   UNL     1      41.879 -14.790   3.819  1.00  0.00    -0.240 N 
HETATM    4  C   UNL     1      41.106 -15.296   2.700  1.00  0.00     0.221 C 
HETATM    5  C   UNL     1      39.763 -14.548   2.596  1.00  0.00     0.068 C 
HETATM    6  C   UNL     1      39.872 -13.028   2.825  1.00  0.00     0.143 C 
HETATM    7  N   UNL     1      40.656 -12.773   4.030  1.00  0.00    -0.363 N 
HETATM    8  N   UNL     1      42.858 -15.511   4.387  1.00  0.00    -0.181 NA
HETATM    9  C   UNL     1      43.349 -14.676   5.311  1.00  0.00     0.160 A 
HETATM   10  H   UNL     1      40.616 -11.817   4.396  1.00  0.00     0.162 HD
ENDROOT
BRANCH   1  11
HETATM   11  C   UNL     1      42.862 -12.259   6.218  1.00  0.00     0.261 C 
HETATM   12  N   UNL     1      44.062 -12.250   6.910  1.00  0.00    -0.323 N 
HETATM   13  H   UNL     1      44.676 -13.039   6.785  1.00  0.00     0.169 HD
HETATM   14  O   UNL     1      42.015 -11.371   6.263  1.00  0.00    -0.267 OA
BRANCH  12  15
HETATM   15  C   UNL     1      44.554 -11.246   7.774  1.00  0.00     0.035 A 
HETATM   16  C   UNL     1      44.042 -10.983   9.048  1.00  0.00     0.039 A 
HETATM   17  C   UNL     1      44.576  -9.957   9.851  1.00  0.00    -0.028 A 
HETATM   18  C   UNL     1      45.650  -9.204   9.360  1.00  0.00     0.010 A 
HETATM   19  C   UNL     1      46.169  -9.458   8.093  1.00  0.00     0.003 A 
HETATM   20  C   UNL     1      45.624 -10.474   7.305  1.00  0.00     0.029 A 
BRANCH  17  21
HETATM   21  C   UNL     1      44.009  -9.720  11.234  1.00  0.00     0.147 C 
HETATM   22  C   UNL     1      43.377  -8.339  11.346  1.00  0.00     0.044 C 
BRANCH  21  23
HETATM   23  O   UNL     1      43.026 -10.709  11.536  1.00  0.00    -0.391 OA
HETATM   24  H   UNL     1      43.473 -11.571  11.505  1.00  0.00     0.210 HD
ENDBRANCH  21  23
ENDBRANCH  17  21
ENDBRANCH  12  15
ENDBRANCH   1  11
BRANCH   4  25
HETATM   25  C   UNL     1      41.938 -15.249   1.438  1.00  0.00     0.409 C 
HETATM   26  F   UNL     1      41.213 -15.103   0.312  1.00  0.00    -0.169 F 
HETATM   27  F   UNL     1      42.840 -14.239   1.466  1.00  0.00    -0.169 F 
HETATM   28  F   UNL     1      42.661 -16.391   1.306  1.00  0.00    -0.169 F 
ENDBRANCH   4  25
BRANCH   6  29
HETATM   29  C   UNL     1      40.321 -12.275   1.614  1.00  0.00     0.075 A 
HETATM   30  O   UNL     1      39.620 -12.494   0.462  1.00  0.00    -0.325 OA
HETATM   31  C   UNL     1      40.176 -11.710  -0.497  1.00  0.00     0.142 A 
HETATM   32  C   UNL     1      41.218 -10.979   0.021  1.00  0.00     0.027 A 
HETATM   33  C   UNL     1      41.308 -11.336   1.386  1.00  0.00     0.037 A 
ENDBRANCH   6  29
TORSDOF 6
ENDMDL
MODEL 5
REMARK VINA RESULT:      -8.0      4.296      8.215
REMARK  6 active torsions:
REMARK  status: ('A' for Active; 'I' for Inactive)
REMARK    1  A    between atoms: C_2  and  O_3 
REMARK    2  A    between atoms: C_2  and  C_4 
REMARK    3  A    between atoms: C_6  and  N_7 
REMARK       I    between atoms: N_7  and  C_8 
REMARK    4  A    between atoms: C_8  and  C_9 
REMARK    5  A    between atoms: C_12  and  C_13 
REMARK    6  A    between atoms: C_18  and  C_19 
ROOT
HETATM    1  C   UNL     1      40.341 -12.468   3.554  1.00  0.00     0.096 A 
HETATM    2  C   UNL     1      40.525 -13.675   4.206  1.00  0.00     0.138 A 
HETATM    3  N   UNL     1      41.128 -13.388   5.399  1.00  0.00    -0.240 N 
HETATM    4  C   UNL     1      41.564 -14.384   6.360  1.00  0.00     0.221 C 
HETATM    5  C   UNL     1      40.841 -15.721   6.109  1.00  0.00     0.068 C 
HETATM    6  C   UNL     1      40.716 -16.097   4.620  1.00  0.00     0.143 C 
HETATM    7  N   UNL     1      40.217 -14.949   3.869  1.00  0.00    -0.363 N 
HETATM    8  N   UNL     1      41.262 -12.072   5.632  1.00  0.00    -0.181 NA
HETATM    9  C   UNL     1      40.811 -11.519   4.500  1.00  0.00     0.160 A 
HETATM   10  H   UNL     1      39.895 -15.143   2.916  1.00  0.00     0.162 HD
ENDROOT
BRANCH   1  11
HETATM   11  C   UNL     1      39.781 -12.305   2.214  1.00  0.00     0.261 C 
HETATM   12  N   UNL     1      40.646 -12.644   1.187  1.00  0.00    -0.323 N 
HETATM   13  H   UNL     1      41.569 -12.960   1.444  1.00  0.00     0.169 HD
HETATM   14  O   UNL     1      38.628 -11.909   2.064  1.00  0.00    -0.267 OA
BRANCH  12  15
HETATM   15  C   UNL     1      40.390 -12.621  -0.202  1.00  0.00     0.035 A 
HETATM   16  C   UNL     1      39.375 -13.351  -0.827  1.00  0.00     0.039 A 
HETATM   17  C   UNL     1      39.184 -13.287  -2.221  1.00  0.00    -0.028 A 
HETATM   18  C   UNL     1      40.023 -12.463  -2.981  1.00  0.00     0.010 A 
HETATM   19  C   UNL     1      41.036 -11.730  -2.369  1.00  0.00     0.003 A 
HETATM   20  C   UNL     1      41.218 -11.809  -0.986  1.00  0.00     0.029 A 
BRANCH  17  21
HETATM   21  C   UNL     1      38.059 -14.075  -2.857  1.00  0.00     0.147 C 
HETATM   22  C   UNL     1      36.782 -13.248  -2.944  1.00  0.00     0.044 C 
BRANCH  21  23
HETATM   23  O   UNL     1      38.434 -14.494  -4.168  1.00  0.00    -0.391 OA
HETATM   24  H   UNL     1      39.195 -15.090  -4.066  1.00  0.00     0.210 HD
ENDBRANCH  21  23
ENDBRANCH  17  21
ENDBRANCH  12  15
ENDBRANCH   1  11
BRANCH   4  25
HETATM   25  C   UNL     1      43.073 -14.486   6.343  1.00  0.00     0.409 C 
HETATM   26  F   UNL     1      43.693 -13.539   7.074  1.00  0.00    -0.169 F 
HETATM   27  F   UNL     1      43.502 -15.688   6.799  1.00  0.00    -0.169 F 
HETATM   28  F   UNL     1      43.539 -14.382   5.072  1.00  0.00    -0.169 F 
ENDBRANCH   4  25
BRANCH   6  29
HETATM   29  C   UNL     1      41.951 -16.726   4.059  1.00  0.00     0.075 A 
HETATM   30  O   UNL     1      42.653 -17.547   4.894  1.00  0.00    -0.325 OA
HETATM   31  C   UNL     1      43.714 -18.018   4.190  1.00  0.00     0.142 A 
HETATM   32  C   UNL     1      43.701 -17.521   2.908  1.00  0.00     0.027 A 
HETATM   33  C   UNL     1      42.558 -16.693   2.819  1.00  0.00     0.037 A 
ENDBRANCH   6  29
TORSDOF 6
ENDMDL
MODEL 6
REMARK VINA RESULT:      -7.9      4.025      9.287
REMARK  6 active torsions:
REMARK  status: ('A' for Active; 'I' for Inactive)
REMARK    1  A    between atoms: C_2  and  O_3 
REMARK    2  A    between atoms: C_2  and  C_4 
REMARK    3  A    between atoms: C_6  and  N_7 
REMARK       I    between atoms: N_7  and  C_8 
REMARK    4  A    between atoms: C_8  and  C_9 
REMARK    5  A    between atoms: C_12  and  C_13 
REMARK    6  A    between atoms: C_18  and  C_19 
ROOT
HETATM    1  C   UNL     1      43.225 -11.609   6.688  1.00  0.00     0.096 A 
HETATM    2  C   UNL     1      43.215 -10.401   7.362  1.00  0.00     0.138 A 
HETATM    3  N   UNL     1      44.360 -10.360   8.109  1.00  0.00    -0.240 N 
HETATM    4  C   UNL     1      44.705  -9.289   9.026  1.00  0.00     0.221 C 
HETATM    5  C   UNL     1      43.901  -8.019   8.690  1.00  0.00     0.068 C 
HETATM    6  C   UNL     1      42.423  -8.284   8.346  1.00  0.00     0.143 C 
HETATM    7  N   UNL     1      42.338  -9.371   7.374  1.00  0.00    -0.363 N 
HETATM    8  N   UNL     1      45.177 -11.404   7.899  1.00  0.00    -0.181 NA
HETATM    9  C   UNL     1      44.474 -12.173   7.061  1.00  0.00     0.160 A 
HETATM   10  H   UNL     1      41.430  -9.491   6.916  1.00  0.00     0.162 HD
ENDROOT
BRANCH   1  11
HETATM   11  C   UNL     1      42.162 -12.102   5.815  1.00  0.00     0.261 C 
HETATM   12  N   UNL     1      42.526 -13.174   5.018  1.00  0.00    -0.323 N 
HETATM   13  H   UNL     1      43.473 -13.511   5.099  1.00  0.00     0.169 HD
HETATM   14  O   UNL     1      41.049 -11.583   5.834  1.00  0.00    -0.267 OA
BRANCH  12  15
HETATM   15  C   UNL     1      41.719 -13.883   4.100  1.00  0.00     0.035 A 
HETATM   16  C   UNL     1      41.274 -13.365   2.881  1.00  0.00     0.039 A 
HETATM   17  C   UNL     1      40.461 -14.127   2.019  1.00  0.00    -0.028 A 
HETATM   18  C   UNL     1      40.113 -15.430   2.394  1.00  0.00     0.010 A 
HETATM   19  C   UNL     1      40.553 -15.957   3.606  1.00  0.00     0.003 A 
HETATM   20  C   UNL     1      41.352 -15.187   4.454  1.00  0.00     0.029 A 
BRANCH  17  21
HETATM   21  C   UNL     1      40.020 -13.538   0.696  1.00  0.00     0.147 C 
HETATM   22  C   UNL     1      39.845 -14.619  -0.363  1.00  0.00     0.044 C 
BRANCH  21  23
HETATM   23  O   UNL     1      38.786 -12.840   0.859  1.00  0.00    -0.391 OA
HETATM   24  H   UNL     1      38.753 -12.535   1.780  1.00  0.00     0.210 HD
ENDBRANCH  21  23
ENDBRANCH  17  21
ENDBRANCH  12  15
ENDBRANCH   1  11
BRANCH   4  25
HETATM   25  C   UNL     1      44.543  -9.763  10.453  1.00  0.00     0.409 C 
HETATM   26  F   UNL     1      44.304  -8.772  11.333  1.00  0.00    -0.169 F 
HETATM   27  F   UNL     1      43.533 -10.658  10.575  1.00  0.00    -0.169 F 
HETATM   28  F   UNL     1      45.664 -10.408  10.867  1.00  0.00    -0.169 F 
ENDBRANCH   4  25
BRANCH   6  29
HETATM   29  C   UNL     1      41.551  -8.449   9.549  1.00  0.00     0.075 A 
HETATM   30  O   UNL     1      41.681  -7.510  10.532  1.00  0.00    -0.325 OA
HETATM   31  C   UNL     1      40.799  -7.835  11.513  1.00  0.00     0.142 A 
HETATM   32  C   UNL     1      40.095  -8.965  11.172  1.00  0.00     0.027 A 
HETATM   33  C   UNL     1      40.573  -9.359   9.901  1.00  0.00     0.037 A 
ENDBRANCH   6  29
TORSDOF 6
ENDMDL
MODEL 7
REMARK VINA RESULT:      -7.8      1.766      2.189
REMARK  6 active torsions:
REMARK  status: ('A' for Active; 'I' for Inactive)
REMARK    1  A    between atoms: C_2  and  O_3 
REMARK    2  A    between atoms: C_2  and  C_4 
REMARK    3  A    between atoms: C_6  and  N_7 
REMARK       I    between atoms: N_7  and  C_8 
REMARK    4  A    between atoms: C_8  and  C_9 
REMARK    5  A    between atoms: C_12  and  C_13 
REMARK    6  A    between atoms: C_18  and  C_19 
ROOT
HETATM    1  C   UNL     1      40.371 -12.282   4.470  1.00  0.00     0.096 A 
HETATM    2  C   UNL     1      41.288 -13.146   3.899  1.00  0.00     0.138 A 
HETATM    3  N   UNL     1      40.683 -13.689   2.799  1.00  0.00    -0.240 N 
HETATM    4  C   UNL     1      41.278 -14.705   1.951  1.00  0.00     0.221 C 
HETATM    5  C   UNL     1      42.806 -14.731   2.141  1.00  0.00     0.068 C 
HETATM    6  C   UNL     1      43.260 -14.597   3.608  1.00  0.00     0.143 C 
HETATM    7  N   UNL     1      42.556 -13.481   4.233  1.00  0.00    -0.363 N 
HETATM    8  N   UNL     1      39.472 -13.170   2.540  1.00  0.00    -0.181 NA
HETATM    9  C   UNL     1      39.274 -12.340   3.571  1.00  0.00     0.160 A 
HETATM   10  H   UNL     1      42.928 -13.166   5.133  1.00  0.00     0.162 HD
ENDROOT
BRANCH   1  11
HETATM   11  C   UNL     1      40.573 -11.527   5.705  1.00  0.00     0.261 C 
HETATM   12  N   UNL     1      41.734 -10.772   5.731  1.00  0.00    -0.323 N 
HETATM   13  H   UNL     1      42.331 -10.813   4.920  1.00  0.00     0.169 HD
HETATM   14  O   UNL     1      39.744 -11.579   6.610  1.00  0.00    -0.267 OA
BRANCH  12  15
HETATM   15  C   UNL     1      42.189  -9.921   6.763  1.00  0.00     0.035 A 
HETATM   16  C   UNL     1      42.878 -10.358   7.897  1.00  0.00     0.039 A 
HETATM   17  C   UNL     1      43.293  -9.452   8.893  1.00  0.00    -0.028 A 
HETATM   18  C   UNL     1      43.017  -8.090   8.724  1.00  0.00     0.010 A 
HETATM   19  C   UNL     1      42.332  -7.643   7.597  1.00  0.00     0.003 A 
HETATM   20  C   UNL     1      41.921  -8.554   6.622  1.00  0.00     0.029 A 
BRANCH  17  21
HETATM   21  C   UNL     1      44.057  -9.963  10.094  1.00  0.00     0.147 C 
HETATM   22  C   UNL     1      43.918  -9.022  11.284  1.00  0.00     0.044 C 
BRANCH  21  23
HETATM   23  O   UNL     1      43.581 -11.256  10.465  1.00  0.00    -0.391 OA
HETATM   24  H   UNL     1      43.814 -11.385  11.399  1.00  0.00     0.210 HD
ENDBRANCH  21  23
ENDBRANCH  17  21
ENDBRANCH  12  15
ENDBRANCH   1  11
BRANCH   4  25
HETATM   25  C   UNL     1      40.603 -16.037   2.197  1.00  0.00     0.409 C 
HETATM   26  F   UNL     1      41.414 -17.099   2.028  1.00  0.00    -0.169 F 
HETATM   27  F   UNL     1      40.091 -16.119   3.448  1.00  0.00    -0.169 F 
HETATM   28  F   UNL     1      39.551 -16.195   1.353  1.00  0.00    -0.169 F 
ENDBRANCH   4  25
BRANCH   6  29
HETATM   29  C   UNL     1      43.201 -15.882   4.369  1.00  0.00     0.075 A 
HETATM   30  O   UNL     1      43.842 -16.952   3.814  1.00  0.00    -0.325 OA
HETATM   31  C   UNL     1      43.679 -17.999   4.664  1.00  0.00     0.142 A 
HETATM   32  C   UNL     1      42.951 -17.616   5.766  1.00  0.00     0.027 A 
HETATM   33  C   UNL     1      42.648 -16.247   5.581  1.00  0.00     0.037 A 
ENDBRANCH   6  29
TORSDOF 6
ENDMDL
MODEL 8
REMARK VINA RESULT:      -7.6      5.252      7.776
REMARK  6 active torsions:
REMARK  status: ('A' for Active; 'I' for Inactive)
REMARK    1  A    between atoms: C_2  and  O_3 
REMARK    2  A    between atoms: C_2  and  C_4 
REMARK    3  A    between atoms: C_6  and  N_7 
REMARK       I    between atoms: N_7  and  C_8 
REMARK    4  A    between atoms: C_8  and  C_9 
REMARK    5  A    between atoms: C_12  and  C_13 
REMARK    6  A    between atoms: C_18  and  C_19 
ROOT
HETATM    1  C   UNL     1      40.458 -14.202   0.466  1.00  0.00     0.096 A 
HETATM    2  C   UNL     1      39.861 -12.954   0.469  1.00  0.00     0.138 A 
HETATM    3  N   UNL     1      39.017 -12.920  -0.606  1.00  0.00    -0.240 N 
HETATM    4  C   UNL     1      38.247 -11.759  -1.010  1.00  0.00     0.221 C 
HETATM    5  C   UNL     1      38.117 -10.770   0.163  1.00  0.00     0.068 C 
HETATM    6  C   UNL     1      39.414 -10.583   0.974  1.00  0.00     0.143 C 
HETATM    7  N   UNL     1      39.976 -11.891   1.298  1.00  0.00    -0.363 N 
HETATM    8  N   UNL     1      38.932 -14.090  -1.260  1.00  0.00    -0.181 NA
HETATM    9  C   UNL     1      39.828 -14.855  -0.627  1.00  0.00     0.160 A 
HETATM   10  H   UNL     1      40.714 -11.897   2.008  1.00  0.00     0.162 HD
ENDROOT
BRANCH   1  11
HETATM   11  C   UNL     1      41.480 -14.656   1.407  1.00  0.00     0.261 C 
HETATM   12  N   UNL     1      41.300 -15.950   1.867  1.00  0.00    -0.323 N 
HETATM   13  H   UNL     1      40.495 -16.455   1.529  1.00  0.00     0.169 HD
HETATM   14  O   UNL     1      42.410 -13.919   1.721  1.00  0.00    -0.267 OA
BRANCH  12  15
HETATM   15  C   UNL     1      42.127 -16.675   2.754  1.00  0.00     0.035 A 
HETATM   16  C   UNL     1      42.101 -16.537   4.144  1.00  0.00     0.039 A 
HETATM   17  C   UNL     1      42.963 -17.287   4.967  1.00  0.00    -0.028 A 
HETATM   18  C   UNL     1      43.847 -18.194   4.371  1.00  0.00     0.010 A 
HETATM   19  C   UNL     1      43.881 -18.341   2.986  1.00  0.00     0.003 A 
HETATM   20  C   UNL     1      43.024 -17.586   2.183  1.00  0.00     0.029 A 
BRANCH  17  21
HETATM   21  C   UNL     1      42.888 -17.126   6.470  1.00  0.00     0.147 C 
HETATM   22  C   UNL     1      44.187 -16.566   7.035  1.00  0.00     0.044 C 
BRANCH  21  23
HETATM   23  O   UNL     1      41.814 -16.252   6.816  1.00  0.00    -0.391 OA
HETATM   24  H   UNL     1      42.200 -15.513   7.313  1.00  0.00     0.210 HD
ENDBRANCH  21  23
ENDBRANCH  17  21
ENDBRANCH  12  15
ENDBRANCH   1  11
BRANCH   4  25
HETATM   25  C   UNL     1      38.846 -11.156  -2.262  1.00  0.00     0.409 C 
HETATM   26  F   UNL     1      38.669  -9.825  -2.365  1.00  0.00    -0.169 F 
HETATM   27  F   UNL     1      40.177 -11.390  -2.347  1.00  0.00    -0.169 F 
HETATM   28  F   UNL     1      38.297 -11.722  -3.368  1.00  0.00    -0.169 F 
ENDBRANCH   4  25
BRANCH   6  29
HETATM   29  C   UNL     1      40.375  -9.625   0.347  1.00  0.00     0.075 A 
HETATM   30  O   UNL     1      39.909  -8.366   0.098  1.00  0.00    -0.325 OA
HETATM   31  C   UNL     1      40.934  -7.663  -0.451  1.00  0.00     0.142 A 
HETATM   32  C   UNL     1      42.058  -8.448  -0.549  1.00  0.00     0.027 A 
HETATM   33  C   UNL     1      41.702  -9.713  -0.026  1.00  0.00     0.037 A 
ENDBRANCH   6  29
TORSDOF 6
ENDMDL
MODEL 9
REMARK VINA RESULT:      -7.5     17.277     21.146
REMARK  6 active torsions:
REMARK  status: ('A' for Active; 'I' for Inactive)
REMARK    1  A    between atoms: C_2  and  O_3 
REMARK    2  A    between atoms: C_2  and  C_4 
REMARK    3  A    between atoms: C_6  and  N_7 
REMARK       I    between atoms: N_7  and  C_8 
REMARK    4  A    between atoms: C_8  and  C_9 
REMARK    5  A    between atoms: C_12  and  C_13 
REMARK    6  A    between atoms: C_18  and  C_19 
ROOT
HETATM    1  C   UNL     1      49.999 -30.882   0.049  1.00  0.00     0.096 A 
HETATM    2  C   UNL     1      49.011 -29.918   0.133  1.00  0.00     0.138 A 
HETATM    3  N   UNL     1      48.171 -30.305   1.141  1.00  0.00    -0.240 N 
HETATM    4  C   UNL     1      46.956 -29.605   1.512  1.00  0.00     0.221 C 
HETATM    5  C   UNL     1      46.991 -28.157   0.986  1.00  0.00     0.068 C 
HETATM    6  C   UNL     1      47.545 -28.023  -0.445  1.00  0.00     0.143 C 
HETATM    7  N   UNL     1      48.792 -28.775  -0.556  1.00  0.00    -0.363 N 
HETATM    8  N   UNL     1      48.589 -31.398   1.800  1.00  0.00    -0.181 NA
HETATM    9  C   UNL     1      49.680 -31.762   1.117  1.00  0.00     0.160 A 
HETATM   10  H   UNL     1      49.355 -28.586  -1.390  1.00  0.00     0.162 HD
ENDROOT
BRANCH   1  11
HETATM   11  C   UNL     1      51.080 -30.905  -0.934  1.00  0.00     0.261 C 
HETATM   12  N   UNL     1      51.871 -32.042  -0.890  1.00  0.00    -0.323 N 
HETATM   13  H   UNL     1      51.645 -32.737  -0.195  1.00  0.00     0.169 HD
HETATM   14  O   UNL     1      51.225 -29.976  -1.723  1.00  0.00    -0.267 OA
BRANCH  12  15
HETATM   15  C   UNL     1      52.964 -32.367  -1.722  1.00  0.00     0.035 A 
HETATM   16  C   UNL     1      53.043 -32.046  -3.080  1.00  0.00     0.039 A 
HETATM   17  C   UNL     1      54.162 -32.412  -3.853  1.00  0.00    -0.028 A 
HETATM   18  C   UNL     1      55.216 -33.096  -3.234  1.00  0.00     0.010 A 
HETATM   19  C   UNL     1      55.149 -33.420  -1.881  1.00  0.00     0.003 A 
HETATM   20  C   UNL     1      54.030 -33.056  -1.130  1.00  0.00     0.029 A 
BRANCH  17  21
HETATM   21  C   UNL     1      54.218 -32.025  -5.315  1.00  0.00     0.147 C 
HETATM   22  C   UNL     1      52.980 -32.500  -6.064  1.00  0.00     0.044 C 
BRANCH  21  23
HETATM   23  O   UNL     1      54.326 -30.608  -5.442  1.00  0.00    -0.391 OA
HETATM   24  H   UNL     1      53.420 -30.258  -5.474  1.00  0.00     0.210 HD
ENDBRANCH  21  23
ENDBRANCH  17  21
ENDBRANCH  12  15
ENDBRANCH   1  11
BRANCH   4  25
HETATM   25  C   UNL     1      45.749 -30.397   1.058  1.00  0.00     0.409 C 
HETATM   26  F   UNL     1      45.921 -31.025  -0.122  1.00  0.00    -0.169 F 
HETATM   27  F   UNL     1      45.394 -31.339   1.964  1.00  0.00    -0.169 F 
HETATM   28  F   UNL     1      44.672 -29.581   0.926  1.00  0.00    -0.169 F 
ENDBRANCH   4  25
BRANCH   6  29
HETATM   29  C   UNL     1      46.535 -28.322  -1.505  1.00  0.00     0.075 A 
HETATM   30  O   UNL     1      46.924 -29.174  -2.499  1.00  0.00    -0.325 OA
HETATM   31  C   UNL     1      45.865 -29.319  -3.337  1.00  0.00     0.142 A 
HETATM   32  C   UNL     1      44.794 -28.581  -2.892  1.00  0.00     0.027 A 
HETATM   33  C   UNL     1      45.222 -27.943  -1.705  1.00  0.00     0.037 A 
ENDBRANCH   6  29
TORSDOF 6
ENDMDL
MODEL 10
REMARK VINA RESULT:      -7.5     16.862     18.619
REMARK  6 active torsions:
REMARK  status: ('A' for Active; 'I' for Inactive)
REMARK    1  A    between atoms: C_2  and  O_3 
REMARK    2  A    between atoms: C_2  and  C_4 
REMARK    3  A    between atoms: C_6  and  N_7 
REMARK       I    between atoms: N_7  and  C_8 
REMARK    4  A    between atoms: C_8  and  C_9 
REMARK    5  A    between atoms: C_12  and  C_13 
REMARK    6  A    between atoms: C_18  and  C_19 
ROOT
HETATM    1  C   UNL     1      43.994 -29.913   0.260  1.00  0.00     0.096 A 
HETATM    2  C   UNL     1      45.167 -29.255   0.584  1.00  0.00     0.138 A 
HETATM    3  N   UNL     1      46.022 -29.438  -0.468  1.00  0.00    -0.240 N 
HETATM    4  C   UNL     1      47.394 -28.968  -0.503  1.00  0.00     0.221 C 
HETATM    5  C   UNL     1      47.603 -27.851   0.537  1.00  0.00     0.068 C 
HETATM    6  C   UNL     1      46.920 -28.118   1.892  1.00  0.00     0.143 C 
HETATM    7  N   UNL     1      45.538 -28.532   1.666  1.00  0.00    -0.363 N 
HETATM    8  N   UNL     1      45.466 -30.078  -1.509  1.00  0.00    -0.181 NA
HETATM    9  C   UNL     1      44.247 -30.390  -1.053  1.00  0.00     0.160 A 
HETATM   10  H   UNL     1      44.930 -28.531   2.490  1.00  0.00     0.162 HD
ENDROOT
BRANCH   1  11
HETATM   11  C   UNL     1      42.821 -30.030   1.124  1.00  0.00     0.261 C 
HETATM   12  N   UNL     1      42.799 -31.174   1.905  1.00  0.00    -0.323 N 
HETATM   13  H   UNL     1      43.569 -31.817   1.808  1.00  0.00     0.169 HD
HETATM   14  O   UNL     1      41.962 -29.154   1.131  1.00  0.00    -0.267 OA
BRANCH  12  15
HETATM   15  C   UNL     1      41.822 -31.554   2.853  1.00  0.00     0.035 A 
HETATM   16  C   UNL     1      42.004 -31.496   4.237  1.00  0.00     0.039 A 
HETATM   17  C   UNL     1      40.989 -31.902   5.124  1.00  0.00    -0.028 A 
HETATM   18  C   UNL     1      39.773 -32.356   4.597  1.00  0.00     0.010 A 
HETATM   19  C   UNL     1      39.580 -32.417   3.219  1.00  0.00     0.003 A 
HETATM   20  C   UNL     1      40.599 -32.017   2.352  1.00  0.00     0.029 A 
BRANCH  17  21
HETATM   21  C   UNL     1      41.217 -31.802   6.616  1.00  0.00     0.147 C 
HETATM   22  C   UNL     1      41.745 -33.111   7.188  1.00  0.00     0.044 C 
BRANCH  21  23
HETATM   23  O   UNL     1      42.149 -30.760   6.900  1.00  0.00    -0.391 OA
HETATM   24  H   UNL     1      42.749 -30.702   6.138  1.00  0.00     0.210 HD
ENDBRANCH  21  23
ENDBRANCH  17  21
ENDBRANCH  12  15
ENDBRANCH   1  11
BRANCH   4  25
HETATM   25  C   UNL     1      48.341 -30.138  -0.349  1.00  0.00     0.409 C 
HETATM   26  F   UNL     1      47.845 -31.147   0.394  1.00  0.00    -0.169 F 
HETATM   27  F   UNL     1      48.695 -30.661  -1.547  1.00  0.00    -0.169 F 
HETATM   28  F   UNL     1      49.497 -29.736   0.238  1.00  0.00    -0.169 F 
ENDBRANCH   4  25
BRANCH   6  29
HETATM   29  C   UNL     1      47.707 -29.019   2.788  1.00  0.00     0.075 A 
HETATM   30  O   UNL     1      47.132 -30.215   3.111  1.00  0.00    -0.325 OA
HETATM   31  C   UNL     1      48.010 -30.876   3.910  1.00  0.00     0.142 A 
HETATM   32  C   UNL     1      49.148 -30.128   4.097  1.00  0.00     0.027 A 
HETATM   33  C   UNL     1      48.958 -28.932   3.367  1.00  0.00     0.037 A 
ENDBRANCH   6  29
TORSDOF 6
ENDMDL
