MODEL 1
REMARK VINA RESULT:      -9.5      0.000      0.000
REMARK  6 active torsions:
REMARK  status: ('A' for Active; 'I' for Inactive)
REMARK    1  A    between atoms: C_4  and  C_5 
REMARK    2  A    between atoms: C_5  and  N_6 
REMARK    3  A    between atoms: C_9  and  C_10 
REMARK       I    between atoms: C_10  and  N_11 
REMARK    4  A    between atoms: N_11  and  N_12 
REMARK    5  A    between atoms: C_13  and  C_14 
REMARK    6  A    between atoms: C_15  and  O_16 
ROOT
HETATM    1  C   UNL     1      44.264 -11.654   7.530  1.00  0.00     0.271 C 
HETATM    2  N   UNL     1      43.354 -12.701   7.513  1.00  0.00    -0.243 N 
HETATM    3  O   UNL     1      45.344 -11.669   6.947  1.00  0.00    -0.266 OA
HETATM    4  H   UNL     1      42.432 -12.657   7.925  1.00  0.00     0.192 HD
ENDROOT
BRANCH   2   5
HETATM    5  N   UNL     1      43.728 -13.844   6.874  1.00  0.00    -0.183 NA
HETATM    6  C   UNL     1      42.793 -14.578   6.354  1.00  0.00     0.153 C 
BRANCH   6   7
HETATM    7  C   UNL     1      43.124 -15.852   5.660  1.00  0.00     0.027 A 
HETATM    8  C   UNL     1      43.417 -16.994   6.428  1.00  0.00     0.078 A 
HETATM    9  C   UNL     1      43.730 -18.200   5.817  1.00  0.00     0.038 A 
HETATM   10  C   UNL     1      43.750 -18.286   4.429  1.00  0.00     0.015 A 
HETATM   11  C   UNL     1      43.459 -17.171   3.632  1.00  0.00    -0.025 A 
HETATM   12  C   UNL     1      43.137 -15.922   4.232  1.00  0.00    -0.012 A 
HETATM   13  C   UNL     1      43.484 -17.305   2.236  1.00  0.00     0.012 A 
HETATM   14  C   UNL     1      42.848 -14.847   3.347  1.00  0.00     0.013 A 
HETATM   15  C   UNL     1      42.878 -14.999   1.958  1.00  0.00     0.001 A 
HETATM   16  C   UNL     1      43.196 -16.228   1.402  1.00  0.00     0.001 A 
BRANCH   8  17
HETATM   17  O   UNL     1      43.422 -17.021   7.798  1.00  0.00    -0.360 OA
HETATM   18  H   UNL     1      44.059 -16.350   8.129  1.00  0.00     0.217 HD
ENDBRANCH   8  17
ENDBRANCH   6   7
ENDBRANCH   2   5
BRANCH   1  19
HETATM   19  C   UNL     1      43.924 -10.434   8.316  1.00  0.00     0.036 A 
HETATM   20  C   UNL     1      42.939  -9.517   7.955  1.00  0.00     0.034 A 
HETATM   21  C   UNL     1      42.646  -8.458   8.815  1.00  0.00     0.091 A 
HETATM   22  N   UNL     1      43.295  -8.316   9.994  1.00  0.00    -0.362 N 
HETATM   23  C   UNL     1      44.261  -9.190  10.356  1.00  0.00     0.091 A 
HETATM   24  C   UNL     1      44.594 -10.253   9.530  1.00  0.00     0.034 A 
BRANCH  22  25
HETATM   25  C   UNL     1      42.904  -7.227  10.928  1.00  0.00     0.166 C 
BRANCH  25  26
HETATM   26  C   UNL     1      42.394  -7.759  12.241  1.00  0.00    -0.040 A 
HETATM   27  C   UNL     1      43.018  -7.370  13.438  1.00  0.00     0.009 A 
HETATM   28  C   UNL     1      42.529  -7.811  14.669  1.00  0.00     0.001 A 
HETATM   29  C   UNL     1      41.411  -8.636  14.721  1.00  0.00     0.000 A 
HETATM   30  C   UNL     1      40.775  -9.022  13.543  1.00  0.00     0.001 A 
HETATM   31  C   UNL     1      41.259  -8.582  12.309  1.00  0.00     0.009 A 
ENDBRANCH  25  26
ENDBRANCH  22  25
ENDBRANCH   1  19
TORSDOF 6
ENDMDL
MODEL 2
REMARK VINA RESULT:      -9.2      1.951      3.315
REMARK  6 active torsions:
REMARK  status: ('A' for Active; 'I' for Inactive)
REMARK    1  A    between atoms: C_4  and  C_5 
REMARK    2  A    between atoms: C_5  and  N_6 
REMARK    3  A    between atoms: C_9  and  C_10 
REMARK       I    between atoms: C_10  and  N_11 
REMARK    4  A    between atoms: N_11  and  N_12 
REMARK    5  A    between atoms: C_13  and  C_14 
REMARK    6  A    between atoms: C_15  and  O_16 
ROOT
HETATM    1  C   UNL     1      43.471 -12.623   5.545  1.00  0.00     0.271 C 
HETATM    2  N   UNL     1      43.011 -13.857   5.980  1.00  0.00    -0.243 N 
HETATM    3  O   UNL     1      43.642 -12.326   4.366  1.00  0.00    -0.266 OA
HETATM    4  H   UNL     1      42.793 -14.073   6.943  1.00  0.00     0.192 HD
ENDROOT
BRANCH   2   5
HETATM    5  N   UNL     1      42.818 -14.820   5.036  1.00  0.00    -0.183 NA
HETATM    6  C   UNL     1      43.635 -15.828   5.028  1.00  0.00     0.153 C 
BRANCH   6   7
HETATM    7  C   UNL     1      43.499 -16.908   4.014  1.00  0.00     0.027 A 
HETATM    8  C   UNL     1      43.264 -16.560   2.670  1.00  0.00     0.078 A 
HETATM    9  C   UNL     1      43.131 -17.539   1.695  1.00  0.00     0.038 A 
HETATM   10  C   UNL     1      43.237 -18.880   2.045  1.00  0.00     0.015 A 
HETATM   11  C   UNL     1      43.476 -19.264   3.371  1.00  0.00    -0.025 A 
HETATM   12  C   UNL     1      43.614 -18.282   4.391  1.00  0.00    -0.012 A 
HETATM   13  C   UNL     1      43.583 -20.629   3.678  1.00  0.00     0.012 A 
HETATM   14  C   UNL     1      43.861 -18.761   5.706  1.00  0.00     0.013 A 
HETATM   15  C   UNL     1      43.964 -20.125   5.993  1.00  0.00     0.001 A 
HETATM   16  C   UNL     1      43.825 -21.059   4.979  1.00  0.00     0.001 A 
BRANCH   8  17
HETATM   17  O   UNL     1      43.147 -15.272   2.217  1.00  0.00    -0.360 OA
HETATM   18  H   UNL     1      43.994 -15.002   1.798  1.00  0.00     0.217 HD
ENDBRANCH   8  17
ENDBRANCH   6   7
ENDBRANCH   2   5
BRANCH   1  19
HETATM   19  C   UNL     1      43.796 -11.588   6.568  1.00  0.00     0.036 A 
HETATM   20  C   UNL     1      42.889 -10.644   7.046  1.00  0.00     0.034 A 
HETATM   21  C   UNL     1      43.279  -9.781   8.070  1.00  0.00     0.091 A 
HETATM   22  N   UNL     1      44.518  -9.856   8.610  1.00  0.00    -0.362 N 
HETATM   23  C   UNL     1      45.415 -10.758   8.153  1.00  0.00     0.091 A 
HETATM   24  C   UNL     1      45.076 -11.630   7.130  1.00  0.00     0.034 A 
BRANCH  22  25
HETATM   25  C   UNL     1      44.878  -8.980   9.757  1.00  0.00     0.166 C 
BRANCH  25  26
HETATM   26  C   UNL     1      43.980  -9.200  10.945  1.00  0.00    -0.040 A 
HETATM   27  C   UNL     1      43.737 -10.506  11.400  1.00  0.00     0.009 A 
HETATM   28  C   UNL     1      42.949 -10.729  12.532  1.00  0.00     0.001 A 
HETATM   29  C   UNL     1      42.401  -9.653  13.223  1.00  0.00     0.000 A 
HETATM   30  C   UNL     1      42.642  -8.351  12.790  1.00  0.00     0.001 A 
HETATM   31  C   UNL     1      43.431  -8.123  11.661  1.00  0.00     0.009 A 
ENDBRANCH  25  26
ENDBRANCH  22  25
ENDBRANCH   1  19
TORSDOF 6
ENDMDL
MODEL 3
REMARK VINA RESULT:      -8.9      1.941      2.759
REMARK  6 active torsions:
REMARK  status: ('A' for Active; 'I' for Inactive)
REMARK    1  A    between atoms: C_4  and  C_5 
REMARK    2  A    between atoms: C_5  and  N_6 
REMARK    3  A    between atoms: C_9  and  C_10 
REMARK       I    between atoms: C_10  and  N_11 
REMARK    4  A    between atoms: N_11  and  N_12 
REMARK    5  A    between atoms: C_13  and  C_14 
REMARK    6  A    between atoms: C_15  and  O_16 
ROOT
HETATM    1  C   UNL     1      42.540 -11.139   6.394  1.00  0.00     0.271 C 
HETATM    2  N   UNL     1      42.267 -12.495   6.494  1.00  0.00    -0.243 N 
HETATM    3  O   UNL     1      42.446 -10.490   5.356  1.00  0.00    -0.266 OA
HETATM    4  H   UNL     1      42.266 -13.011   7.363  1.00  0.00     0.192 HD
ENDROOT
BRANCH   2   5
HETATM    5  N   UNL     1      41.954 -13.156   5.345  1.00  0.00    -0.183 NA
HETATM    6  C   UNL     1      41.882 -14.450   5.394  1.00  0.00     0.153 C 
BRANCH   6   7
HETATM    7  C   UNL     1      41.566 -15.242   4.174  1.00  0.00     0.027 A 
HETATM    8  C   UNL     1      40.481 -14.850   3.366  1.00  0.00     0.078 A 
HETATM    9  C   UNL     1      40.155 -15.563   2.221  1.00  0.00     0.038 A 
HETATM   10  C   UNL     1      40.909 -16.674   1.861  1.00  0.00     0.015 A 
HETATM   11  C   UNL     1      41.999 -17.089   2.638  1.00  0.00    -0.025 A 
HETATM   12  C   UNL     1      42.355 -16.379   3.818  1.00  0.00    -0.012 A 
HETATM   13  C   UNL     1      42.737 -18.212   2.233  1.00  0.00     0.012 A 
HETATM   14  C   UNL     1      43.477 -16.868   4.541  1.00  0.00     0.013 A 
HETATM   15  C   UNL     1      44.201 -17.988   4.122  1.00  0.00     0.001 A 
HETATM   16  C   UNL     1      43.831 -18.660   2.968  1.00  0.00     0.001 A 
BRANCH   8  17
HETATM   17  O   UNL     1      39.677 -13.772   3.626  1.00  0.00    -0.360 OA
HETATM   18  H   UNL     1      40.217 -13.061   4.036  1.00  0.00     0.217 HD
ENDBRANCH   8  17
ENDBRANCH   6   7
ENDBRANCH   2   5
BRANCH   1  19
HETATM   19  C   UNL     1      42.993 -10.417   7.618  1.00  0.00     0.036 A 
HETATM   20  C   UNL     1      42.394  -9.261   8.113  1.00  0.00     0.034 A 
HETATM   21  C   UNL     1      42.847  -8.721   9.318  1.00  0.00     0.091 A 
HETATM   22  N   UNL     1      43.849  -9.310  10.013  1.00  0.00    -0.362 N 
HETATM   23  C   UNL     1      44.449 -10.426   9.542  1.00  0.00     0.091 A 
HETATM   24  C   UNL     1      44.039 -10.993   8.345  1.00  0.00     0.034 A 
BRANCH  22  25
HETATM   25  C   UNL     1      44.254  -8.760  11.334  1.00  0.00     0.166 C 
BRANCH  25  26
HETATM   26  C   UNL     1      43.127  -8.790  12.332  1.00  0.00    -0.040 A 
HETATM   27  C   UNL     1      42.171  -9.817  12.271  1.00  0.00     0.009 A 
HETATM   28  C   UNL     1      41.148  -9.892  13.219  1.00  0.00     0.001 A 
HETATM   29  C   UNL     1      41.071  -8.950  14.239  1.00  0.00     0.000 A 
HETATM   30  C   UNL     1      42.018  -7.931  14.318  1.00  0.00     0.001 A 
HETATM   31  C   UNL     1      43.045  -7.852  13.375  1.00  0.00     0.009 A 
ENDBRANCH  25  26
ENDBRANCH  22  25
ENDBRANCH   1  19
TORSDOF 6
ENDMDL
MODEL 4
REMARK VINA RESULT:      -8.5      2.164     10.720
REMARK  6 active torsions:
REMARK  status: ('A' for Active; 'I' for Inactive)
REMARK    1  A    between atoms: C_4  and  C_5 
REMARK    2  A    between atoms: C_5  and  N_6 
REMARK    3  A    between atoms: C_9  and  C_10 
REMARK       I    between atoms: C_10  and  N_11 
REMARK    4  A    between atoms: N_11  and  N_12 
REMARK    5  A    between atoms: C_13  and  C_14 
REMARK    6  A    between atoms: C_15  and  O_16 
ROOT
HETATM    1  C   UNL     1      42.661 -11.080   6.227  1.00  0.00     0.271 C 
HETATM    2  N   UNL     1      43.194 -11.104   7.507  1.00  0.00    -0.243 N 
HETATM    3  O   UNL     1      42.389 -10.053   5.612  1.00  0.00    -0.266 OA
HETATM    4  H   UNL     1      43.493 -11.946   7.981  1.00  0.00     0.192 HD
ENDROOT
BRANCH   2   5
HETATM    5  N   UNL     1      43.345  -9.910   8.144  1.00  0.00    -0.183 NA
HETATM    6  C   UNL     1      42.512  -9.625   9.098  1.00  0.00     0.153 C 
BRANCH   6   7
HETATM    7  C   UNL     1      42.601  -8.331   9.825  1.00  0.00     0.027 A 
HETATM    8  C   UNL     1      42.743  -7.140   9.087  1.00  0.00     0.078 A 
HETATM    9  C   UNL     1      42.830  -5.913   9.730  1.00  0.00     0.038 A 
HETATM   10  C   UNL     1      42.772  -5.854  11.117  1.00  0.00     0.015 A 
HETATM   11  C   UNL     1      42.626  -7.018  11.884  1.00  0.00    -0.025 A 
HETATM   12  C   UNL     1      42.536  -8.290  11.252  1.00  0.00    -0.012 A 
HETATM   13  C   UNL     1      42.564  -6.911  13.281  1.00  0.00     0.012 A 
HETATM   14  C   UNL     1      42.384  -9.415  12.107  1.00  0.00     0.013 A 
HETATM   15  C   UNL     1      42.324  -9.290  13.498  1.00  0.00     0.001 A 
HETATM   16  C   UNL     1      42.414  -8.038  14.085  1.00  0.00     0.001 A 
BRANCH   8  17
HETATM   17  O   UNL     1      42.807  -7.083   7.720  1.00  0.00    -0.360 OA
HETATM   18  H   UNL     1      42.412  -6.236   7.416  1.00  0.00     0.217 HD
ENDBRANCH   8  17
ENDBRANCH   6   7
ENDBRANCH   2   5
BRANCH   1  19
HETATM   19  C   UNL     1      42.383 -12.380   5.552  1.00  0.00     0.036 A 
HETATM   20  C   UNL     1      41.381 -13.267   5.939  1.00  0.00     0.034 A 
HETATM   21  C   UNL     1      41.154 -14.413   5.176  1.00  0.00     0.091 A 
HETATM   22  N   UNL     1      41.884 -14.668   4.065  1.00  0.00    -0.362 N 
HETATM   23  C   UNL     1      42.868 -13.824   3.680  1.00  0.00     0.091 A 
HETATM   24  C   UNL     1      43.136 -12.677   4.411  1.00  0.00     0.034 A 
BRANCH  22  25
HETATM   25  C   UNL     1      41.564 -15.853   3.226  1.00  0.00     0.166 C 
BRANCH  25  26
HETATM   26  C   UNL     1      42.513 -16.996   3.469  1.00  0.00    -0.040 A 
HETATM   27  C   UNL     1      42.819 -17.880   2.422  1.00  0.00     0.009 A 
HETATM   28  C   UNL     1      43.737 -18.916   2.612  1.00  0.00     0.001 A 
HETATM   29  C   UNL     1      44.363 -19.076   3.844  1.00  0.00     0.000 A 
HETATM   30  C   UNL     1      44.077 -18.200   4.889  1.00  0.00     0.001 A 
HETATM   31  C   UNL     1      43.162 -17.162   4.703  1.00  0.00     0.009 A 
ENDBRANCH  25  26
ENDBRANCH  22  25
ENDBRANCH   1  19
TORSDOF 6
ENDMDL
MODEL 5
REMARK VINA RESULT:      -8.4      2.195      3.017
REMARK  6 active torsions:
REMARK  status: ('A' for Active; 'I' for Inactive)
REMARK    1  A    between atoms: C_4  and  C_5 
REMARK    2  A    between atoms: C_5  and  N_6 
REMARK    3  A    between atoms: C_9  and  C_10 
REMARK       I    between atoms: C_10  and  N_11 
REMARK    4  A    between atoms: N_11  and  N_12 
REMARK    5  A    between atoms: C_13  and  C_14 
REMARK    6  A    between atoms: C_15  and  O_16 
ROOT
HETATM    1  C   UNL     1      41.542 -10.806   6.232  1.00  0.00     0.271 C 
HETATM    2  N   UNL     1      40.906 -12.036   6.296  1.00  0.00    -0.243 N 
HETATM    3  O   UNL     1      42.153 -10.395   5.249  1.00  0.00    -0.266 OA
HETATM    4  H   UNL     1      40.336 -12.339   7.075  1.00  0.00     0.192 HD
ENDROOT
BRANCH   2   5
HETATM    5  N   UNL     1      41.043 -12.868   5.227  1.00  0.00    -0.183 NA
HETATM    6  C   UNL     1      41.171 -14.138   5.463  1.00  0.00     0.153 C 
BRANCH   6   7
HETATM    7  C   UNL     1      41.347 -15.105   4.346  1.00  0.00     0.027 A 
HETATM    8  C   UNL     1      40.491 -15.026   3.231  1.00  0.00     0.078 A 
HETATM    9  C   UNL     1      40.622 -15.911   2.170  1.00  0.00     0.038 A 
HETATM   10  C   UNL     1      41.614 -16.884   2.202  1.00  0.00     0.015 A 
HETATM   11  C   UNL     1      42.487 -16.990   3.293  1.00  0.00    -0.025 A 
HETATM   12  C   UNL     1      42.374 -16.098   4.396  1.00  0.00    -0.012 A 
HETATM   13  C   UNL     1      43.478 -17.983   3.280  1.00  0.00     0.012 A 
HETATM   14  C   UNL     1      43.305 -16.273   5.455  1.00  0.00     0.013 A 
HETATM   15  C   UNL     1      44.286 -17.269   5.425  1.00  0.00     0.001 A 
HETATM   16  C   UNL     1      44.372 -18.124   4.337  1.00  0.00     0.001 A 
BRANCH   8  17
HETATM   17  O   UNL     1      39.485 -14.104   3.095  1.00  0.00    -0.360 OA
HETATM   18  H   UNL     1      39.437 -13.820   2.156  1.00  0.00     0.217 HD
ENDBRANCH   8  17
ENDBRANCH   6   7
ENDBRANCH   2   5
BRANCH   1  19
HETATM   19  C   UNL     1      41.500  -9.923   7.433  1.00  0.00     0.036 A 
HETATM   20  C   UNL     1      42.628  -9.457   8.104  1.00  0.00     0.034 A 
HETATM   21  C   UNL     1      42.469  -8.563   9.164  1.00  0.00     0.091 A 
HETATM   22  N   UNL     1      41.240  -8.137   9.539  1.00  0.00    -0.362 N 
HETATM   23  C   UNL     1      40.133  -8.586   8.906  1.00  0.00     0.091 A 
HETATM   24  C   UNL     1      40.241  -9.483   7.854  1.00  0.00     0.034 A 
BRANCH  22  25
HETATM   25  C   UNL     1      41.107  -7.119  10.615  1.00  0.00     0.166 C 
BRANCH  25  26
HETATM   26  C   UNL     1      41.449  -7.678  11.971  1.00  0.00    -0.040 A 
HETATM   27  C   UNL     1      42.592  -7.215  12.645  1.00  0.00     0.009 A 
HETATM   28  C   UNL     1      42.898  -7.682  13.925  1.00  0.00     0.001 A 
HETATM   29  C   UNL     1      42.067  -8.607  14.548  1.00  0.00     0.000 A 
HETATM   30  C   UNL     1      40.925  -9.067  13.897  1.00  0.00     0.001 A 
HETATM   31  C   UNL     1      40.613  -8.602  12.617  1.00  0.00     0.009 A 
ENDBRANCH  25  26
ENDBRANCH  22  25
ENDBRANCH   1  19
TORSDOF 6
ENDMDL
MODEL 6
REMARK VINA RESULT:      -8.4      7.290     10.584
REMARK  6 active torsions:
REMARK  status: ('A' for Active; 'I' for Inactive)
REMARK    1  A    between atoms: C_4  and  C_5 
REMARK    2  A    between atoms: C_5  and  N_6 
REMARK    3  A    between atoms: C_9  and  C_10 
REMARK       I    between atoms: C_10  and  N_11 
REMARK    4  A    between atoms: N_11  and  N_12 
REMARK    5  A    between atoms: C_13  and  C_14 
REMARK    6  A    between atoms: C_15  and  O_16 
ROOT
HETATM    1  C   UNL     1      40.677 -13.543   0.824  1.00  0.00     0.271 C 
HETATM    2  N   UNL     1      40.597 -14.924   0.925  1.00  0.00    -0.243 N 
HETATM    3  O   UNL     1      41.254 -12.824   1.635  1.00  0.00    -0.266 OA
HETATM    4  H   UNL     1      40.192 -15.521   0.217  1.00  0.00     0.192 HD
ENDROOT
BRANCH   2   5
HETATM    5  N   UNL     1      41.123 -15.501   2.040  1.00  0.00    -0.183 NA
HETATM    6  C   UNL     1      42.327 -15.980   1.961  1.00  0.00     0.153 C 
BRANCH   6   7
HETATM    7  C   UNL     1      42.960 -16.643   3.132  1.00  0.00     0.027 A 
HETATM    8  C   UNL     1      43.271 -15.874   4.269  1.00  0.00     0.078 A 
HETATM    9  C   UNL     1      43.863 -16.457   5.381  1.00  0.00     0.038 A 
HETATM   10  C   UNL     1      44.149 -17.817   5.378  1.00  0.00     0.015 A 
HETATM   11  C   UNL     1      43.850 -18.615   4.265  1.00  0.00    -0.025 A 
HETATM   12  C   UNL     1      43.245 -18.044   3.111  1.00  0.00    -0.012 A 
HETATM   13  C   UNL     1      44.149 -19.985   4.308  1.00  0.00     0.012 A 
HETATM   14  C   UNL     1      42.971 -18.929   2.033  1.00  0.00     0.013 A 
HETATM   15  C   UNL     1      43.277 -20.291   2.093  1.00  0.00     0.001 A 
HETATM   16  C   UNL     1      43.866 -20.820   3.231  1.00  0.00     0.001 A 
BRANCH   8  17
HETATM   17  O   UNL     1      43.028 -14.530   4.380  1.00  0.00    -0.360 OA
HETATM   18  H   UNL     1      42.138 -14.334   4.013  1.00  0.00     0.217 HD
ENDBRANCH   8  17
ENDBRANCH   6   7
ENDBRANCH   2   5
BRANCH   1  19
HETATM   19  C   UNL     1      40.010 -12.878  -0.333  1.00  0.00     0.036 A 
HETATM   20  C   UNL     1      39.010 -13.464  -1.105  1.00  0.00     0.034 A 
HETATM   21  C   UNL     1      38.395 -12.713  -2.108  1.00  0.00     0.091 A 
HETATM   22  N   UNL     1      38.749 -11.426  -2.331  1.00  0.00    -0.362 N 
HETATM   23  C   UNL     1      39.725 -10.844  -1.599  1.00  0.00     0.091 A 
HETATM   24  C   UNL     1      40.371 -11.553  -0.598  1.00  0.00     0.034 A 
BRANCH  22  25
HETATM   25  C   UNL     1      38.019 -10.625  -3.349  1.00  0.00     0.166 C 
BRANCH  25  26
HETATM   26  C   UNL     1      36.635 -10.248  -2.892  1.00  0.00    -0.040 A 
HETATM   27  C   UNL     1      35.518 -10.702  -3.612  1.00  0.00     0.009 A 
HETATM   28  C   UNL     1      34.224 -10.408  -3.176  1.00  0.00     0.001 A 
HETATM   29  C   UNL     1      34.031  -9.666  -2.015  1.00  0.00     0.000 A 
HETATM   30  C   UNL     1      35.129  -9.218  -1.284  1.00  0.00     0.001 A 
HETATM   31  C   UNL     1      36.425  -9.512  -1.715  1.00  0.00     0.009 A 
ENDBRANCH  25  26
ENDBRANCH  22  25
ENDBRANCH   1  19
TORSDOF 6
ENDMDL
MODEL 7
REMARK VINA RESULT:      -8.4      7.109     10.043
REMARK  6 active torsions:
REMARK  status: ('A' for Active; 'I' for Inactive)
REMARK    1  A    between atoms: C_4  and  C_5 
REMARK    2  A    between atoms: C_5  and  N_6 
REMARK    3  A    between atoms: C_9  and  C_10 
REMARK       I    between atoms: C_10  and  N_11 
REMARK    4  A    between atoms: N_11  and  N_12 
REMARK    5  A    between atoms: C_13  and  C_14 
REMARK    6  A    between atoms: C_15  and  O_16 
ROOT
HETATM    1  C   UNL     1      40.353 -13.605   1.726  1.00  0.00     0.271 C 
HETATM    2  N   UNL     1      41.628 -14.144   1.802  1.00  0.00    -0.243 N 
HETATM    3  O   UNL     1      39.478 -13.779   2.569  1.00  0.00    -0.266 OA
HETATM    4  H   UNL     1      42.372 -13.935   1.149  1.00  0.00     0.192 HD
ENDROOT
BRANCH   2   5
HETATM    5  N   UNL     1      41.890 -14.985   2.841  1.00  0.00    -0.183 NA
HETATM    6  C   UNL     1      42.912 -15.777   2.732  1.00  0.00     0.153 C 
BRANCH   6   7
HETATM    7  C   UNL     1      43.248 -16.738   3.817  1.00  0.00     0.027 A 
HETATM    8  C   UNL     1      43.362 -16.266   5.139  1.00  0.00     0.078 A 
HETATM    9  C   UNL     1      43.674 -17.131   6.178  1.00  0.00     0.038 A 
HETATM   10  C   UNL     1      43.873 -18.482   5.915  1.00  0.00     0.015 A 
HETATM   11  C   UNL     1      43.763 -18.988   4.613  1.00  0.00    -0.025 A 
HETATM   12  C   UNL     1      43.447 -18.124   3.528  1.00  0.00    -0.012 A 
HETATM   13  C   UNL     1      43.965 -20.360   4.395  1.00  0.00     0.012 A 
HETATM   14  C   UNL     1      43.349 -18.725   2.244  1.00  0.00     0.013 A 
HETATM   15  C   UNL     1      43.554 -20.093   2.045  1.00  0.00     0.001 A 
HETATM   16  C   UNL     1      43.862 -20.911   3.121  1.00  0.00     0.001 A 
BRANCH   8  17
HETATM   17  O   UNL     1      43.182 -14.959   5.508  1.00  0.00    -0.360 OA
HETATM   18  H   UNL     1      43.745 -14.386   4.941  1.00  0.00     0.217 HD
ENDBRANCH   8  17
ENDBRANCH   6   7
ENDBRANCH   2   5
BRANCH   1  19
HETATM   19  C   UNL     1      40.007 -12.771   0.539  1.00  0.00     0.036 A 
HETATM   20  C   UNL     1      39.035 -11.773   0.537  1.00  0.00     0.034 A 
HETATM   21  C   UNL     1      38.859 -10.994  -0.607  1.00  0.00     0.091 A 
HETATM   22  N   UNL     1      39.624 -11.189  -1.707  1.00  0.00    -0.362 N 
HETATM   23  C   UNL     1      40.565 -12.159  -1.728  1.00  0.00     0.091 A 
HETATM   24  C   UNL     1      40.770 -12.964  -0.618  1.00  0.00     0.034 A 
BRANCH  22  25
HETATM   25  C   UNL     1      39.472 -10.290  -2.882  1.00  0.00     0.166 C 
BRANCH  25  26
HETATM   26  C   UNL     1      40.625  -9.331  -3.018  1.00  0.00    -0.040 A 
HETATM   27  C   UNL     1      40.885  -8.729  -4.260  1.00  0.00     0.009 A 
HETATM   28  C   UNL     1      41.916  -7.797  -4.396  1.00  0.00     0.001 A 
HETATM   29  C   UNL     1      42.693  -7.452  -3.295  1.00  0.00     0.000 A 
HETATM   30  C   UNL     1      42.441  -8.033  -2.054  1.00  0.00     0.001 A 
HETATM   31  C   UNL     1      41.408  -8.963  -1.913  1.00  0.00     0.009 A 
ENDBRANCH  25  26
ENDBRANCH  22  25
ENDBRANCH   1  19
TORSDOF 6
ENDMDL
MODEL 8
REMARK VINA RESULT:      -8.2      7.096     10.338
REMARK  6 active torsions:
REMARK  status: ('A' for Active; 'I' for Inactive)
REMARK    1  A    between atoms: C_4  and  C_5 
REMARK    2  A    between atoms: C_5  and  N_6 
REMARK    3  A    between atoms: C_9  and  C_10 
REMARK       I    between atoms: C_10  and  N_11 
REMARK    4  A    between atoms: N_11  and  N_12 
REMARK    5  A    between atoms: C_13  and  C_14 
REMARK    6  A    between atoms: C_15  and  O_16 
ROOT
HETATM    1  C   UNL     1      40.563 -14.731   1.193  1.00  0.00     0.271 C 
HETATM    2  N   UNL     1      41.376 -14.329   2.241  1.00  0.00    -0.243 N 
HETATM    3  O   UNL     1      40.022 -15.831   1.121  1.00  0.00    -0.266 OA
HETATM    4  H   UNL     1      41.756 -13.397   2.339  1.00  0.00     0.192 HD
ENDROOT
BRANCH   2   5
HETATM    5  N   UNL     1      41.653 -15.249   3.206  1.00  0.00    -0.183 NA
HETATM    6  C   UNL     1      42.803 -15.848   3.157  1.00  0.00     0.153 C 
BRANCH   6   7
HETATM    7  C   UNL     1      43.168 -16.880   4.164  1.00  0.00     0.027 A 
HETATM    8  C   UNL     1      43.262 -16.510   5.520  1.00  0.00     0.078 A 
HETATM    9  C   UNL     1      43.600 -17.444   6.489  1.00  0.00     0.038 A 
HETATM   10  C   UNL     1      43.843 -18.763   6.123  1.00  0.00     0.015 A 
HETATM   11  C   UNL     1      43.754 -19.168   4.784  1.00  0.00    -0.025 A 
HETATM   12  C   UNL     1      43.412 -18.232   3.769  1.00  0.00    -0.012 A 
HETATM   13  C   UNL     1      44.001 -20.511   4.460  1.00  0.00     0.012 A 
HETATM   14  C   UNL     1      43.338 -18.732   2.441  1.00  0.00     0.013 A 
HETATM   15  C   UNL     1      43.587 -20.074   2.137  1.00  0.00     0.001 A 
HETATM   16  C   UNL     1      43.918 -20.963   3.147  1.00  0.00     0.001 A 
BRANCH   8  17
HETATM   17  O   UNL     1      43.039 -15.242   5.989  1.00  0.00    -0.360 OA
HETATM   18  H   UNL     1      43.902 -14.827   6.212  1.00  0.00     0.217 HD
ENDBRANCH   8  17
ENDBRANCH   6   7
ENDBRANCH   2   5
BRANCH   1  19
HETATM   19  C   UNL     1      40.335 -13.779   0.068  1.00  0.00     0.036 A 
HETATM   20  C   UNL     1      40.896 -12.507  -0.009  1.00  0.00     0.034 A 
HETATM   21  C   UNL     1      40.685 -11.737  -1.153  1.00  0.00     0.091 A 
HETATM   22  N   UNL     1      39.954 -12.212  -2.189  1.00  0.00    -0.362 N 
HETATM   23  C   UNL     1      39.392 -13.441  -2.128  1.00  0.00     0.091 A 
HETATM   24  C   UNL     1      39.567 -14.238  -1.007  1.00  0.00     0.034 A 
BRANCH  22  25
HETATM   25  C   UNL     1      39.815 -11.403  -3.429  1.00  0.00     0.166 C 
BRANCH  25  26
HETATM   26  C   UNL     1      38.971 -10.175  -3.216  1.00  0.00    -0.040 A 
HETATM   27  C   UNL     1      37.616 -10.313  -2.874  1.00  0.00     0.009 A 
HETATM   28  C   UNL     1      36.829  -9.188  -2.622  1.00  0.00     0.001 A 
HETATM   29  C   UNL     1      37.385  -7.915  -2.700  1.00  0.00     0.000 A 
HETATM   30  C   UNL     1      38.731  -7.762  -3.028  1.00  0.00     0.001 A 
HETATM   31  C   UNL     1      39.523  -8.885  -3.279  1.00  0.00     0.009 A 
ENDBRANCH  25  26
ENDBRANCH  22  25
ENDBRANCH   1  19
TORSDOF 6
ENDMDL
MODEL 9
REMARK VINA RESULT:      -8.2      7.257     10.857
REMARK  6 active torsions:
REMARK  status: ('A' for Active; 'I' for Inactive)
REMARK    1  A    between atoms: C_4  and  C_5 
REMARK    2  A    between atoms: C_5  and  N_6 
REMARK    3  A    between atoms: C_9  and  C_10 
REMARK       I    between atoms: C_10  and  N_11 
REMARK    4  A    between atoms: N_11  and  N_12 
REMARK    5  A    between atoms: C_13  and  C_14 
REMARK    6  A    between atoms: C_15  and  O_16 
ROOT
HETATM    1  C   UNL     1      40.177 -13.754   2.400  1.00  0.00     0.271 C 
HETATM    2  N   UNL     1      39.997 -14.102   1.070  1.00  0.00    -0.243 N 
HETATM    3  O   UNL     1      39.670 -12.770   2.931  1.00  0.00    -0.266 OA
HETATM    4  H   UNL     1      40.349 -14.954   0.654  1.00  0.00     0.192 HD
ENDROOT
BRANCH   2   5
HETATM    5  N   UNL     1      39.278 -13.246   0.292  1.00  0.00    -0.183 NA
HETATM    6  C   UNL     1      39.843 -12.790  -0.784  1.00  0.00     0.153 C 
BRANCH   6   7
HETATM    7  C   UNL     1      39.127 -11.835  -1.672  1.00  0.00     0.027 A 
HETATM    8  C   UNL     1      37.829 -12.154  -2.116  1.00  0.00     0.078 A 
HETATM    9  C   UNL     1      37.129 -11.290  -2.946  1.00  0.00     0.038 A 
HETATM   10  C   UNL     1      37.711 -10.091  -3.342  1.00  0.00     0.015 A 
HETATM   11  C   UNL     1      38.999  -9.738  -2.916  1.00  0.00    -0.025 A 
HETATM   12  C   UNL     1      39.740 -10.606  -2.067  1.00  0.00    -0.012 A 
HETATM   13  C   UNL     1      39.544  -8.514  -3.334  1.00  0.00     0.012 A 
HETATM   14  C   UNL     1      41.034 -10.164  -1.679  1.00  0.00     0.013 A 
HETATM   15  C   UNL     1      41.562  -8.942  -2.106  1.00  0.00     0.001 A 
HETATM   16  C   UNL     1      40.816  -8.117  -2.933  1.00  0.00     0.001 A 
BRANCH   8  17
HETATM   17  O   UNL     1      37.162 -13.304  -1.784  1.00  0.00    -0.360 OA
HETATM   18  H   UNL     1      37.679 -13.788  -1.102  1.00  0.00     0.217 HD
ENDBRANCH   8  17
ENDBRANCH   6   7
ENDBRANCH   2   5
BRANCH   1  19
HETATM   19  C   UNL     1      41.052 -14.617   3.245  1.00  0.00     0.036 A 
HETATM   20  C   UNL     1      40.615 -15.751   3.926  1.00  0.00     0.034 A 
HETATM   21  C   UNL     1      41.544 -16.532   4.614  1.00  0.00     0.091 A 
HETATM   22  N   UNL     1      42.859 -16.210   4.620  1.00  0.00    -0.362 N 
HETATM   23  C   UNL     1      43.300 -15.108   3.974  1.00  0.00     0.091 A 
HETATM   24  C   UNL     1      42.413 -14.295   3.284  1.00  0.00     0.034 A 
BRANCH  22  25
HETATM   25  C   UNL     1      43.836 -17.107   5.292  1.00  0.00     0.166 C 
BRANCH  25  26
HETATM   26  C   UNL     1      43.893 -18.469   4.651  1.00  0.00    -0.040 A 
HETATM   27  C   UNL     1      43.928 -19.616   5.460  1.00  0.00     0.009 A 
HETATM   28  C   UNL     1      43.928 -20.890   4.886  1.00  0.00     0.001 A 
HETATM   29  C   UNL     1      43.886 -21.032   3.503  1.00  0.00     0.000 A 
HETATM   30  C   UNL     1      43.840 -19.903   2.688  1.00  0.00     0.001 A 
HETATM   31  C   UNL     1      43.837 -18.627   3.257  1.00  0.00     0.009 A 
ENDBRANCH  25  26
ENDBRANCH  22  25
ENDBRANCH   1  19
TORSDOF 6
ENDMDL
MODEL 10
REMARK VINA RESULT:      -8.1      2.385     10.471
REMARK  6 active torsions:
REMARK  status: ('A' for Active; 'I' for Inactive)
REMARK    1  A    between atoms: C_4  and  C_5 
REMARK    2  A    between atoms: C_5  and  N_6 
REMARK    3  A    between atoms: C_9  and  C_10 
REMARK       I    between atoms: C_10  and  N_11 
REMARK    4  A    between atoms: N_11  and  N_12 
REMARK    5  A    between atoms: C_13  and  C_14 
REMARK    6  A    between atoms: C_15  and  O_16 
ROOT
HETATM    1  C   UNL     1      41.805 -10.385   6.789  1.00  0.00     0.271 C 
HETATM    2  N   UNL     1      42.729 -10.349   7.821  1.00  0.00    -0.243 N 
HETATM    3  O   UNL     1      40.708  -9.835   6.824  1.00  0.00    -0.266 OA
HETATM    4  H   UNL     1      43.663 -10.733   7.760  1.00  0.00     0.192 HD
ENDROOT
BRANCH   2   5
HETATM    5  N   UNL     1      42.354  -9.731   8.975  1.00  0.00    -0.183 NA
HETATM    6  C   UNL     1      43.272  -9.500   9.862  1.00  0.00     0.153 C 
BRANCH   6   7
HETATM    7  C   UNL     1      42.934  -8.847  11.156  1.00  0.00     0.027 A 
HETATM    8  C   UNL     1      42.804  -9.643  12.310  1.00  0.00     0.078 A 
HETATM    9  C   UNL     1      42.488  -9.071  13.535  1.00  0.00     0.038 A 
HETATM   10  C   UNL     1      42.303  -7.697  13.628  1.00  0.00     0.015 A 
HETATM   11  C   UNL     1      42.430  -6.873  12.501  1.00  0.00    -0.025 A 
HETATM   12  C   UNL     1      42.750  -7.432  11.233  1.00  0.00    -0.012 A 
HETATM   13  C   UNL     1      42.241  -5.490  12.643  1.00  0.00     0.012 A 
HETATM   14  C   UNL     1      42.864  -6.522  10.147  1.00  0.00     0.013 A 
HETATM   15  C   UNL     1      42.673  -5.146  10.307  1.00  0.00     0.001 A 
HETATM   16  C   UNL     1      42.362  -4.630  11.555  1.00  0.00     0.001 A 
BRANCH   8  17
HETATM   17  O   UNL     1      42.969 -11.003  12.331  1.00  0.00    -0.360 OA
HETATM   18  H   UNL     1      42.526 -11.391  11.544  1.00  0.00     0.217 HD
ENDBRANCH   8  17
ENDBRANCH   6   7
ENDBRANCH   2   5
BRANCH   1  19
HETATM   19  C   UNL     1      42.150 -11.151   5.557  1.00  0.00     0.036 A 
HETATM   20  C   UNL     1      43.417 -11.178   4.978  1.00  0.00     0.034 A 
HETATM   21  C   UNL     1      43.645 -12.003   3.876  1.00  0.00     0.091 A 
HETATM   22  N   UNL     1      42.659 -12.780   3.370  1.00  0.00    -0.362 N 
HETATM   23  C   UNL     1      41.420 -12.759   3.911  1.00  0.00     0.091 A 
HETATM   24  C   UNL     1      41.144 -11.949   5.002  1.00  0.00     0.034 A 
BRANCH  22  25
HETATM   25  C   UNL     1      42.953 -13.711   2.248  1.00  0.00     0.166 C 
BRANCH  25  26
HETATM   26  C   UNL     1      43.064 -15.140   2.708  1.00  0.00    -0.040 A 
HETATM   27  C   UNL     1      43.081 -16.176   1.760  1.00  0.00     0.009 A 
HETATM   28  C   UNL     1      43.235 -17.504   2.162  1.00  0.00     0.001 A 
HETATM   29  C   UNL     1      43.379 -17.813   3.511  1.00  0.00     0.000 A 
HETATM   30  C   UNL     1      43.374 -16.795   4.462  1.00  0.00     0.001 A 
HETATM   31  C   UNL     1      43.223 -15.465   4.065  1.00  0.00     0.009 A 
ENDBRANCH  25  26
ENDBRANCH  22  25
ENDBRANCH   1  19
TORSDOF 6
ENDMDL
