MODEL 1
REMARK VINA RESULT:      -9.0      0.000      0.000
REMARK  9 active torsions:
REMARK  status: ('A' for Active; 'I' for Inactive)
REMARK    1  A    between atoms: C_4  and  C_5 
REMARK    2  A    between atoms: C_8  and  C_9 
REMARK       I    between atoms: C_9  and  N_10 
REMARK    3  A    between atoms: N_10  and  C_11 
REMARK    4  A    between atoms: N_10  and  C_26 
REMARK    5  A    between atoms: C_11  and  C_12 
REMARK    6  A    between atoms: C_11  and  C_21 
REMARK       I    between atoms: C_12  and  N_13 
REMARK    7  A    between atoms: N_13  and  C_14 
REMARK    8  A    between atoms: C_14  and  C_15 
REMARK    9  A    between atoms: C_26  and  C_27 
ROOT
HETATM    1  C   UNL     1      43.236 -13.975   6.575  1.00  0.00     0.271 C 
HETATM    2  N   UNL     1      42.532 -13.317   5.560  1.00  0.00    -0.324 N 
HETATM    3  O   UNL     1      43.735 -13.345   7.509  1.00  0.00    -0.266 OA
ENDROOT
BRANCH   2   4
HETATM    4  C   UNL     1      42.605 -11.838   5.458  1.00  0.00     0.220 C 
BRANCH   4   5
HETATM    5  C   UNL     1      44.002 -11.222   5.783  1.00  0.00     0.245 C 
HETATM    6  N   UNL     1      44.132 -10.614   7.011  1.00  0.00    -0.357 N 
HETATM    7  H   UNL     1      43.436 -10.870   7.712  1.00  0.00     0.162 HD
HETATM    8  O   UNL     1      44.963 -11.363   5.024  1.00  0.00    -0.271 OA
BRANCH   6   9
HETATM    9  C   UNL     1      45.392 -10.096   7.511  1.00  0.00     0.154 C 
BRANCH   9  10
HETATM   10  C   UNL     1      45.262  -9.273   8.795  1.00  0.00     0.139 C 
HETATM   11  O   UNL     1      44.174  -8.329   8.707  1.00  0.00    -0.384 OA
HETATM   12  C   UNL     1      43.615  -8.170  10.020  1.00  0.00     0.168 C 
HETATM   13  C   UNL     1      44.359  -9.108  10.951  1.00  0.00     0.029 C 
HETATM   14  C   UNL     1      44.931 -10.131  10.004  1.00  0.00     0.035 C 
ENDBRANCH   9  10
ENDBRANCH   6   9
ENDBRANCH   4   5
BRANCH   4  15
HETATM   15  C   UNL     1      42.045 -11.266   4.159  1.00  0.00     0.014 A 
HETATM   16  S   UNL     1      40.522 -10.458   4.114  1.00  0.00    -0.104 SA
HETATM   17  C   UNL     1      40.662 -10.106   2.451  1.00  0.00     0.050 A 
HETATM   18  C   UNL     1      41.854 -10.549   1.931  1.00  0.00     0.008 A 
HETATM   19  C   UNL     1      42.650 -11.209   2.910  1.00  0.00     0.017 A 
ENDBRANCH   4  15
ENDBRANCH   2   4
BRANCH   2  20
HETATM   20  C   UNL     1      41.296 -13.911   5.042  1.00  0.00     0.173 C 
BRANCH  20  21
HETATM   21  C   UNL     1      41.418 -14.303   3.592  1.00  0.00     0.000 A 
HETATM   22  S   UNL     1      40.024 -14.164   2.592  1.00  0.00    -0.105 SA
HETATM   23  C   UNL     1      40.862 -14.738   1.219  1.00  0.00     0.050 A 
HETATM   24  C   UNL     1      42.177 -15.023   1.500  1.00  0.00     0.008 A 
HETATM   25  C   UNL     1      42.499 -14.764   2.863  1.00  0.00     0.017 A 
ENDBRANCH  20  21
ENDBRANCH   2  20
BRANCH   1  26
HETATM   26  C   UNL     1      43.329 -15.419   6.518  1.00  0.00     0.101 A 
HETATM   27  N   UNL     1      43.435 -16.180   5.375  1.00  0.00    -0.351 N 
HETATM   28  C   UNL     1      43.533 -17.522   5.676  1.00  0.00     0.043 A 
HETATM   29  H   UNL     1      43.475 -15.800   4.439  1.00  0.00     0.166 HD
HETATM   30  C   UNL     1      43.530 -17.609   7.057  1.00  0.00     0.033 A 
HETATM   31  C   UNL     1      43.423 -16.301   7.581  1.00  0.00     0.037 A 
BRANCH  28  32
HETATM   32  C   UNL     1      43.661 -18.570   4.656  1.00  0.00    -0.009 A 
HETATM   33  C   UNL     1      43.921 -19.895   5.033  1.00  0.00     0.013 A 
HETATM   34  C   UNL     1      44.041 -20.904   4.074  1.00  0.00     0.001 A 
HETATM   35  C   UNL     1      43.902 -20.600   2.722  1.00  0.00     0.000 A 
HETATM   36  C   UNL     1      43.641 -19.289   2.331  1.00  0.00     0.001 A 
HETATM   37  C   UNL     1      43.522 -18.281   3.292  1.00  0.00     0.013 A 
ENDBRANCH  28  32
ENDBRANCH   1  26
TORSDOF 9
ENDMDL
MODEL 2
REMARK VINA RESULT:      -9.0      1.789      2.514
REMARK  9 active torsions:
REMARK  status: ('A' for Active; 'I' for Inactive)
REMARK    1  A    between atoms: C_4  and  C_5 
REMARK    2  A    between atoms: C_8  and  C_9 
REMARK       I    between atoms: C_9  and  N_10 
REMARK    3  A    between atoms: N_10  and  C_11 
REMARK    4  A    between atoms: N_10  and  C_26 
REMARK    5  A    between atoms: C_11  and  C_12 
REMARK    6  A    between atoms: C_11  and  C_21 
REMARK       I    between atoms: C_12  and  N_13 
REMARK    7  A    between atoms: N_13  and  C_14 
REMARK    8  A    between atoms: C_14  and  C_15 
REMARK    9  A    between atoms: C_26  and  C_27 
ROOT
HETATM    1  C   UNL     1      41.075 -13.813   5.948  1.00  0.00     0.271 C 
HETATM    2  N   UNL     1      41.284 -12.572   5.336  1.00  0.00    -0.324 N 
HETATM    3  O   UNL     1      40.010 -14.067   6.514  1.00  0.00    -0.266 OA
ENDROOT
BRANCH   2   4
HETATM    4  C   UNL     1      40.334 -11.460   5.591  1.00  0.00     0.220 C 
BRANCH   4   5
HETATM    5  C   UNL     1      40.686 -10.558   6.816  1.00  0.00     0.245 C 
HETATM    6  N   UNL     1      42.003 -10.558   7.217  1.00  0.00    -0.357 N 
HETATM    7  H   UNL     1      42.680 -10.888   6.528  1.00  0.00     0.162 HD
HETATM    8  O   UNL     1      39.852  -9.810   7.329  1.00  0.00    -0.271 OA
BRANCH   6   9
HETATM    9  C   UNL     1      42.514  -9.690   8.262  1.00  0.00     0.154 C 
BRANCH   9  10
HETATM   10  C   UNL     1      43.990  -9.922   8.598  1.00  0.00     0.139 C 
HETATM   11  O   UNL     1      44.585 -10.890   7.710  1.00  0.00    -0.384 OA
HETATM   12  C   UNL     1      45.964 -10.536   7.524  1.00  0.00     0.168 C 
HETATM   13  C   UNL     1      46.213  -9.250   8.289  1.00  0.00     0.029 C 
HETATM   14  C   UNL     1      44.829  -8.668   8.420  1.00  0.00     0.035 C 
ENDBRANCH   9  10
ENDBRANCH   6   9
ENDBRANCH   4   5
BRANCH   4  15
HETATM   15  C   UNL     1      40.010 -10.612   4.365  1.00  0.00     0.014 A 
HETATM   16  S   UNL     1      41.070  -9.360   3.830  1.00  0.00    -0.104 SA
HETATM   17  C   UNL     1      40.087  -8.985   2.488  1.00  0.00     0.050 A 
HETATM   18  C   UNL     1      38.992  -9.810   2.406  1.00  0.00     0.008 A 
HETATM   19  C   UNL     1      38.950 -10.746   3.478  1.00  0.00     0.017 A 
ENDBRANCH   4  15
ENDBRANCH   2   4
BRANCH   2  20
HETATM   20  C   UNL     1      41.966 -12.515   4.040  1.00  0.00     0.173 C 
BRANCH  20  21
HETATM   21  C   UNL     1      41.413 -13.518   3.062  1.00  0.00     0.000 A 
HETATM   22  S   UNL     1      42.513 -14.313   2.004  1.00  0.00    -0.105 SA
HETATM   23  C   UNL     1      41.264 -15.212   1.262  1.00  0.00     0.050 A 
HETATM   24  C   UNL     1      40.033 -14.929   1.806  1.00  0.00     0.008 A 
HETATM   25  C   UNL     1      40.121 -13.962   2.848  1.00  0.00     0.017 A 
ENDBRANCH  20  21
ENDBRANCH   2  20
BRANCH   1  26
HETATM   26  C   UNL     1      42.127 -14.804   5.863  1.00  0.00     0.101 A 
HETATM   27  N   UNL     1      42.077 -15.979   5.147  1.00  0.00    -0.351 N 
HETATM   28  C   UNL     1      43.258 -16.682   5.257  1.00  0.00     0.043 A 
HETATM   29  H   UNL     1      41.290 -16.270   4.583  1.00  0.00     0.166 HD
HETATM   30  C   UNL     1      44.098 -15.905   6.036  1.00  0.00     0.033 A 
HETATM   31  C   UNL     1      43.401 -14.729   6.397  1.00  0.00     0.037 A 
BRANCH  28  32
HETATM   32  C   UNL     1      43.495 -17.971   4.597  1.00  0.00    -0.009 A 
HETATM   33  C   UNL     1      43.341 -18.093   3.209  1.00  0.00     0.013 A 
HETATM   34  C   UNL     1      43.567 -19.313   2.567  1.00  0.00     0.001 A 
HETATM   35  C   UNL     1      43.952 -20.429   3.305  1.00  0.00     0.000 A 
HETATM   36  C   UNL     1      44.112 -20.324   4.685  1.00  0.00     0.001 A 
HETATM   37  C   UNL     1      43.884 -19.103   5.326  1.00  0.00     0.013 A 
ENDBRANCH  28  32
ENDBRANCH   1  26
TORSDOF 9
ENDMDL
MODEL 3
REMARK VINA RESULT:      -8.8      2.875      4.290
REMARK  9 active torsions:
REMARK  status: ('A' for Active; 'I' for Inactive)
REMARK    1  A    between atoms: C_4  and  C_5 
REMARK    2  A    between atoms: C_8  and  C_9 
REMARK       I    between atoms: C_9  and  N_10 
REMARK    3  A    between atoms: N_10  and  C_11 
REMARK    4  A    between atoms: N_10  and  C_26 
REMARK    5  A    between atoms: C_11  and  C_12 
REMARK    6  A    between atoms: C_11  and  C_21 
REMARK       I    between atoms: C_12  and  N_13 
REMARK    7  A    between atoms: N_13  and  C_14 
REMARK    8  A    between atoms: C_14  and  C_15 
REMARK    9  A    between atoms: C_26  and  C_27 
ROOT
HETATM    1  C   UNL     1      40.590 -14.015   2.743  1.00  0.00     0.271 C 
HETATM    2  N   UNL     1      40.848 -12.991   3.661  1.00  0.00    -0.324 N 
HETATM    3  O   UNL     1      39.509 -14.080   2.156  1.00  0.00    -0.266 OA
ENDROOT
BRANCH   2   4
HETATM    4  C   UNL     1      39.733 -12.132   4.133  1.00  0.00     0.220 C 
BRANCH   4   5
HETATM    5  C   UNL     1      39.536 -12.097   5.681  1.00  0.00     0.245 C 
HETATM    6  N   UNL     1      39.311 -10.860   6.241  1.00  0.00    -0.357 N 
HETATM    7  H   UNL     1      38.993 -10.131   5.601  1.00  0.00     0.162 HD
HETATM    8  O   UNL     1      39.483 -13.131   6.350  1.00  0.00    -0.271 OA
BRANCH   6   9
HETATM    9  C   UNL     1      38.995 -10.670   7.645  1.00  0.00     0.154 C 
BRANCH   9  10
HETATM   10  C   UNL     1      39.533  -9.363   8.234  1.00  0.00     0.139 C 
HETATM   11  O   UNL     1      38.752  -8.230   7.798  1.00  0.00    -0.384 OA
HETATM   12  C   UNL     1      38.749  -7.258   8.856  1.00  0.00     0.168 C 
HETATM   13  C   UNL     1      39.517  -7.849  10.022  1.00  0.00     0.029 C 
HETATM   14  C   UNL     1      39.448  -9.330   9.750  1.00  0.00     0.035 C 
ENDBRANCH   9  10
ENDBRANCH   6   9
ENDBRANCH   4   5
BRANCH   4  15
HETATM   15  C   UNL     1      39.732 -10.722   3.551  1.00  0.00     0.014 A 
HETATM   16  S   UNL     1      38.414 -10.141   2.601  1.00  0.00    -0.104 SA
HETATM   17  C   UNL     1      39.117  -8.598   2.416  1.00  0.00     0.050 A 
HETATM   18  C   UNL     1      40.310  -8.493   3.089  1.00  0.00     0.008 A 
HETATM   19  C   UNL     1      40.661  -9.708   3.744  1.00  0.00     0.017 A 
ENDBRANCH   4  15
ENDBRANCH   2   4
BRANCH   2  20
HETATM   20  C   UNL     1      42.167 -12.352   3.674  1.00  0.00     0.173 C 
BRANCH  20  21
HETATM   21  C   UNL     1      42.926 -12.638   4.943  1.00  0.00     0.000 A 
HETATM   22  S   UNL     1      43.695 -11.323   5.745  1.00  0.00    -0.105 SA
HETATM   23  C   UNL     1      44.297 -12.334   6.983  1.00  0.00     0.050 A 
HETATM   24  C   UNL     1      43.920 -13.645   6.806  1.00  0.00     0.008 A 
HETATM   25  C   UNL     1      43.123 -13.817   5.637  1.00  0.00     0.017 A 
ENDBRANCH  20  21
ENDBRANCH   2  20
BRANCH   1  26
HETATM   26  C   UNL     1      41.642 -14.972   2.472  1.00  0.00     0.101 A 
HETATM   27  N   UNL     1      41.807 -16.191   3.091  1.00  0.00    -0.351 N 
HETATM   28  C   UNL     1      42.893 -16.870   2.578  1.00  0.00     0.043 A 
HETATM   29  H   UNL     1      41.189 -16.558   3.803  1.00  0.00     0.166 HD
HETATM   30  C   UNL     1      43.407 -16.069   1.572  1.00  0.00     0.033 A 
HETATM   31  C   UNL     1      42.618 -14.899   1.493  1.00  0.00     0.037 A 
BRANCH  28  32
HETATM   32  C   UNL     1      43.308 -18.198   3.044  1.00  0.00    -0.009 A 
HETATM   33  C   UNL     1      43.799 -18.369   4.346  1.00  0.00     0.013 A 
HETATM   34  C   UNL     1      44.194 -19.628   4.804  1.00  0.00     0.001 A 
HETATM   35  C   UNL     1      44.102 -20.736   3.966  1.00  0.00     0.000 A 
HETATM   36  C   UNL     1      43.614 -20.583   2.670  1.00  0.00     0.001 A 
HETATM   37  C   UNL     1      43.220 -19.323   2.212  1.00  0.00     0.013 A 
ENDBRANCH  28  32
ENDBRANCH   1  26
TORSDOF 9
ENDMDL
MODEL 4
REMARK VINA RESULT:      -8.8      2.385      8.490
REMARK  9 active torsions:
REMARK  status: ('A' for Active; 'I' for Inactive)
REMARK    1  A    between atoms: C_4  and  C_5 
REMARK    2  A    between atoms: C_8  and  C_9 
REMARK       I    between atoms: C_9  and  N_10 
REMARK    3  A    between atoms: N_10  and  C_11 
REMARK    4  A    between atoms: N_10  and  C_26 
REMARK    5  A    between atoms: C_11  and  C_12 
REMARK    6  A    between atoms: C_11  and  C_21 
REMARK       I    between atoms: C_12  and  N_13 
REMARK    7  A    between atoms: N_13  and  C_14 
REMARK    8  A    between atoms: C_14  and  C_15 
REMARK    9  A    between atoms: C_26  and  C_27 
ROOT
HETATM    1  C   UNL     1      44.013 -11.692   7.028  1.00  0.00     0.271 C 
HETATM    2  N   UNL     1      42.947 -11.501   6.142  1.00  0.00    -0.324 N 
HETATM    3  O   UNL     1      44.813 -12.615   6.864  1.00  0.00    -0.266 OA
ENDROOT
BRANCH   2   4
HETATM    4  C   UNL     1      42.615 -12.559   5.155  1.00  0.00     0.220 C 
BRANCH   4   5
HETATM    5  C   UNL     1      42.390 -13.980   5.762  1.00  0.00     0.245 C 
HETATM    6  N   UNL     1      43.292 -14.953   5.393  1.00  0.00    -0.357 N 
HETATM    7  H   UNL     1      44.180 -14.619   5.016  1.00  0.00     0.162 HD
HETATM    8  O   UNL     1      41.515 -14.193   6.603  1.00  0.00    -0.271 OA
BRANCH   6   9
HETATM    9  C   UNL     1      43.290 -16.291   5.956  1.00  0.00     0.154 C 
BRANCH   9  10
HETATM   10  C   UNL     1      43.081 -17.401   4.922  1.00  0.00     0.139 C 
HETATM   11  O   UNL     1      42.606 -16.868   3.668  1.00  0.00    -0.384 OA
HETATM   12  C   UNL     1      43.131 -17.686   2.610  1.00  0.00     0.168 C 
HETATM   13  C   UNL     1      44.021 -18.738   3.243  1.00  0.00     0.029 C 
HETATM   14  C   UNL     1      44.372 -18.120   4.573  1.00  0.00     0.035 C 
ENDBRANCH   9  10
ENDBRANCH   6   9
ENDBRANCH   4   5
BRANCH   4  15
HETATM   15  C   UNL     1      41.492 -12.194   4.190  1.00  0.00     0.014 A 
HETATM   16  S   UNL     1      41.819 -11.738   2.559  1.00  0.00    -0.104 SA
HETATM   17  C   UNL     1      40.164 -11.570   2.184  1.00  0.00     0.050 A 
HETATM   18  C   UNL     1      39.360 -11.889   3.252  1.00  0.00     0.008 A 
HETATM   19  C   UNL     1      40.121 -12.252   4.400  1.00  0.00     0.017 A 
ENDBRANCH   4  15
ENDBRANCH   2   4
BRANCH   2  20
HETATM   20  C   UNL     1      42.589 -10.140   5.731  1.00  0.00     0.173 C 
BRANCH  20  21
HETATM   21  C   UNL     1      41.603  -9.502   6.674  1.00  0.00     0.000 A 
HETATM   22  S   UNL     1      41.881  -7.875   7.162  1.00  0.00    -0.105 SA
HETATM   23  C   UNL     1      40.480  -7.850   8.138  1.00  0.00     0.050 A 
HETATM   24  C   UNL     1      39.801  -9.045   8.094  1.00  0.00     0.008 A 
HETATM   25  C   UNL     1      40.443  -9.991   7.244  1.00  0.00     0.017 A 
ENDBRANCH  20  21
ENDBRANCH   2  20
BRANCH   1  26
HETATM   26  C   UNL     1      44.174 -10.753   8.118  1.00  0.00     0.101 A 
HETATM   27  N   UNL     1      43.387 -10.678   9.246  1.00  0.00    -0.351 N 
HETATM   28  C   UNL     1      43.830  -9.690  10.100  1.00  0.00     0.043 A 
HETATM   29  H   UNL     1      42.608 -11.293   9.440  1.00  0.00     0.166 HD
HETATM   30  C   UNL     1      44.960  -9.149   9.510  1.00  0.00     0.033 A 
HETATM   31  C   UNL     1      45.185  -9.823   8.288  1.00  0.00     0.037 A 
BRANCH  28  32
HETATM   32  C   UNL     1      43.186  -9.384  11.382  1.00  0.00    -0.009 A 
HETATM   33  C   UNL     1      43.646  -8.317  12.167  1.00  0.00     0.013 A 
HETATM   34  C   UNL     1      43.040  -8.012  13.389  1.00  0.00     0.001 A 
HETATM   35  C   UNL     1      41.963  -8.769  13.842  1.00  0.00     0.000 A 
HETATM   36  C   UNL     1      41.493  -9.831  13.072  1.00  0.00     0.001 A 
HETATM   37  C   UNL     1      42.100 -10.136  11.851  1.00  0.00     0.013 A 
ENDBRANCH  28  32
ENDBRANCH   1  26
TORSDOF 9
ENDMDL
MODEL 5
REMARK VINA RESULT:      -8.8      2.281      4.667
REMARK  9 active torsions:
REMARK  status: ('A' for Active; 'I' for Inactive)
REMARK    1  A    between atoms: C_4  and  C_5 
REMARK    2  A    between atoms: C_8  and  C_9 
REMARK       I    between atoms: C_9  and  N_10 
REMARK    3  A    between atoms: N_10  and  C_11 
REMARK    4  A    between atoms: N_10  and  C_26 
REMARK    5  A    between atoms: C_11  and  C_12 
REMARK    6  A    between atoms: C_11  and  C_21 
REMARK       I    between atoms: C_12  and  N_13 
REMARK    7  A    between atoms: N_13  and  C_14 
REMARK    8  A    between atoms: C_14  and  C_15 
REMARK    9  A    between atoms: C_26  and  C_27 
ROOT
HETATM    1  C   UNL     1      43.286 -13.975   6.506  1.00  0.00     0.271 C 
HETATM    2  N   UNL     1      42.572 -13.333   5.488  1.00  0.00    -0.324 N 
HETATM    3  O   UNL     1      43.796 -13.329   7.423  1.00  0.00    -0.266 OA
ENDROOT
BRANCH   2   4
HETATM    4  C   UNL     1      42.647 -11.857   5.358  1.00  0.00     0.220 C 
BRANCH   4   5
HETATM    5  C   UNL     1      42.835 -11.330   3.900  1.00  0.00     0.245 C 
HETATM    6  N   UNL     1      41.692 -10.946   3.237  1.00  0.00    -0.357 N 
HETATM    7  H   UNL     1      40.880 -10.748   3.823  1.00  0.00     0.162 HD
HETATM    8  O   UNL     1      43.954 -11.172   3.409  1.00  0.00    -0.271 OA
BRANCH   6   9
HETATM    9  C   UNL     1      41.707 -10.330   1.922  1.00  0.00     0.154 C 
BRANCH   9  10
HETATM   10  C   UNL     1      40.685 -10.919   0.946  1.00  0.00     0.139 C 
HETATM   11  O   UNL     1      41.334 -11.522  -0.193  1.00  0.00    -0.384 OA
HETATM   12  C   UNL     1      40.536 -12.637  -0.622  1.00  0.00     0.168 C 
HETATM   13  C   UNL     1      39.369 -12.761   0.340  1.00  0.00     0.029 C 
HETATM   14  C   UNL     1      39.872 -12.043   1.566  1.00  0.00     0.035 C 
ENDBRANCH   9  10
ENDBRANCH   6   9
ENDBRANCH   4   5
BRANCH   4  15
HETATM   15  C   UNL     1      41.529 -11.102   6.071  1.00  0.00     0.014 A 
HETATM   16  S   UNL     1      41.789  -9.537   6.749  1.00  0.00    -0.104 SA
HETATM   17  C   UNL     1      40.166  -9.393   7.253  1.00  0.00     0.050 A 
HETATM   18  C   UNL     1      39.415 -10.484   6.886  1.00  0.00     0.008 A 
HETATM   19  C   UNL     1      40.194 -11.461   6.204  1.00  0.00     0.017 A 
ENDBRANCH   4  15
ENDBRANCH   2   4
BRANCH   2  20
HETATM   20  C   UNL     1      41.329 -13.933   4.994  1.00  0.00     0.173 C 
BRANCH  20  21
HETATM   21  C   UNL     1      41.499 -14.553   3.631  1.00  0.00     0.000 A 
HETATM   22  S   UNL     1      40.252 -15.585   3.046  1.00  0.00    -0.105 SA
HETATM   23  C   UNL     1      41.081 -15.880   1.582  1.00  0.00     0.050 A 
HETATM   24  C   UNL     1      42.278 -15.205   1.524  1.00  0.00     0.008 A 
HETATM   25  C   UNL     1      42.513 -14.435   2.699  1.00  0.00     0.017 A 
ENDBRANCH  20  21
ENDBRANCH   2  20
BRANCH   1  26
HETATM   26  C   UNL     1      43.375 -15.420   6.475  1.00  0.00     0.101 A 
HETATM   27  N   UNL     1      43.463 -16.201   5.345  1.00  0.00    -0.351 N 
HETATM   28  C   UNL     1      43.563 -17.538   5.668  1.00  0.00     0.043 A 
HETATM   29  H   UNL     1      43.491 -15.839   4.401  1.00  0.00     0.166 HD
HETATM   30  C   UNL     1      43.578 -17.600   7.051  1.00  0.00     0.033 A 
HETATM   31  C   UNL     1      43.481 -16.282   7.553  1.00  0.00     0.037 A 
BRANCH  28  32
HETATM   32  C   UNL     1      43.674 -18.605   4.667  1.00  0.00    -0.009 A 
HETATM   33  C   UNL     1      43.509 -18.316   3.305  1.00  0.00     0.013 A 
HETATM   34  C   UNL     1      43.617 -19.321   2.340  1.00  0.00     0.001 A 
HETATM   35  C   UNL     1      43.894 -20.630   2.725  1.00  0.00     0.000 A 
HETATM   36  C   UNL     1      44.062 -20.933   4.074  1.00  0.00     0.001 A 
HETATM   37  C   UNL     1      43.954 -19.927   5.038  1.00  0.00     0.013 A 
ENDBRANCH  28  32
ENDBRANCH   1  26
TORSDOF 9
ENDMDL
MODEL 6
REMARK VINA RESULT:      -8.8      2.695      4.127
REMARK  9 active torsions:
REMARK  status: ('A' for Active; 'I' for Inactive)
REMARK    1  A    between atoms: C_4  and  C_5 
REMARK    2  A    between atoms: C_8  and  C_9 
REMARK       I    between atoms: C_9  and  N_10 
REMARK    3  A    between atoms: N_10  and  C_11 
REMARK    4  A    between atoms: N_10  and  C_26 
REMARK    5  A    between atoms: C_11  and  C_12 
REMARK    6  A    between atoms: C_11  and  C_21 
REMARK       I    between atoms: C_12  and  N_13 
REMARK    7  A    between atoms: N_13  and  C_14 
REMARK    8  A    between atoms: C_14  and  C_15 
REMARK    9  A    between atoms: C_26  and  C_27 
ROOT
HETATM    1  C   UNL     1      40.628 -12.910   6.041  1.00  0.00     0.271 C 
HETATM    2  N   UNL     1      41.115 -11.601   6.128  1.00  0.00    -0.324 N 
HETATM    3  O   UNL     1      39.420 -13.130   5.945  1.00  0.00    -0.266 OA
ENDROOT
BRANCH   2   4
HETATM    4  C   UNL     1      40.170 -10.483   6.370  1.00  0.00     0.220 C 
BRANCH   4   5
HETATM    5  C   UNL     1      39.680 -10.340   7.846  1.00  0.00     0.245 C 
HETATM    6  N   UNL     1      40.521  -9.672   8.707  1.00  0.00    -0.357 N 
HETATM    7  H   UNL     1      41.225  -9.076   8.272  1.00  0.00     0.162 HD
HETATM    8  O   UNL     1      38.559 -10.715   8.193  1.00  0.00    -0.271 OA
BRANCH   6   9
HETATM    9  C   UNL     1      40.163  -9.356  10.078  1.00  0.00     0.154 C 
BRANCH   9  10
HETATM   10  C   UNL     1      41.355  -8.981  10.962  1.00  0.00     0.139 C 
HETATM   11  O   UNL     1      41.903 -10.139  11.626  1.00  0.00    -0.384 OA
HETATM   12  C   UNL     1      43.318  -9.942  11.772  1.00  0.00     0.168 C 
HETATM   13  C   UNL     1      43.666  -8.622  11.112  1.00  0.00     0.029 C 
HETATM   14  C   UNL     1      42.514  -8.411  10.163  1.00  0.00     0.035 C 
ENDBRANCH   9  10
ENDBRANCH   6   9
ENDBRANCH   4   5
BRANCH   4  15
HETATM   15  C   UNL     1      40.628  -9.137   5.815  1.00  0.00     0.014 A 
HETATM   16  S   UNL     1      40.196  -8.625   4.225  1.00  0.00    -0.104 SA
HETATM   17  C   UNL     1      40.984  -7.124   4.403  1.00  0.00     0.050 A 
HETATM   18  C   UNL     1      41.537  -6.978   5.652  1.00  0.00     0.008 A 
HETATM   19  C   UNL     1      41.328  -8.129   6.464  1.00  0.00     0.017 A 
ENDBRANCH   4  15
ENDBRANCH   2   4
BRANCH   2  20
HETATM   20  C   UNL     1      42.328 -11.236   5.390  1.00  0.00     0.173 C 
BRANCH  20  21
HETATM   21  C   UNL     1      43.524 -11.099   6.295  1.00  0.00     0.000 A 
HETATM   22  S   UNL     1      45.082 -11.424   5.638  1.00  0.00    -0.105 SA
HETATM   23  C   UNL     1      45.858 -11.093   7.123  1.00  0.00     0.050 A 
HETATM   24  C   UNL     1      44.964 -10.732   8.102  1.00  0.00     0.008 A 
HETATM   25  C   UNL     1      43.622 -10.726   7.623  1.00  0.00     0.017 A 
ENDBRANCH  20  21
ENDBRANCH   2  20
BRANCH   1  26
HETATM   26  C   UNL     1      41.585 -13.998   6.029  1.00  0.00     0.101 A 
HETATM   27  N   UNL     1      41.737 -14.931   5.028  1.00  0.00    -0.351 N 
HETATM   28  C   UNL     1      42.758 -15.812   5.317  1.00  0.00     0.043 A 
HETATM   29  H   UNL     1      41.196 -14.945   4.174  1.00  0.00     0.166 HD
HETATM   30  C   UNL     1      43.296 -15.395   6.523  1.00  0.00     0.033 A 
HETATM   31  C   UNL     1      42.579 -14.257   6.956  1.00  0.00     0.037 A 
BRANCH  28  32
HETATM   32  C   UNL     1      43.150 -16.912   4.429  1.00  0.00    -0.009 A 
HETATM   33  C   UNL     1      44.021 -17.912   4.885  1.00  0.00     0.013 A 
HETATM   34  C   UNL     1      44.400 -18.968   4.051  1.00  0.00     0.001 A 
HETATM   35  C   UNL     1      43.910 -19.039   2.750  1.00  0.00     0.000 A 
HETATM   36  C   UNL     1      43.042 -18.055   2.283  1.00  0.00     0.001 A 
HETATM   37  C   UNL     1      42.665 -16.999   3.117  1.00  0.00     0.013 A 
ENDBRANCH  28  32
ENDBRANCH   1  26
TORSDOF 9
ENDMDL
MODEL 7
REMARK VINA RESULT:      -8.7      2.201      7.885
REMARK  9 active torsions:
REMARK  status: ('A' for Active; 'I' for Inactive)
REMARK    1  A    between atoms: C_4  and  C_5 
REMARK    2  A    between atoms: C_8  and  C_9 
REMARK       I    between atoms: C_9  and  N_10 
REMARK    3  A    between atoms: N_10  and  C_11 
REMARK    4  A    between atoms: N_10  and  C_26 
REMARK    5  A    between atoms: C_11  and  C_12 
REMARK    6  A    between atoms: C_11  and  C_21 
REMARK       I    between atoms: C_12  and  N_13 
REMARK    7  A    between atoms: N_13  and  C_14 
REMARK    8  A    between atoms: C_14  and  C_15 
REMARK    9  A    between atoms: C_26  and  C_27 
ROOT
HETATM    1  C   UNL     1      43.110 -11.550   3.976  1.00  0.00     0.271 C 
HETATM    2  N   UNL     1      42.257 -12.659   3.974  1.00  0.00    -0.324 N 
HETATM    3  O   UNL     1      43.163 -10.792   3.007  1.00  0.00    -0.266 OA
ENDROOT
BRANCH   2   4
HETATM    4  C   UNL     1      41.607 -13.081   2.708  1.00  0.00     0.220 C 
BRANCH   4   5
HETATM    5  C   UNL     1      41.145 -14.572   2.668  1.00  0.00     0.245 C 
HETATM    6  N   UNL     1      42.141 -15.518   2.582  1.00  0.00    -0.357 N 
HETATM    7  H   UNL     1      43.075 -15.209   2.852  1.00  0.00     0.162 HD
HETATM    8  O   UNL     1      39.962 -14.886   2.808  1.00  0.00    -0.271 OA
BRANCH   6   9
HETATM    9  C   UNL     1      41.887 -16.946   2.649  1.00  0.00     0.154 C 
BRANCH   9  10
HETATM   10  C   UNL     1      43.154 -17.803   2.689  1.00  0.00     0.139 C 
HETATM   11  O   UNL     1      43.633 -17.972   4.040  1.00  0.00    -0.384 OA
HETATM   12  C   UNL     1      44.245 -19.268   4.137  1.00  0.00     0.168 C 
HETATM   13  C   UNL     1      44.081 -19.953   2.794  1.00  0.00     0.029 C 
HETATM   14  C   UNL     1      42.916 -19.216   2.185  1.00  0.00     0.035 C 
ENDBRANCH   9  10
ENDBRANCH   6   9
ENDBRANCH   4   5
BRANCH   4  15
HETATM   15  C   UNL     1      40.495 -12.152   2.229  1.00  0.00     0.014 A 
HETATM   16  S   UNL     1      40.210 -11.881   0.549  1.00  0.00    -0.104 SA
HETATM   17  C   UNL     1      38.875 -10.864   0.853  1.00  0.00     0.050 A 
HETATM   18  C   UNL     1      38.610 -10.752   2.197  1.00  0.00     0.008 A 
HETATM   19  C   UNL     1      39.534 -11.495   2.985  1.00  0.00     0.017 A 
ENDBRANCH   4  15
ENDBRANCH   2   4
BRANCH   2  20
HETATM   20  C   UNL     1      41.512 -12.996   5.192  1.00  0.00     0.173 C 
BRANCH  20  21
HETATM   21  C   UNL     1      42.073 -14.211   5.883  1.00  0.00     0.000 A 
HETATM   22  S   UNL     1      40.977 -15.440   6.383  1.00  0.00    -0.105 SA
HETATM   23  C   UNL     1      42.233 -16.400   7.030  1.00  0.00     0.050 A 
HETATM   24  C   UNL     1      43.465 -15.813   6.867  1.00  0.00     0.008 A 
HETATM   25  C   UNL     1      43.374 -14.558   6.198  1.00  0.00     0.017 A 
ENDBRANCH  20  21
ENDBRANCH   2  20
BRANCH   1  26
HETATM   26  C   UNL     1      43.900 -11.296   5.163  1.00  0.00     0.101 A 
HETATM   27  N   UNL     1      43.443 -10.741   6.337  1.00  0.00    -0.351 N 
HETATM   28  C   UNL     1      44.447 -10.664   7.279  1.00  0.00     0.043 A 
HETATM   29  H   UNL     1      42.484 -10.461   6.501  1.00  0.00     0.166 HD
HETATM   30  C   UNL     1      45.568 -11.228   6.693  1.00  0.00     0.033 A 
HETATM   31  C   UNL     1      45.223 -11.638   5.385  1.00  0.00     0.037 A 
BRANCH  28  32
HETATM   32  C   UNL     1      44.250 -10.119   8.627  1.00  0.00    -0.009 A 
HETATM   33  C   UNL     1      43.006  -9.591   9.001  1.00  0.00     0.013 A 
HETATM   34  C   UNL     1      42.803  -9.072  10.282  1.00  0.00     0.001 A 
HETATM   35  C   UNL     1      43.843  -9.075  11.209  1.00  0.00     0.000 A 
HETATM   36  C   UNL     1      45.084  -9.598  10.853  1.00  0.00     0.001 A 
HETATM   37  C   UNL     1      45.286 -10.116   9.571  1.00  0.00     0.013 A 
ENDBRANCH  28  32
ENDBRANCH   1  26
TORSDOF 9
ENDMDL
MODEL 8
REMARK VINA RESULT:      -8.6      2.135      8.381
REMARK  9 active torsions:
REMARK  status: ('A' for Active; 'I' for Inactive)
REMARK    1  A    between atoms: C_4  and  C_5 
REMARK    2  A    between atoms: C_8  and  C_9 
REMARK       I    between atoms: C_9  and  N_10 
REMARK    3  A    between atoms: N_10  and  C_11 
REMARK    4  A    between atoms: N_10  and  C_26 
REMARK    5  A    between atoms: C_11  and  C_12 
REMARK    6  A    between atoms: C_11  and  C_21 
REMARK       I    between atoms: C_12  and  N_13 
REMARK    7  A    between atoms: N_13  and  C_14 
REMARK    8  A    between atoms: C_14  and  C_15 
REMARK    9  A    between atoms: C_26  and  C_27 
ROOT
HETATM    1  C   UNL     1      42.852 -11.734   5.092  1.00  0.00     0.271 C 
HETATM    2  N   UNL     1      42.260 -12.984   5.306  1.00  0.00    -0.324 N 
HETATM    3  O   UNL     1      43.515 -11.515   4.076  1.00  0.00    -0.266 OA
ENDROOT
BRANCH   2   4
HETATM    4  C   UNL     1      42.643 -14.133   4.447  1.00  0.00     0.220 C 
BRANCH   4   5
HETATM    5  C   UNL     1      43.130 -15.400   5.218  1.00  0.00     0.245 C 
HETATM    6  N   UNL     1      43.574 -16.451   4.448  1.00  0.00    -0.357 N 
HETATM    7  H   UNL     1      43.833 -16.223   3.487  1.00  0.00     0.162 HD
HETATM    8  O   UNL     1      43.209 -15.418   6.447  1.00  0.00    -0.271 OA
BRANCH   6   9
HETATM    9  C   UNL     1      44.165 -17.652   5.010  1.00  0.00     0.154 C 
BRANCH   9  10
HETATM   10  C   UNL     1      44.466 -18.740   3.976  1.00  0.00     0.139 C 
HETATM   11  O   UNL     1      44.306 -20.059   4.539  1.00  0.00    -0.384 OA
HETATM   12  C   UNL     1      43.845 -20.935   3.498  1.00  0.00     0.168 C 
HETATM   13  C   UNL     1      43.656 -20.099   2.247  1.00  0.00     0.029 C 
HETATM   14  C   UNL     1      43.507 -18.704   2.799  1.00  0.00     0.035 C 
ENDBRANCH   9  10
ENDBRANCH   6   9
ENDBRANCH   4   5
BRANCH   4  15
HETATM   15  C   UNL     1      41.607 -14.503   3.389  1.00  0.00     0.014 A 
HETATM   16  S   UNL     1      41.713 -13.900   1.776  1.00  0.00    -0.104 SA
HETATM   17  C   UNL     1      40.333 -14.766   1.272  1.00  0.00     0.050 A 
HETATM   18  C   UNL     1      39.811 -15.535   2.283  1.00  0.00     0.008 A 
HETATM   19  C   UNL     1      40.544 -15.389   3.495  1.00  0.00     0.017 A 
ENDBRANCH   4  15
ENDBRANCH   2   4
BRANCH   2  20
HETATM   20  C   UNL     1      40.905 -13.052   5.860  1.00  0.00     0.173 C 
BRANCH  20  21
HETATM   21  C   UNL     1      40.004 -11.988   5.289  1.00  0.00     0.000 A 
HETATM   22  S   UNL     1      39.068 -11.043   6.381  1.00  0.00    -0.105 SA
HETATM   23  C   UNL     1      38.366 -10.139   5.114  1.00  0.00     0.050 A 
HETATM   24  C   UNL     1      38.832 -10.532   3.881  1.00  0.00     0.008 A 
HETATM   25  C   UNL     1      39.782 -11.589   3.984  1.00  0.00     0.017 A 
ENDBRANCH  20  21
ENDBRANCH   2  20
BRANCH   1  26
HETATM   26  C   UNL     1      42.633 -10.695   6.076  1.00  0.00     0.101 A 
HETATM   27  N   UNL     1      42.940 -10.770   7.416  1.00  0.00    -0.351 N 
HETATM   28  C   UNL     1      42.629  -9.595   8.067  1.00  0.00     0.043 A 
HETATM   29  H   UNL     1      43.373 -11.570   7.858  1.00  0.00     0.166 HD
HETATM   30  C   UNL     1      42.146  -8.733   7.096  1.00  0.00     0.033 A 
HETATM   31  C   UNL     1      42.167  -9.410   5.856  1.00  0.00     0.037 A 
BRANCH  28  32
HETATM   32  C   UNL     1      42.850  -9.384   9.502  1.00  0.00    -0.009 A 
HETATM   33  C   UNL     1      43.448 -10.386  10.280  1.00  0.00     0.013 A 
HETATM   34  C   UNL     1      43.668 -10.197  11.646  1.00  0.00     0.001 A 
HETATM   35  C   UNL     1      43.296  -9.002  12.255  1.00  0.00     0.000 A 
HETATM   36  C   UNL     1      42.703  -7.995  11.495  1.00  0.00     0.001 A 
HETATM   37  C   UNL     1      42.482  -8.185  10.128  1.00  0.00     0.013 A 
ENDBRANCH  28  32
ENDBRANCH   1  26
TORSDOF 9
ENDMDL
MODEL 9
REMARK VINA RESULT:      -8.6      2.459      5.186
REMARK  9 active torsions:
REMARK  status: ('A' for Active; 'I' for Inactive)
REMARK    1  A    between atoms: C_4  and  C_5 
REMARK    2  A    between atoms: C_8  and  C_9 
REMARK       I    between atoms: C_9  and  N_10 
REMARK    3  A    between atoms: N_10  and  C_11 
REMARK    4  A    between atoms: N_10  and  C_26 
REMARK    5  A    between atoms: C_11  and  C_12 
REMARK    6  A    between atoms: C_11  and  C_21 
REMARK       I    between atoms: C_12  and  N_13 
REMARK    7  A    between atoms: N_13  and  C_14 
REMARK    8  A    between atoms: C_14  and  C_15 
REMARK    9  A    between atoms: C_26  and  C_27 
ROOT
HETATM    1  C   UNL     1      43.244 -13.155   3.419  1.00  0.00     0.271 C 
HETATM    2  N   UNL     1      43.039 -12.680   4.719  1.00  0.00    -0.324 N 
HETATM    3  O   UNL     1      43.829 -12.468   2.581  1.00  0.00    -0.266 OA
ENDROOT
BRANCH   2   4
HETATM    4  C   UNL     1      43.289 -11.248   5.024  1.00  0.00     0.220 C 
BRANCH   4   5
HETATM    5  C   UNL     1      42.056 -10.309   4.839  1.00  0.00     0.245 C 
HETATM    6  N   UNL     1      40.816 -10.891   4.982  1.00  0.00    -0.357 N 
HETATM    7  H   UNL     1      40.796 -11.781   5.482  1.00  0.00     0.162 HD
HETATM    8  O   UNL     1      42.187  -9.095   4.676  1.00  0.00    -0.271 OA
BRANCH   6   9
HETATM    9  C   UNL     1      39.577 -10.135   4.955  1.00  0.00     0.154 C 
BRANCH   9  10
HETATM   10  C   UNL     1      38.702 -10.419   3.732  1.00  0.00     0.139 C 
HETATM   11  O   UNL     1      38.900  -9.429   2.701  1.00  0.00    -0.384 OA
HETATM   12  C   UNL     1      38.728 -10.070   1.428  1.00  0.00     0.168 C 
HETATM   13  C   UNL     1      38.469 -11.542   1.687  1.00  0.00     0.029 C 
HETATM   14  C   UNL     1      39.044 -11.742   3.067  1.00  0.00     0.035 C 
ENDBRANCH   9  10
ENDBRANCH   6   9
ENDBRANCH   4   5
BRANCH   4  15
HETATM   15  C   UNL     1      43.969 -10.998   6.367  1.00  0.00     0.014 A 
HETATM   16  S   UNL     1      45.674 -11.173   6.559  1.00  0.00    -0.104 SA
HETATM   17  C   UNL     1      45.625 -10.690   8.194  1.00  0.00     0.050 A 
HETATM   18  C   UNL     1      44.354 -10.359   8.594  1.00  0.00     0.008 A 
HETATM   19  C   UNL     1      43.405 -10.529   7.546  1.00  0.00     0.017 A 
ENDBRANCH   4  15
ENDBRANCH   2   4
BRANCH   2  20
HETATM   20  C   UNL     1      43.214 -13.592   5.854  1.00  0.00     0.173 C 
BRANCH  20  21
HETATM   21  C   UNL     1      41.965 -14.380   6.148  1.00  0.00     0.000 A 
HETATM   22  S   UNL     1      42.134 -16.024   6.626  1.00  0.00    -0.105 SA
HETATM   23  C   UNL     1      40.445 -16.234   6.769  1.00  0.00     0.050 A 
HETATM   24  C   UNL     1      39.757 -15.082   6.471  1.00  0.00     0.008 A 
HETATM   25  C   UNL     1      40.632 -14.012   6.124  1.00  0.00     0.017 A 
ENDBRANCH  20  21
ENDBRANCH   2  20
BRANCH   1  26
HETATM   26  C   UNL     1      42.783 -14.489   3.098  1.00  0.00     0.101 A 
HETATM   27  N   UNL     1      43.457 -15.663   3.355  1.00  0.00    -0.351 N 
HETATM   28  C   UNL     1      42.726 -16.759   2.947  1.00  0.00     0.043 A 
HETATM   29  H   UNL     1      44.354 -15.716   3.819  1.00  0.00     0.166 HD
HETATM   30  C   UNL     1      41.532 -16.262   2.451  1.00  0.00     0.033 A 
HETATM   31  C   UNL     1      41.560 -14.854   2.563  1.00  0.00     0.037 A 
BRANCH  28  32
HETATM   32  C   UNL     1      43.192 -18.142   3.098  1.00  0.00    -0.009 A 
HETATM   33  C   UNL     1      43.767 -18.566   4.304  1.00  0.00     0.013 A 
HETATM   34  C   UNL     1      44.212 -19.881   4.463  1.00  0.00     0.001 A 
HETATM   35  C   UNL     1      44.085 -20.791   3.417  1.00  0.00     0.000 A 
HETATM   36  C   UNL     1      43.514 -20.386   2.214  1.00  0.00     0.001 A 
HETATM   37  C   UNL     1      43.070 -19.070   2.055  1.00  0.00     0.013 A 
ENDBRANCH  28  32
ENDBRANCH   1  26
TORSDOF 9
ENDMDL
MODEL 10
REMARK VINA RESULT:      -8.5      3.023      7.604
REMARK  9 active torsions:
REMARK  status: ('A' for Active; 'I' for Inactive)
REMARK    1  A    between atoms: C_4  and  C_5 
REMARK    2  A    between atoms: C_8  and  C_9 
REMARK       I    between atoms: C_9  and  N_10 
REMARK    3  A    between atoms: N_10  and  C_11 
REMARK    4  A    between atoms: N_10  and  C_26 
REMARK    5  A    between atoms: C_11  and  C_12 
REMARK    6  A    between atoms: C_11  and  C_21 
REMARK       I    between atoms: C_12  and  N_13 
REMARK    7  A    between atoms: N_13  and  C_14 
REMARK    8  A    between atoms: C_14  and  C_15 
REMARK    9  A    between atoms: C_26  and  C_27 
ROOT
HETATM    1  C   UNL     1      41.879 -13.663   3.024  1.00  0.00     0.271 C 
HETATM    2  N   UNL     1      41.263 -13.312   4.231  1.00  0.00    -0.324 N 
HETATM    3  O   UNL     1      42.822 -14.455   3.002  1.00  0.00    -0.266 OA
ENDROOT
BRANCH   2   4
HETATM    4  C   UNL     1      41.907 -13.684   5.516  1.00  0.00     0.220 C 
BRANCH   4   5
HETATM    5  C   UNL     1      42.162 -15.211   5.710  1.00  0.00     0.245 C 
HETATM    6  N   UNL     1      43.446 -15.651   5.479  1.00  0.00    -0.357 N 
HETATM    7  H   UNL     1      44.174 -14.936   5.501  1.00  0.00     0.162 HD
HETATM    8  O   UNL     1      41.287 -15.963   6.144  1.00  0.00    -0.271 OA
BRANCH   6   9
HETATM    9  C   UNL     1      43.873 -17.017   5.725  1.00  0.00     0.154 C 
BRANCH   9  10
HETATM   10  C   UNL     1      44.235 -17.794   4.457  1.00  0.00     0.139 C 
HETATM   11  O   UNL     1      44.387 -19.203   4.729  1.00  0.00    -0.384 OA
HETATM   12  C   UNL     1      43.966 -19.930   3.564  1.00  0.00     0.168 C 
HETATM   13  C   UNL     1      43.475 -18.918   2.546  1.00  0.00     0.029 C 
HETATM   14  C   UNL     1      43.146 -17.720   3.400  1.00  0.00     0.035 C 
ENDBRANCH   9  10
ENDBRANCH   6   9
ENDBRANCH   4   5
BRANCH   4  15
HETATM   15  C   UNL     1      43.156 -12.875   5.855  1.00  0.00     0.014 A 
HETATM   16  S   UNL     1      43.765 -11.668   4.782  1.00  0.00    -0.104 SA
HETATM   17  C   UNL     1      45.026 -11.238   5.846  1.00  0.00     0.050 A 
HETATM   18  C   UNL     1      44.979 -11.957   7.017  1.00  0.00     0.008 A 
HETATM   19  C   UNL     1      43.904 -12.891   7.024  1.00  0.00     0.017 A 
ENDBRANCH   4  15
ENDBRANCH   2   4
BRANCH   2  20
HETATM   20  C   UNL     1      39.804 -13.190   4.285  1.00  0.00     0.173 C 
BRANCH  20  21
HETATM   21  C   UNL     1      39.361 -11.775   4.546  1.00  0.00     0.000 A 
HETATM   22  S   UNL     1      39.243 -11.248   6.180  1.00  0.00    -0.105 SA
HETATM   23  C   UNL     1      38.728  -9.686   5.717  1.00  0.00     0.050 A 
HETATM   24  C   UNL     1      38.653  -9.553   4.351  1.00  0.00     0.008 A 
HETATM   25  C   UNL     1      39.027 -10.752   3.677  1.00  0.00     0.017 A 
ENDBRANCH  20  21
ENDBRANCH   2  20
BRANCH   1  26
HETATM   26  C   UNL     1      41.352 -13.099   1.798  1.00  0.00     0.101 A 
HETATM   27  N   UNL     1      40.516 -13.736   0.908  1.00  0.00    -0.351 N 
HETATM   28  C   UNL     1      40.179 -12.906  -0.141  1.00  0.00     0.043 A 
HETATM   29  H   UNL     1      40.163 -14.676   1.029  1.00  0.00     0.166 HD
HETATM   30  C   UNL     1      40.791 -11.692   0.116  1.00  0.00     0.033 A 
HETATM   31  C   UNL     1      41.504 -11.806   1.331  1.00  0.00     0.037 A 
BRANCH  28  32
HETATM   32  C   UNL     1      39.297 -13.314  -1.241  1.00  0.00    -0.009 A 
HETATM   33  C   UNL     1      39.592 -14.457  -1.997  1.00  0.00     0.013 A 
HETATM   34  C   UNL     1      38.759 -14.859  -3.045  1.00  0.00     0.001 A 
HETATM   35  C   UNL     1      37.616 -14.124  -3.348  1.00  0.00     0.000 A 
HETATM   36  C   UNL     1      37.307 -12.987  -2.604  1.00  0.00     0.001 A 
HETATM   37  C   UNL     1      38.142 -12.586  -1.557  1.00  0.00     0.013 A 
ENDBRANCH  28  32
ENDBRANCH   1  26
TORSDOF 9
ENDMDL
