MODEL 1
REMARK VINA RESULT:      -8.6      0.000      0.000
REMARK  7 active torsions:
REMARK  status: ('A' for Active; 'I' for Inactive)
REMARK    1  A    between atoms: C_3  and  O_4 
REMARK    2  A    between atoms: O_4  and  C_5 
REMARK    3  A    between atoms: C_5  and  C_6 
REMARK       I    between atoms: C_6  and  N_7 
REMARK    4  A    between atoms: N_7  and  C_8 
REMARK    5  A    between atoms: C_9  and  C_10 
REMARK       I    between atoms: C_10  and  N_11 
REMARK    6  A    between atoms: N_11  and  C_12 
REMARK    7  A    between atoms: C_12  and  C_13 
ROOT
HETATM    1  C   UNL     1      43.898 -18.440   4.196  1.00  0.00     0.050 A 
HETATM    2  C   UNL     1      43.059 -17.932   3.182  1.00  0.00     0.058 A 
HETATM    3  C   UNL     1      42.681 -18.735   2.093  1.00  0.00     0.019 A 
HETATM    4  C   UNL     1      43.154 -20.040   1.985  1.00  0.00     0.001 A 
HETATM    5  C   UNL     1      44.001 -20.544   2.964  1.00  0.00     0.002 A 
HETATM    6  C   UNL     1      44.366 -19.754   4.060  1.00  0.00     0.030 A 
ENDROOT
BRANCH   1   7
HETATM    7  N   UNL     1      44.177 -17.664   5.354  1.00  0.00    -0.324 N 
HETATM    8  C   UNL     1      43.684 -17.885   6.635  1.00  0.00     0.246 C 
HETATM    9  O   UNL     1      43.146 -18.925   7.007  1.00  0.00    -0.271 OA
HETATM   10  H   UNL     1      44.803 -16.877   5.227  1.00  0.00     0.169 HD
BRANCH   8  11
HETATM   11  C   UNL     1      43.903 -16.694   7.577  1.00  0.00     0.278 C 
BRANCH  11  12
HETATM   12  O   UNL     1      42.666 -16.007   7.710  1.00  0.00    -0.342 OA
BRANCH  12  13
HETATM   13  C   UNL     1      42.499 -14.831   7.034  1.00  0.00     0.075 A 
HETATM   14  C   UNL     1      41.242 -14.660   6.420  1.00  0.00    -0.029 A 
HETATM   15  C   UNL     1      40.182 -15.722   6.527  1.00  0.00     0.051 C 
HETATM   16  C   UNL     1      40.967 -13.472   5.729  1.00  0.00     0.009 A 
HETATM   17  C   UNL     1      41.932 -12.470   5.637  1.00  0.00     0.001 A 
HETATM   18  C   UNL     1      43.176 -12.647   6.238  1.00  0.00     0.003 A 
HETATM   19  C   UNL     1      43.460 -13.821   6.939  1.00  0.00     0.037 A 
ENDBRANCH  12  13
ENDBRANCH  11  12
ENDBRANCH   8  11
ENDBRANCH   1   7
BRANCH   2  20
HETATM   20  C   UNL     1      42.542 -16.541   3.175  1.00  0.00     0.254 C 
HETATM   21  N   UNL     1      41.253 -16.385   2.712  1.00  0.00    -0.353 N 
HETATM   22  H   UNL     1      40.681 -17.216   2.596  1.00  0.00     0.163 HD
HETATM   23  O   UNL     1      43.232 -15.619   3.592  1.00  0.00    -0.268 OA
BRANCH  21  24
HETATM   24  C   UNL     1      40.569 -15.112   2.812  1.00  0.00     0.162 C 
BRANCH  24  25
HETATM   25  C   UNL     1      40.521 -14.432   1.477  1.00  0.00    -0.023 A 
HETATM   26  C   UNL     1      41.029 -13.146   1.322  1.00  0.00     0.125 A 
HETATM   27  N   UNL     1      41.043 -12.469   0.153  1.00  0.00    -0.273 NA
HETATM   28  C   UNL     1      40.479 -13.086  -0.909  1.00  0.00     0.116 A 
HETATM   29  C   UNL     1      39.926 -14.355  -0.857  1.00  0.00     0.020 A 
HETATM   30  C   UNL     1      39.956 -15.041   0.355  1.00  0.00     0.012 A 
ENDBRANCH  24  25
ENDBRANCH  21  24
ENDBRANCH   2  20
TORSDOF 7
ENDMDL
MODEL 2
REMARK VINA RESULT:      -8.5      1.709      5.389
REMARK  7 active torsions:
REMARK  status: ('A' for Active; 'I' for Inactive)
REMARK    1  A    between atoms: C_3  and  O_4 
REMARK    2  A    between atoms: O_4  and  C_5 
REMARK    3  A    between atoms: C_5  and  C_6 
REMARK       I    between atoms: C_6  and  N_7 
REMARK    4  A    between atoms: N_7  and  C_8 
REMARK    5  A    between atoms: C_9  and  C_10 
REMARK       I    between atoms: C_10  and  N_11 
REMARK    6  A    between atoms: N_11  and  C_12 
REMARK    7  A    between atoms: C_12  and  C_13 
ROOT
HETATM    1  C   UNL     1      43.384 -13.434   6.368  1.00  0.00     0.050 A 
HETATM    2  C   UNL     1      42.362 -12.524   6.024  1.00  0.00     0.058 A 
HETATM    3  C   UNL     1      42.584 -11.137   6.088  1.00  0.00     0.019 A 
HETATM    4  C   UNL     1      43.810 -10.642   6.521  1.00  0.00     0.001 A 
HETATM    5  C   UNL     1      44.816 -11.527   6.886  1.00  0.00     0.002 A 
HETATM    6  C   UNL     1      44.606 -12.909   6.807  1.00  0.00     0.030 A 
ENDROOT
BRANCH   1   7
HETATM    7  N   UNL     1      43.192 -14.831   6.184  1.00  0.00    -0.324 N 
HETATM    8  C   UNL     1      43.141 -15.796   7.183  1.00  0.00     0.246 C 
HETATM    9  O   UNL     1      42.997 -15.557   8.379  1.00  0.00    -0.271 OA
HETATM   10  H   UNL     1      43.074 -15.146   5.228  1.00  0.00     0.169 HD
BRANCH   8  11
HETATM   11  C   UNL     1      43.254 -17.227   6.642  1.00  0.00     0.278 C 
BRANCH  11  12
HETATM   12  O   UNL     1      44.033 -17.186   5.453  1.00  0.00    -0.342 OA
BRANCH  12  13
HETATM   13  C   UNL     1      43.869 -18.183   4.533  1.00  0.00     0.075 A 
HETATM   14  C   UNL     1      43.452 -17.762   3.255  1.00  0.00    -0.029 A 
HETATM   15  C   UNL     1      43.217 -16.306   2.961  1.00  0.00     0.051 C 
HETATM   16  C   UNL     1      43.286 -18.711   2.236  1.00  0.00     0.009 A 
HETATM   17  C   UNL     1      43.518 -20.062   2.486  1.00  0.00     0.001 A 
HETATM   18  C   UNL     1      43.921 -20.475   3.754  1.00  0.00     0.003 A 
HETATM   19  C   UNL     1      44.101 -19.539   4.775  1.00  0.00     0.037 A 
ENDBRANCH  12  13
ENDBRANCH  11  12
ENDBRANCH   8  11
ENDBRANCH   1   7
BRANCH   2  20
HETATM   20  C   UNL     1      41.004 -12.946   5.600  1.00  0.00     0.254 C 
HETATM   21  N   UNL     1      40.576 -12.453   4.386  1.00  0.00    -0.353 N 
HETATM   22  H   UNL     1      41.260 -12.010   3.781  1.00  0.00     0.163 HD
HETATM   23  O   UNL     1      40.346 -13.711   6.294  1.00  0.00    -0.268 OA
BRANCH  21  24
HETATM   24  C   UNL     1      39.348 -12.921   3.777  1.00  0.00     0.162 C 
BRANCH  24  25
HETATM   25  C   UNL     1      39.631 -13.594   2.468  1.00  0.00    -0.023 A 
HETATM   26  C   UNL     1      39.729 -12.846   1.298  1.00  0.00     0.125 A 
HETATM   27  N   UNL     1      40.000 -13.369   0.082  1.00  0.00    -0.273 NA
HETATM   28  C   UNL     1      40.135 -14.712   0.018  1.00  0.00     0.116 A 
HETATM   29  C   UNL     1      40.035 -15.548   1.118  1.00  0.00     0.020 A 
HETATM   30  C   UNL     1      39.787 -14.977   2.364  1.00  0.00     0.012 A 
ENDBRANCH  24  25
ENDBRANCH  21  24
ENDBRANCH   2  20
TORSDOF 7
ENDMDL
MODEL 3
REMARK VINA RESULT:      -8.4      1.734      5.323
REMARK  7 active torsions:
REMARK  status: ('A' for Active; 'I' for Inactive)
REMARK    1  A    between atoms: C_3  and  O_4 
REMARK    2  A    between atoms: O_4  and  C_5 
REMARK    3  A    between atoms: C_5  and  C_6 
REMARK       I    between atoms: C_6  and  N_7 
REMARK    4  A    between atoms: N_7  and  C_8 
REMARK    5  A    between atoms: C_9  and  C_10 
REMARK       I    between atoms: C_10  and  N_11 
REMARK    6  A    between atoms: N_11  and  C_12 
REMARK    7  A    between atoms: C_12  and  C_13 
ROOT
HETATM    1  C   UNL     1      41.329 -13.696   5.062  1.00  0.00     0.050 A 
HETATM    2  C   UNL     1      40.393 -13.597   4.011  1.00  0.00     0.058 A 
HETATM    3  C   UNL     1      39.547 -12.480   3.905  1.00  0.00     0.019 A 
HETATM    4  C   UNL     1      39.602 -11.465   4.855  1.00  0.00     0.001 A 
HETATM    5  C   UNL     1      40.503 -11.561   5.908  1.00  0.00     0.002 A 
HETATM    6  C   UNL     1      41.360 -12.664   6.009  1.00  0.00     0.030 A 
ENDROOT
BRANCH   1   7
HETATM    7  N   UNL     1      42.263 -14.767   5.093  1.00  0.00    -0.324 N 
HETATM    8  C   UNL     1      42.346 -15.763   6.060  1.00  0.00     0.246 C 
HETATM    9  O   UNL     1      41.470 -16.010   6.886  1.00  0.00    -0.271 OA
HETATM   10  H   UNL     1      42.926 -14.808   4.327  1.00  0.00     0.169 HD
BRANCH   8  11
HETATM   11  C   UNL     1      43.651 -16.565   5.986  1.00  0.00     0.278 C 
BRANCH  11  12
HETATM   12  O   UNL     1      43.962 -16.772   4.614  1.00  0.00    -0.342 OA
BRANCH  12  13
HETATM   13  C   UNL     1      43.859 -18.038   4.108  1.00  0.00     0.075 A 
HETATM   14  C   UNL     1      43.475 -18.118   2.755  1.00  0.00    -0.029 A 
HETATM   15  C   UNL     1      43.206 -16.873   1.954  1.00  0.00     0.051 C 
HETATM   16  C   UNL     1      43.374 -19.373   2.139  1.00  0.00     0.009 A 
HETATM   17  C   UNL     1      43.638 -20.536   2.861  1.00  0.00     0.001 A 
HETATM   18  C   UNL     1      44.009 -20.452   4.201  1.00  0.00     0.003 A 
HETATM   19  C   UNL     1      44.124 -19.207   4.824  1.00  0.00     0.037 A 
ENDBRANCH  12  13
ENDBRANCH  11  12
ENDBRANCH   8  11
ENDBRANCH   1   7
BRANCH   2  20
HETATM   20  C   UNL     1      40.217 -14.647   2.976  1.00  0.00     0.254 C 
HETATM   21  N   UNL     1      40.131 -14.196   1.677  1.00  0.00    -0.353 N 
HETATM   22  H   UNL     1      40.384 -13.232   1.486  1.00  0.00     0.163 HD
HETATM   23  O   UNL     1      40.187 -15.830   3.290  1.00  0.00    -0.268 OA
BRANCH  21  24
HETATM   24  C   UNL     1      40.131 -15.120   0.561  1.00  0.00     0.162 C 
BRANCH  24  25
HETATM   25  C   UNL     1      39.591 -14.460  -0.671  1.00  0.00    -0.023 A 
HETATM   26  C   UNL     1      39.358 -13.088  -0.691  1.00  0.00     0.125 A 
HETATM   27  N   UNL     1      38.892 -12.412  -1.764  1.00  0.00    -0.273 NA
HETATM   28  C   UNL     1      38.598 -13.145  -2.860  1.00  0.00     0.116 A 
HETATM   29  C   UNL     1      38.772 -14.517  -2.937  1.00  0.00     0.020 A 
HETATM   30  C   UNL     1      39.285 -15.183  -1.826  1.00  0.00     0.012 A 
ENDBRANCH  24  25
ENDBRANCH  21  24
ENDBRANCH   2  20
TORSDOF 7
ENDMDL
MODEL 4
REMARK VINA RESULT:      -8.2      1.888      5.182
REMARK  7 active torsions:
REMARK  status: ('A' for Active; 'I' for Inactive)
REMARK    1  A    between atoms: C_3  and  O_4 
REMARK    2  A    between atoms: O_4  and  C_5 
REMARK    3  A    between atoms: C_5  and  C_6 
REMARK       I    between atoms: C_6  and  N_7 
REMARK    4  A    between atoms: N_7  and  C_8 
REMARK    5  A    between atoms: C_9  and  C_10 
REMARK       I    between atoms: C_10  and  N_11 
REMARK    6  A    between atoms: N_11  and  C_12 
REMARK    7  A    between atoms: C_12  and  C_13 
ROOT
HETATM    1  C   UNL     1      43.477 -18.260   3.065  1.00  0.00     0.050 A 
HETATM    2  C   UNL     1      43.760 -18.441   4.435  1.00  0.00     0.058 A 
HETATM    3  C   UNL     1      44.056 -19.717   4.945  1.00  0.00     0.019 A 
HETATM    4  C   UNL     1      44.046 -20.828   4.106  1.00  0.00     0.001 A 
HETATM    5  C   UNL     1      43.746 -20.666   2.760  1.00  0.00     0.002 A 
HETATM    6  C   UNL     1      43.468 -19.395   2.244  1.00  0.00     0.030 A 
ENDROOT
BRANCH   1   7
HETATM    7  N   UNL     1      43.300 -16.952   2.536  1.00  0.00    -0.324 N 
HETATM    8  C   UNL     1      42.118 -16.220   2.522  1.00  0.00     0.246 C 
HETATM    9  O   UNL     1      41.122 -16.489   3.189  1.00  0.00    -0.271 OA
HETATM   10  H   UNL     1      44.123 -16.513   2.138  1.00  0.00     0.169 HD
BRANCH   8  11
HETATM   11  C   UNL     1      42.179 -14.999   1.596  1.00  0.00     0.278 C 
BRANCH  11  12
HETATM   12  O   UNL     1      40.979 -14.966   0.834  1.00  0.00    -0.342 OA
BRANCH  12  13
HETATM   13  C   UNL     1      40.151 -13.887   0.972  1.00  0.00     0.075 A 
HETATM   14  C   UNL     1      39.665 -13.342  -0.233  1.00  0.00    -0.029 A 
HETATM   15  C   UNL     1      40.051 -13.936  -1.560  1.00  0.00     0.051 C 
HETATM   16  C   UNL     1      38.783 -12.252  -0.190  1.00  0.00     0.009 A 
HETATM   17  C   UNL     1      38.399 -11.702   1.031  1.00  0.00     0.001 A 
HETATM   18  C   UNL     1      38.890 -12.240   2.219  1.00  0.00     0.003 A 
HETATM   19  C   UNL     1      39.760 -13.332   2.192  1.00  0.00     0.037 A 
ENDBRANCH  12  13
ENDBRANCH  11  12
ENDBRANCH   8  11
ENDBRANCH   1   7
BRANCH   2  20
HETATM   20  C   UNL     1      43.746 -17.333   5.423  1.00  0.00     0.254 C 
HETATM   21  N   UNL     1      42.520 -17.048   5.984  1.00  0.00    -0.353 N 
HETATM   22  H   UNL     1      41.764 -17.712   5.848  1.00  0.00     0.163 HD
HETATM   23  O   UNL     1      44.783 -16.754   5.721  1.00  0.00    -0.268 OA
BRANCH  21  24
HETATM   24  C   UNL     1      42.398 -16.111   7.081  1.00  0.00     0.162 C 
BRANCH  24  25
HETATM   25  C   UNL     1      41.865 -14.796   6.597  1.00  0.00    -0.023 A 
HETATM   26  C   UNL     1      42.719 -13.712   6.420  1.00  0.00     0.125 A 
HETATM   27  N   UNL     1      42.326 -12.500   5.970  1.00  0.00    -0.273 NA
HETATM   28  C   UNL     1      41.006 -12.345   5.726  1.00  0.00     0.116 A 
HETATM   29  C   UNL     1      40.070 -13.352   5.890  1.00  0.00     0.020 A 
HETATM   30  C   UNL     1      40.510 -14.600   6.325  1.00  0.00     0.012 A 
ENDBRANCH  24  25
ENDBRANCH  21  24
ENDBRANCH   2  20
TORSDOF 7
ENDMDL
MODEL 5
REMARK VINA RESULT:      -8.2      2.134      6.685
REMARK  7 active torsions:
REMARK  status: ('A' for Active; 'I' for Inactive)
REMARK    1  A    between atoms: C_3  and  O_4 
REMARK    2  A    between atoms: O_4  and  C_5 
REMARK    3  A    between atoms: C_5  and  C_6 
REMARK       I    between atoms: C_6  and  N_7 
REMARK    4  A    between atoms: N_7  and  C_8 
REMARK    5  A    between atoms: C_9  and  C_10 
REMARK       I    between atoms: C_10  and  N_11 
REMARK    6  A    between atoms: N_11  and  C_12 
REMARK    7  A    between atoms: C_12  and  C_13 
ROOT
HETATM    1  C   UNL     1      41.103 -13.564   0.849  1.00  0.00     0.050 A 
HETATM    2  C   UNL     1      40.868 -12.568   1.821  1.00  0.00     0.058 A 
HETATM    3  C   UNL     1      39.770 -11.698   1.706  1.00  0.00     0.019 A 
HETATM    4  C   UNL     1      38.913 -11.788   0.614  1.00  0.00     0.001 A 
HETATM    5  C   UNL     1      39.148 -12.748  -0.362  1.00  0.00     0.002 A 
HETATM    6  C   UNL     1      40.229 -13.629  -0.244  1.00  0.00     0.030 A 
ENDROOT
BRANCH   1   7
HETATM    7  N   UNL     1      42.141 -14.517   1.035  1.00  0.00    -0.324 N 
HETATM    8  C   UNL     1      42.041 -15.726   1.713  1.00  0.00     0.246 C 
HETATM    9  O   UNL     1      40.982 -16.264   2.029  1.00  0.00    -0.271 OA
HETATM   10  H   UNL     1      43.039 -14.289   0.623  1.00  0.00     0.169 HD
BRANCH   8  11
HETATM   11  C   UNL     1      43.405 -16.360   2.017  1.00  0.00     0.278 C 
BRANCH  11  12
HETATM   12  O   UNL     1      43.249 -17.772   1.981  1.00  0.00    -0.342 OA
BRANCH  12  13
HETATM   13  C   UNL     1      43.498 -18.483   3.122  1.00  0.00     0.075 A 
HETATM   14  C   UNL     1      43.659 -19.871   2.946  1.00  0.00    -0.029 A 
HETATM   15  C   UNL     1      43.560 -20.492   1.580  1.00  0.00     0.051 C 
HETATM   16  C   UNL     1      43.948 -20.678   4.056  1.00  0.00     0.009 A 
HETATM   17  C   UNL     1      44.062 -20.117   5.326  1.00  0.00     0.001 A 
HETATM   18  C   UNL     1      43.893 -18.745   5.496  1.00  0.00     0.003 A 
HETATM   19  C   UNL     1      43.616 -17.927   4.398  1.00  0.00     0.037 A 
ENDBRANCH  12  13
ENDBRANCH  11  12
ENDBRANCH   8  11
ENDBRANCH   1   7
BRANCH   2  20
HETATM   20  C   UNL     1      41.748 -12.353   2.996  1.00  0.00     0.254 C 
HETATM   21  N   UNL     1      41.105 -12.194   4.204  1.00  0.00    -0.353 N 
HETATM   22  H   UNL     1      40.117 -12.424   4.255  1.00  0.00     0.163 HD
HETATM   23  O   UNL     1      42.966 -12.355   2.869  1.00  0.00    -0.268 OA
BRANCH  21  24
HETATM   24  C   UNL     1      41.845 -12.149   5.448  1.00  0.00     0.162 C 
BRANCH  24  25
HETATM   25  C   UNL     1      41.935 -13.515   6.059  1.00  0.00    -0.023 A 
HETATM   26  C   UNL     1      40.831 -14.363   6.055  1.00  0.00     0.125 A 
HETATM   27  N   UNL     1      40.831 -15.614   6.565  1.00  0.00    -0.273 NA
HETATM   28  C   UNL     1      41.975 -16.027   7.152  1.00  0.00     0.116 A 
HETATM   29  C   UNL     1      43.122 -15.255   7.229  1.00  0.00     0.020 A 
HETATM   30  C   UNL     1      43.102 -13.981   6.666  1.00  0.00     0.012 A 
ENDBRANCH  24  25
ENDBRANCH  21  24
ENDBRANCH   2  20
TORSDOF 7
ENDMDL
MODEL 6
REMARK VINA RESULT:      -7.9      2.214      7.265
REMARK  7 active torsions:
REMARK  status: ('A' for Active; 'I' for Inactive)
REMARK    1  A    between atoms: C_3  and  O_4 
REMARK    2  A    between atoms: O_4  and  C_5 
REMARK    3  A    between atoms: C_5  and  C_6 
REMARK       I    between atoms: C_6  and  N_7 
REMARK    4  A    between atoms: N_7  and  C_8 
REMARK    5  A    between atoms: C_9  and  C_10 
REMARK       I    between atoms: C_10  and  N_11 
REMARK    6  A    between atoms: N_11  and  C_12 
REMARK    7  A    between atoms: C_12  and  C_13 
ROOT
HETATM    1  C   UNL     1      43.069 -12.851   4.288  1.00  0.00     0.050 A 
HETATM    2  C   UNL     1      42.877 -14.222   4.557  1.00  0.00     0.058 A 
HETATM    3  C   UNL     1      43.096 -14.739   5.846  1.00  0.00     0.019 A 
HETATM    4  C   UNL     1      43.534 -13.906   6.871  1.00  0.00     0.001 A 
HETATM    5  C   UNL     1      43.751 -12.558   6.612  1.00  0.00     0.002 A 
HETATM    6  C   UNL     1      43.517 -12.036   5.335  1.00  0.00     0.030 A 
ENDROOT
BRANCH   1   7
HETATM    7  N   UNL     1      42.729 -12.315   3.015  1.00  0.00    -0.324 N 
HETATM    8  C   UNL     1      41.530 -11.701   2.671  1.00  0.00     0.246 C 
HETATM    9  O   UNL     1      40.692 -11.304   3.477  1.00  0.00    -0.271 OA
HETATM   10  H   UNL     1      43.439 -12.383   2.295  1.00  0.00     0.169 HD
BRANCH   8  11
HETATM   11  C   UNL     1      41.354 -11.534   1.157  1.00  0.00     0.278 C 
BRANCH  11  12
HETATM   12  O   UNL     1      41.207 -12.828   0.587  1.00  0.00    -0.342 OA
BRANCH  12  13
HETATM   13  C   UNL     1      40.637 -12.933  -0.651  1.00  0.00     0.075 A 
HETATM   14  C   UNL     1      39.930 -14.127  -0.892  1.00  0.00    -0.029 A 
HETATM   15  C   UNL     1      39.829 -15.190   0.167  1.00  0.00     0.051 C 
HETATM   16  C   UNL     1      39.286 -14.311  -2.124  1.00  0.00     0.009 A 
HETATM   17  C   UNL     1      39.353 -13.328  -3.109  1.00  0.00     0.001 A 
HETATM   18  C   UNL     1      40.061 -12.152  -2.870  1.00  0.00     0.003 A 
HETATM   19  C   UNL     1      40.699 -11.951  -1.643  1.00  0.00     0.037 A 
ENDBRANCH  12  13
ENDBRANCH  11  12
ENDBRANCH   8  11
ENDBRANCH   1   7
BRANCH   2  20
HETATM   20  C   UNL     1      42.461 -15.205   3.525  1.00  0.00     0.254 C 
HETATM   21  N   UNL     1      43.446 -16.061   3.083  1.00  0.00    -0.353 N 
HETATM   22  H   UNL     1      44.313 -16.106   3.609  1.00  0.00     0.163 HD
HETATM   23  O   UNL     1      41.300 -15.244   3.138  1.00  0.00    -0.268 OA
BRANCH  21  24
HETATM   24  C   UNL     1      43.136 -17.173   2.209  1.00  0.00     0.162 C 
BRANCH  24  25
HETATM   25  C   UNL     1      43.467 -18.476   2.874  1.00  0.00    -0.023 A 
HETATM   26  C   UNL     1      43.301 -19.677   2.192  1.00  0.00     0.125 A 
HETATM   27  N   UNL     1      43.593 -20.891   2.708  1.00  0.00    -0.273 NA
HETATM   28  C   UNL     1      44.029 -20.915   3.987  1.00  0.00     0.116 A 
HETATM   29  C   UNL     1      44.207 -19.780   4.760  1.00  0.00     0.020 A 
HETATM   30  C   UNL     1      43.929 -18.540   4.189  1.00  0.00     0.012 A 
ENDBRANCH  24  25
ENDBRANCH  21  24
ENDBRANCH   2  20
TORSDOF 7
ENDMDL
MODEL 7
REMARK VINA RESULT:      -7.9      2.049      5.761
REMARK  7 active torsions:
REMARK  status: ('A' for Active; 'I' for Inactive)
REMARK    1  A    between atoms: C_3  and  O_4 
REMARK    2  A    between atoms: O_4  and  C_5 
REMARK    3  A    between atoms: C_5  and  C_6 
REMARK       I    between atoms: C_6  and  N_7 
REMARK    4  A    between atoms: N_7  and  C_8 
REMARK    5  A    between atoms: C_9  and  C_10 
REMARK       I    between atoms: C_10  and  N_11 
REMARK    6  A    between atoms: N_11  and  C_12 
REMARK    7  A    between atoms: C_12  and  C_13 
ROOT
HETATM    1  C   UNL     1      42.397 -17.378   2.837  1.00  0.00     0.050 A 
HETATM    2  C   UNL     1      42.875 -16.978   4.103  1.00  0.00     0.058 A 
HETATM    3  C   UNL     1      43.922 -17.677   4.729  1.00  0.00     0.019 A 
HETATM    4  C   UNL     1      44.485 -18.793   4.119  1.00  0.00     0.001 A 
HETATM    5  C   UNL     1      44.007 -19.211   2.883  1.00  0.00     0.002 A 
HETATM    6  C   UNL     1      42.976 -18.508   2.247  1.00  0.00     0.030 A 
ENDROOT
BRANCH   1   7
HETATM    7  N   UNL     1      41.424 -16.595   2.158  1.00  0.00    -0.324 N 
HETATM    8  C   UNL     1      41.601 -15.311   1.655  1.00  0.00     0.246 C 
HETATM    9  O   UNL     1      42.691 -14.767   1.497  1.00  0.00    -0.271 OA
HETATM   10  H   UNL     1      40.516 -17.025   2.023  1.00  0.00     0.169 HD
BRANCH   8  11
HETATM   11  C   UNL     1      40.281 -14.627   1.278  1.00  0.00     0.278 C 
BRANCH  11  12
HETATM   12  O   UNL     1      40.055 -14.841  -0.109  1.00  0.00    -0.342 OA
BRANCH  12  13
HETATM   13  C   UNL     1      40.141 -13.771  -0.955  1.00  0.00     0.075 A 
HETATM   14  C   UNL     1      39.510 -13.936  -2.204  1.00  0.00    -0.029 A 
HETATM   15  C   UNL     1      38.799 -15.216  -2.545  1.00  0.00     0.051 C 
HETATM   16  C   UNL     1      39.519 -12.880  -3.126  1.00  0.00     0.009 A 
HETATM   17  C   UNL     1      40.157 -11.680  -2.819  1.00  0.00     0.001 A 
HETATM   18  C   UNL     1      40.787 -11.524  -1.586  1.00  0.00     0.003 A 
HETATM   19  C   UNL     1      40.777 -12.564  -0.653  1.00  0.00     0.037 A 
ENDBRANCH  12  13
ENDBRANCH  11  12
ENDBRANCH   8  11
ENDBRANCH   1   7
BRANCH   2  20
HETATM   20  C   UNL     1      42.310 -15.835   4.863  1.00  0.00     0.254 C 
HETATM   21  N   UNL     1      43.146 -14.750   5.019  1.00  0.00    -0.353 N 
HETATM   22  H   UNL     1      43.992 -14.712   4.458  1.00  0.00     0.163 HD
HETATM   23  O   UNL     1      41.161 -15.874   5.282  1.00  0.00    -0.268 OA
BRANCH  21  24
HETATM   24  C   UNL     1      42.664 -13.508   5.587  1.00  0.00     0.162 C 
BRANCH  24  25
HETATM   25  C   UNL     1      42.229 -12.566   4.504  1.00  0.00    -0.023 A 
HETATM   26  C   UNL     1      43.171 -11.929   3.703  1.00  0.00     0.125 A 
HETATM   27  N   UNL     1      42.866 -11.083   2.695  1.00  0.00    -0.273 NA
HETATM   28  C   UNL     1      41.554 -10.820   2.504  1.00  0.00     0.116 A 
HETATM   29  C   UNL     1      40.539 -11.383   3.259  1.00  0.00     0.020 A 
HETATM   30  C   UNL     1      40.883 -12.277   4.270  1.00  0.00     0.012 A 
ENDBRANCH  24  25
ENDBRANCH  21  24
ENDBRANCH   2  20
TORSDOF 7
ENDMDL
MODEL 8
REMARK VINA RESULT:      -7.9      2.505      6.580
REMARK  7 active torsions:
REMARK  status: ('A' for Active; 'I' for Inactive)
REMARK    1  A    between atoms: C_3  and  O_4 
REMARK    2  A    between atoms: O_4  and  C_5 
REMARK    3  A    between atoms: C_5  and  C_6 
REMARK       I    between atoms: C_6  and  N_7 
REMARK    4  A    between atoms: N_7  and  C_8 
REMARK    5  A    between atoms: C_9  and  C_10 
REMARK       I    between atoms: C_10  and  N_11 
REMARK    6  A    between atoms: N_11  and  C_12 
REMARK    7  A    between atoms: C_12  and  C_13 
ROOT
HETATM    1  C   UNL     1      39.755 -13.942  -1.079  1.00  0.00     0.050 A 
HETATM    2  C   UNL     1      39.075 -12.722  -0.879  1.00  0.00     0.058 A 
HETATM    3  C   UNL     1      37.932 -12.405  -1.633  1.00  0.00     0.019 A 
HETATM    4  C   UNL     1      37.470 -13.281  -2.610  1.00  0.00     0.001 A 
HETATM    5  C   UNL     1      38.144 -14.475  -2.833  1.00  0.00     0.002 A 
HETATM    6  C   UNL     1      39.274 -14.803  -2.073  1.00  0.00     0.030 A 
ENDROOT
BRANCH   1   7
HETATM    7  N   UNL     1      40.835 -14.309  -0.231  1.00  0.00    -0.324 N 
HETATM    8  C   UNL     1      40.742 -14.983   0.981  1.00  0.00     0.246 C 
HETATM    9  O   UNL     1      39.744 -15.584   1.371  1.00  0.00    -0.271 OA
HETATM   10  H   UNL     1      41.763 -14.057  -0.552  1.00  0.00     0.169 HD
BRANCH   8  11
HETATM   11  C   UNL     1      42.039 -14.933   1.798  1.00  0.00     0.278 C 
BRANCH  11  12
HETATM   12  O   UNL     1      41.855 -15.728   2.962  1.00  0.00    -0.342 OA
BRANCH  12  13
HETATM   13  C   UNL     1      42.609 -16.860   3.103  1.00  0.00     0.075 A 
HETATM   14  C   UNL     1      43.386 -16.926   4.276  1.00  0.00    -0.029 A 
HETATM   15  C   UNL     1      43.359 -15.808   5.282  1.00  0.00     0.051 C 
HETATM   16  C   UNL     1      44.168 -18.063   4.522  1.00  0.00     0.009 A 
HETATM   17  C   UNL     1      44.190 -19.116   3.610  1.00  0.00     0.001 A 
HETATM   18  C   UNL     1      43.426 -19.042   2.447  1.00  0.00     0.003 A 
HETATM   19  C   UNL     1      42.634 -17.920   2.194  1.00  0.00     0.037 A 
ENDBRANCH  12  13
ENDBRANCH  11  12
ENDBRANCH   8  11
ENDBRANCH   1   7
BRANCH   2  20
HETATM   20  C   UNL     1      39.513 -11.696   0.100  1.00  0.00     0.254 C 
HETATM   21  N   UNL     1      38.643 -11.452   1.140  1.00  0.00    -0.353 N 
HETATM   22  H   UNL     1      37.876 -12.101   1.286  1.00  0.00     0.163 HD
HETATM   23  O   UNL     1      40.600 -11.146  -0.022  1.00  0.00    -0.268 OA
BRANCH  21  24
HETATM   24  C   UNL     1      39.022 -10.605   2.252  1.00  0.00     0.162 C 
BRANCH  24  25
HETATM   25  C   UNL     1      39.785 -11.389   3.277  1.00  0.00    -0.023 A 
HETATM   26  C   UNL     1      40.954 -10.876   3.830  1.00  0.00     0.125 A 
HETATM   27  N   UNL     1      41.691 -11.506   4.771  1.00  0.00    -0.273 NA
HETATM   28  C   UNL     1      41.267 -12.733   5.148  1.00  0.00     0.116 A 
HETATM   29  C   UNL     1      40.131 -13.343   4.644  1.00  0.00     0.020 A 
HETATM   30  C   UNL     1      39.374 -12.655   3.698  1.00  0.00     0.012 A 
ENDBRANCH  24  25
ENDBRANCH  21  24
ENDBRANCH   2  20
TORSDOF 7
ENDMDL
MODEL 9
REMARK VINA RESULT:      -7.7      2.550      6.112
REMARK  7 active torsions:
REMARK  status: ('A' for Active; 'I' for Inactive)
REMARK    1  A    between atoms: C_3  and  O_4 
REMARK    2  A    between atoms: O_4  and  C_5 
REMARK    3  A    between atoms: C_5  and  C_6 
REMARK       I    between atoms: C_6  and  N_7 
REMARK    4  A    between atoms: N_7  and  C_8 
REMARK    5  A    between atoms: C_9  and  C_10 
REMARK       I    between atoms: C_10  and  N_11 
REMARK    6  A    between atoms: N_11  and  C_12 
REMARK    7  A    between atoms: C_12  and  C_13 
ROOT
HETATM    1  C   UNL     1      40.682 -13.509   2.791  1.00  0.00     0.050 A 
HETATM    2  C   UNL     1      41.002 -14.860   2.540  1.00  0.00     0.058 A 
HETATM    3  C   UNL     1      40.751 -15.437   1.284  1.00  0.00     0.019 A 
HETATM    4  C   UNL     1      40.155 -14.687   0.274  1.00  0.00     0.001 A 
HETATM    5  C   UNL     1      39.812 -13.363   0.515  1.00  0.00     0.002 A 
HETATM    6  C   UNL     1      40.076 -12.779   1.760  1.00  0.00     0.030 A 
ENDROOT
BRANCH   1   7
HETATM    7  N   UNL     1      41.049 -12.901   4.022  1.00  0.00    -0.324 N 
HETATM    8  C   UNL     1      42.289 -12.355   4.336  1.00  0.00     0.246 C 
HETATM    9  O   UNL     1      43.163 -12.089   3.515  1.00  0.00    -0.271 OA
HETATM   10  H   UNL     1      40.329 -12.857   4.734  1.00  0.00     0.169 HD
BRANCH   8  11
HETATM   11  C   UNL     1      42.462 -12.082   5.836  1.00  0.00     0.278 C 
BRANCH  11  12
HETATM   12  O   UNL     1      43.133 -10.837   5.980  1.00  0.00    -0.342 OA
BRANCH  12  13
HETATM   13  C   UNL     1      43.683 -10.531   7.193  1.00  0.00     0.075 A 
HETATM   14  C   UNL     1      45.058 -10.811   7.321  1.00  0.00    -0.029 A 
HETATM   15  C   UNL     1      45.834 -11.404   6.177  1.00  0.00     0.051 C 
HETATM   16  C   UNL     1      45.716 -10.502   8.520  1.00  0.00     0.009 A 
HETATM   17  C   UNL     1      45.017  -9.935   9.583  1.00  0.00     0.001 A 
HETATM   18  C   UNL     1      43.656  -9.668   9.455  1.00  0.00     0.003 A 
HETATM   19  C   UNL     1      42.989  -9.960   8.263  1.00  0.00     0.037 A 
ENDBRANCH  12  13
ENDBRANCH  11  12
ENDBRANCH   8  11
ENDBRANCH   1   7
BRANCH   2  20
HETATM   20  C   UNL     1      41.592 -15.760   3.563  1.00  0.00     0.254 C 
HETATM   21  N   UNL     1      42.918 -16.087   3.377  1.00  0.00    -0.353 N 
HETATM   22  H   UNL     1      43.452 -15.557   2.695  1.00  0.00     0.163 HD
HETATM   23  O   UNL     1      40.923 -16.143   4.514  1.00  0.00    -0.268 OA
BRANCH  21  24
HETATM   24  C   UNL     1      43.660 -16.813   4.387  1.00  0.00     0.162 C 
BRANCH  24  25
HETATM   25  C   UNL     1      43.735 -18.270   4.042  1.00  0.00    -0.023 A 
HETATM   26  C   UNL     1      44.063 -19.209   5.015  1.00  0.00     0.125 A 
HETATM   27  N   UNL     1      44.134 -20.540   4.794  1.00  0.00    -0.273 NA
HETATM   28  C   UNL     1      43.912 -20.955   3.528  1.00  0.00     0.116 A 
HETATM   29  C   UNL     1      43.600 -20.102   2.482  1.00  0.00     0.020 A 
HETATM   30  C   UNL     1      43.502 -18.738   2.748  1.00  0.00     0.012 A 
ENDBRANCH  24  25
ENDBRANCH  21  24
ENDBRANCH   2  20
TORSDOF 7
ENDMDL
MODEL 10
REMARK VINA RESULT:      -7.7      5.493      9.425
REMARK  7 active torsions:
REMARK  status: ('A' for Active; 'I' for Inactive)
REMARK    1  A    between atoms: C_3  and  O_4 
REMARK    2  A    between atoms: O_4  and  C_5 
REMARK    3  A    between atoms: C_5  and  C_6 
REMARK       I    between atoms: C_6  and  N_7 
REMARK    4  A    between atoms: N_7  and  C_8 
REMARK    5  A    between atoms: C_9  and  C_10 
REMARK       I    between atoms: C_10  and  N_11 
REMARK    6  A    between atoms: N_11  and  C_12 
REMARK    7  A    between atoms: C_12  and  C_13 
ROOT
HETATM    1  C   UNL     1      44.153 -11.198   7.342  1.00  0.00     0.050 A 
HETATM    2  C   UNL     1      43.941 -10.126   8.234  1.00  0.00     0.058 A 
HETATM    3  C   UNL     1      45.007  -9.301   8.631  1.00  0.00     0.019 A 
HETATM    4  C   UNL     1      46.296  -9.548   8.170  1.00  0.00     0.001 A 
HETATM    5  C   UNL     1      46.522 -10.615   7.310  1.00  0.00     0.002 A 
HETATM    6  C   UNL     1      45.461 -11.429   6.897  1.00  0.00     0.030 A 
ENDROOT
BRANCH   1   7
HETATM    7  N   UNL     1      43.051 -11.950   6.850  1.00  0.00    -0.324 N 
HETATM    8  C   UNL     1      42.915 -13.333   6.885  1.00  0.00     0.246 C 
HETATM    9  O   UNL     1      43.602 -14.086   7.571  1.00  0.00    -0.271 OA
HETATM   10  H   UNL     1      42.291 -11.419   6.442  1.00  0.00     0.169 HD
BRANCH   8  11
HETATM   11  C   UNL     1      41.781 -13.848   5.988  1.00  0.00     0.278 C 
BRANCH  11  12
HETATM   12  O   UNL     1      41.823 -15.269   6.001  1.00  0.00    -0.342 OA
BRANCH  12  13
HETATM   13  C   UNL     1      42.290 -15.915   4.891  1.00  0.00     0.075 A 
HETATM   14  C   UNL     1      43.083 -17.052   5.144  1.00  0.00    -0.029 A 
HETATM   15  C   UNL     1      43.371 -17.494   6.553  1.00  0.00     0.051 C 
HETATM   16  C   UNL     1      43.582 -17.799   4.067  1.00  0.00     0.009 A 
HETATM   17  C   UNL     1      43.309 -17.415   2.756  1.00  0.00     0.001 A 
HETATM   18  C   UNL     1      42.532 -16.285   2.511  1.00  0.00     0.003 A 
HETATM   19  C   UNL     1      42.019 -15.538   3.574  1.00  0.00     0.037 A 
ENDBRANCH  12  13
ENDBRANCH  11  12
ENDBRANCH   8  11
ENDBRANCH   1   7
BRANCH   2  20
HETATM   20  C   UNL     1      42.617  -9.807   8.825  1.00  0.00     0.254 C 
HETATM   21  N   UNL     1      42.506 -10.004  10.184  1.00  0.00    -0.353 N 
HETATM   22  H   UNL     1      43.356 -10.156  10.718  1.00  0.00     0.163 HD
HETATM   23  O   UNL     1      41.714  -9.369   8.124  1.00  0.00    -0.268 OA
BRANCH  21  24
HETATM   24  C   UNL     1      41.330  -9.572  10.911  1.00  0.00     0.162 C 
BRANCH  24  25
HETATM   25  C   UNL     1      41.715  -8.965  12.226  1.00  0.00    -0.023 A 
HETATM   26  C   UNL     1      40.896  -9.122  13.341  1.00  0.00     0.125 A 
HETATM   27  N   UNL     1      41.176  -8.626  14.566  1.00  0.00    -0.273 NA
HETATM   28  C   UNL     1      42.308  -7.897  14.678  1.00  0.00     0.116 A 
HETATM   29  C   UNL     1      43.180  -7.663  13.628  1.00  0.00     0.020 A 
HETATM   30  C   UNL     1      42.881  -8.215  12.384  1.00  0.00     0.012 A 
ENDBRANCH  24  25
ENDBRANCH  21  24
ENDBRANCH   2  20
TORSDOF 7
ENDMDL
