MODEL 1
REMARK VINA RESULT:      -9.8      0.000      0.000
REMARK  7 active torsions:
REMARK  status: ('A' for Active; 'I' for Inactive)
REMARK    1  A    between atoms: C_2  and  C_3 
REMARK    2  A    between atoms: C_3  and  N_4 
REMARK    3  A    between atoms: C_8  and  C_9 
REMARK    4  A    between atoms: C_8  and  C_27 
REMARK    5  A    between atoms: N_12  and  C_14 
REMARK    6  A    between atoms: C_14  and  C_15 
REMARK    7  A    between atoms: C_27  and  C_28 
ROOT
HETATM    1  N   UNL     1      41.865 -14.526   5.487  1.00  0.00    -0.268 N 
HETATM    2  C   UNL     1      41.349 -15.752   5.769  1.00  0.00     0.326 C 
HETATM    3  O   UNL     1      40.995 -16.184   6.850  1.00  0.00    -0.247 OA
HETATM    4  N   UNL     1      41.279 -16.470   4.596  1.00  0.00    -0.324 N 
HETATM    5  C   UNL     1      42.017 -15.841   3.509  1.00  0.00     0.123 C 
HETATM    6  C   UNL     1      42.178 -14.448   4.161  1.00  0.00     0.257 C 
HETATM    7  O   UNL     1      42.583 -13.449   3.581  1.00  0.00    -0.270 OA
HETATM    8  H   UNL     1      41.079 -17.465   4.655  1.00  0.00     0.165 HD
ENDROOT
BRANCH   5   9
HETATM    9  C   UNL     1      41.202 -15.915   2.175  1.00  0.00     0.027 C 
HETATM   10  C   UNL     1      41.784 -15.195   0.947  1.00  0.00     0.035 C 
HETATM   11  C   UNL     1      41.524 -13.697   0.857  1.00  0.00     0.235 C 
HETATM   12  N   UNL     1      40.081 -13.349   1.127  1.00  0.00    -0.067 N 
HETATM   13  H   UNL     1      39.554 -13.608   0.284  1.00  0.00     0.280 HD
HETATM   14  C   UNL     1      39.451 -14.051   2.300  1.00  0.00     0.235 C 
HETATM   15  C   UNL     1      39.712 -15.543   2.274  1.00  0.00     0.035 C 
BRANCH  12  16
HETATM   16  C   UNL     1      39.890 -11.845   1.305  1.00  0.00     0.273 C 
BRANCH  16  17
HETATM   17  C   UNL     1      40.330 -11.009   0.138  1.00  0.00    -0.030 A 
HETATM   18  C   UNL     1      41.314 -10.022   0.291  1.00  0.00     0.048 A 
HETATM   19  C   UNL     1      41.713  -9.257  -0.806  1.00  0.00     0.102 A 
HETATM   20  C   UNL     1      41.112  -9.443  -2.052  1.00  0.00     0.102 A 
HETATM   21  O   UNL     1      42.702  -8.337  -0.580  1.00  0.00    -0.346 OA
HETATM   22  O   UNL     1      41.435  -8.708  -3.161  1.00  0.00    -0.346 OA
HETATM   23  C   UNL     1      40.141 -10.425  -2.217  1.00  0.00     0.040 A 
HETATM   24  C   UNL     1      42.205  -7.547  -2.824  1.00  0.00     0.202 C 
HETATM   25  C   UNL     1      43.287  -7.893  -1.814  1.00  0.00     0.202 C 
HETATM   26  C   UNL     1      39.750 -11.206  -1.128  1.00  0.00     0.012 A 
ENDBRANCH  16  17
ENDBRANCH  12  16
ENDBRANCH   5   9
BRANCH   5  27
HETATM   27  C   UNL     1      43.463 -16.420   3.424  1.00  0.00     0.080 C 
BRANCH  27  28
HETATM   28  C   UNL     1      43.560 -17.928   3.392  1.00  0.00    -0.052 A 
HETATM   29  C   UNL     1      44.044 -18.648   4.490  1.00  0.00     0.049 A 
HETATM   30  C   UNL     1      44.123 -20.038   4.434  1.00  0.00     0.116 A 
HETATM   31  F   UNL     1      44.598 -20.708   5.492  1.00  0.00    -0.206 F 
HETATM   32  C   UNL     1      43.719 -20.735   3.304  1.00  0.00     0.042 A 
HETATM   33  C   UNL     1      43.224 -20.033   2.208  1.00  0.00     0.003 A 
HETATM   34  C   UNL     1      43.144 -18.638   2.252  1.00  0.00     0.007 A 
ENDBRANCH  27  28
ENDBRANCH   5  27
BRANCH   1  35
HETATM   35  C   UNL     1      42.132 -13.499   6.481  1.00  0.00     0.140 C 
BRANCH  35  36
HETATM   36  C   UNL     1      43.564 -13.527   7.042  1.00  0.00    -0.004 C 
HETATM   37  C   UNL     1      44.424 -12.394   6.482  1.00  0.00     0.011 C 
HETATM   38  C   UNL     1      44.220 -14.870   6.713  1.00  0.00     0.011 C 
ENDBRANCH  35  36
ENDBRANCH   1  35
TORSDOF 7
ENDMDL
MODEL 2
REMARK VINA RESULT:      -9.5      3.696      8.055
REMARK  7 active torsions:
REMARK  status: ('A' for Active; 'I' for Inactive)
REMARK    1  A    between atoms: C_2  and  C_3 
REMARK    2  A    between atoms: C_3  and  N_4 
REMARK    3  A    between atoms: C_8  and  C_9 
REMARK    4  A    between atoms: C_8  and  C_27 
REMARK    5  A    between atoms: N_12  and  C_14 
REMARK    6  A    between atoms: C_14  and  C_15 
REMARK    7  A    between atoms: C_27  and  C_28 
ROOT
HETATM    1  N   UNL     1      41.712 -15.384   1.701  1.00  0.00    -0.268 N 
HETATM    2  C   UNL     1      40.374 -15.536   1.510  1.00  0.00     0.326 C 
HETATM    3  O   UNL     1      39.765 -16.561   1.267  1.00  0.00    -0.247 OA
HETATM    4  N   UNL     1      39.778 -14.300   1.638  1.00  0.00    -0.324 N 
HETATM    5  C   UNL     1      40.745 -13.211   1.646  1.00  0.00     0.123 C 
HETATM    6  C   UNL     1      42.006 -14.067   1.904  1.00  0.00     0.257 C 
HETATM    7  O   UNL     1      43.109 -13.617   2.186  1.00  0.00    -0.270 OA
HETATM    8  H   UNL     1      38.807 -14.206   1.354  1.00  0.00     0.165 HD
ENDROOT
BRANCH   5   9
HETATM    9  C   UNL     1      40.367 -12.149   2.732  1.00  0.00     0.027 C 
HETATM   10  C   UNL     1      41.088 -10.790   2.676  1.00  0.00     0.035 C 
HETATM   11  C   UNL     1      42.474 -10.736   3.306  1.00  0.00     0.235 C 
HETATM   12  N   UNL     1      42.507 -11.376   4.672  1.00  0.00    -0.067 N 
HETATM   13  H   UNL     1      42.061 -10.714   5.318  1.00  0.00     0.280 HD
HETATM   14  C   UNL     1      41.789 -12.693   4.791  1.00  0.00     0.235 C 
HETATM   15  C   UNL     1      40.399 -12.637   4.191  1.00  0.00     0.035 C 
BRANCH  12  16
HETATM   16  C   UNL     1      43.939 -11.560   5.170  1.00  0.00     0.273 C 
BRANCH  16  17
HETATM   17  C   UNL     1      44.193 -11.061   6.564  1.00  0.00    -0.030 A 
HETATM   18  C   UNL     1      43.153 -10.524   7.335  1.00  0.00     0.048 A 
HETATM   19  C   UNL     1      43.407 -10.067   8.630  1.00  0.00     0.102 A 
HETATM   20  C   UNL     1      44.701 -10.109   9.152  1.00  0.00     0.102 A 
HETATM   21  O   UNL     1      42.331  -9.588   9.329  1.00  0.00    -0.346 OA
HETATM   22  O   UNL     1      45.024  -9.652  10.401  1.00  0.00    -0.346 OA
HETATM   23  C   UNL     1      45.738 -10.647   8.397  1.00  0.00     0.040 A 
HETATM   24  C   UNL     1      43.974  -8.857  10.964  1.00  0.00     0.202 C 
HETATM   25  C   UNL     1      42.620  -9.510  10.733  1.00  0.00     0.202 C 
HETATM   26  C   UNL     1      45.488 -11.122   7.109  1.00  0.00     0.012 A 
ENDBRANCH  16  17
ENDBRANCH  12  16
ENDBRANCH   5   9
BRANCH   5  27
HETATM   27  C   UNL     1      40.931 -12.636   0.207  1.00  0.00     0.080 C 
BRANCH  27  28
HETATM   28  C   UNL     1      39.777 -12.868  -0.741  1.00  0.00    -0.052 A 
HETATM   29  C   UNL     1      39.805 -13.909  -1.677  1.00  0.00     0.049 A 
HETATM   30  C   UNL     1      38.728 -14.102  -2.539  1.00  0.00     0.116 A 
HETATM   31  F   UNL     1      38.778 -15.097  -3.434  1.00  0.00    -0.206 F 
HETATM   32  C   UNL     1      37.610 -13.281  -2.487  1.00  0.00     0.042 A 
HETATM   33  C   UNL     1      37.563 -12.249  -1.553  1.00  0.00     0.003 A 
HETATM   34  C   UNL     1      38.640 -12.044  -0.684  1.00  0.00     0.007 A 
ENDBRANCH  27  28
ENDBRANCH   5  27
BRANCH   1  35
HETATM   35  C   UNL     1      42.684 -16.462   1.601  1.00  0.00     0.140 C 
BRANCH  35  36
HETATM   36  C   UNL     1      42.659 -17.440   2.788  1.00  0.00    -0.004 C 
HETATM   37  C   UNL     1      43.511 -16.946   3.958  1.00  0.00     0.011 C 
HETATM   38  C   UNL     1      43.166 -18.811   2.337  1.00  0.00     0.011 C 
ENDBRANCH  35  36
ENDBRANCH   1  35
TORSDOF 7
ENDMDL
MODEL 3
REMARK VINA RESULT:      -9.5      2.674      3.908
REMARK  7 active torsions:
REMARK  status: ('A' for Active; 'I' for Inactive)
REMARK    1  A    between atoms: C_2  and  C_3 
REMARK    2  A    between atoms: C_3  and  N_4 
REMARK    3  A    between atoms: C_8  and  C_9 
REMARK    4  A    between atoms: C_8  and  C_27 
REMARK    5  A    between atoms: N_12  and  C_14 
REMARK    6  A    between atoms: C_14  and  C_15 
REMARK    7  A    between atoms: C_27  and  C_28 
ROOT
HETATM    1  N   UNL     1      41.865 -14.471   5.518  1.00  0.00    -0.268 N 
HETATM    2  C   UNL     1      41.329 -15.679   5.839  1.00  0.00     0.326 C 
HETATM    3  O   UNL     1      40.935 -16.057   6.927  1.00  0.00    -0.247 OA
HETATM    4  N   UNL     1      41.291 -16.450   4.698  1.00  0.00    -0.324 N 
HETATM    5  C   UNL     1      42.070 -15.877   3.609  1.00  0.00     0.123 C 
HETATM    6  C   UNL     1      42.222 -14.457   4.201  1.00  0.00     0.257 C 
HETATM    7  O   UNL     1      42.656 -13.489   3.590  1.00  0.00    -0.270 OA
HETATM    8  H   UNL     1      41.080 -17.439   4.796  1.00  0.00     0.165 HD
ENDROOT
BRANCH   5   9
HETATM    9  C   UNL     1      41.299 -16.007   2.254  1.00  0.00     0.027 C 
HETATM   10  C   UNL     1      41.878 -15.269   1.034  1.00  0.00     0.035 C 
HETATM   11  C   UNL     1      41.543 -13.787   0.921  1.00  0.00     0.235 C 
HETATM   12  N   UNL     1      40.076 -13.514   1.146  1.00  0.00    -0.067 N 
HETATM   13  H   UNL     1      39.588 -13.808   0.291  1.00  0.00     0.280 HD
HETATM   14  C   UNL     1      39.450 -14.237   2.308  1.00  0.00     0.235 C 
HETATM   15  C   UNL     1      39.790 -15.713   2.306  1.00  0.00     0.035 C 
BRANCH  12  16
HETATM   16  C   UNL     1      39.801 -12.020   1.302  1.00  0.00     0.273 C 
BRANCH  16  17
HETATM   17  C   UNL     1      40.173 -11.444   2.638  1.00  0.00    -0.030 A 
HETATM   18  C   UNL     1      39.280 -11.499   3.717  1.00  0.00     0.048 A 
HETATM   19  C   UNL     1      39.644 -10.961   4.953  1.00  0.00     0.102 A 
HETATM   20  C   UNL     1      40.882 -10.336   5.114  1.00  0.00     0.102 A 
HETATM   21  O   UNL     1      38.729 -11.085   5.965  1.00  0.00    -0.346 OA
HETATM   22  O   UNL     1      41.290  -9.764   6.289  1.00  0.00    -0.346 OA
HETATM   23  C   UNL     1      41.778 -10.284   4.051  1.00  0.00     0.040 A 
HETATM   24  C   UNL     1      40.201  -9.603   7.207  1.00  0.00     0.202 C 
HETATM   25  C   UNL     1      39.338 -10.854   7.244  1.00  0.00     0.202 C 
HETATM   26  C   UNL     1      41.428 -10.835   2.818  1.00  0.00     0.012 A 
ENDBRANCH  16  17
ENDBRANCH  12  16
ENDBRANCH   5   9
BRANCH   5  27
HETATM   27  C   UNL     1      43.513 -16.470   3.599  1.00  0.00     0.080 C 
BRANCH  27  28
HETATM   28  C   UNL     1      43.597 -17.977   3.518  1.00  0.00    -0.052 A 
HETATM   29  C   UNL     1      44.037 -18.740   4.607  1.00  0.00     0.049 A 
HETATM   30  C   UNL     1      44.104 -20.127   4.506  1.00  0.00     0.116 A 
HETATM   31  F   UNL     1      44.537 -20.838   5.556  1.00  0.00    -0.206 F 
HETATM   32  C   UNL     1      43.733 -20.781   3.339  1.00  0.00     0.042 A 
HETATM   33  C   UNL     1      43.283 -20.037   2.252  1.00  0.00     0.003 A 
HETATM   34  C   UNL     1      43.214 -18.643   2.341  1.00  0.00     0.007 A 
ENDBRANCH  27  28
ENDBRANCH   5  27
BRANCH   1  35
HETATM   35  C   UNL     1      42.108 -13.400   6.472  1.00  0.00     0.140 C 
BRANCH  35  36
HETATM   36  C   UNL     1      43.540 -13.374   7.033  1.00  0.00    -0.004 C 
HETATM   37  C   UNL     1      44.377 -12.251   6.420  1.00  0.00     0.011 C 
HETATM   38  C   UNL     1      44.222 -14.718   6.765  1.00  0.00     0.011 C 
ENDBRANCH  35  36
ENDBRANCH   1  35
TORSDOF 7
ENDMDL
MODEL 4
REMARK VINA RESULT:      -9.3      2.523      3.039
REMARK  7 active torsions:
REMARK  status: ('A' for Active; 'I' for Inactive)
REMARK    1  A    between atoms: C_2  and  C_3 
REMARK    2  A    between atoms: C_3  and  N_4 
REMARK    3  A    between atoms: C_8  and  C_9 
REMARK    4  A    between atoms: C_8  and  C_27 
REMARK    5  A    between atoms: N_12  and  C_14 
REMARK    6  A    between atoms: C_14  and  C_15 
REMARK    7  A    between atoms: C_27  and  C_28 
ROOT
HETATM    1  N   UNL     1      42.088 -13.911   5.311  1.00  0.00    -0.268 N 
HETATM    2  C   UNL     1      41.708 -15.049   5.949  1.00  0.00     0.326 C 
HETATM    3  O   UNL     1      41.558 -15.222   7.145  1.00  0.00    -0.247 OA
HETATM    4  N   UNL     1      41.504 -16.028   5.001  1.00  0.00    -0.324 N 
HETATM    5  C   UNL     1      42.018 -15.653   3.691  1.00  0.00     0.123 C 
HETATM    6  C   UNL     1      42.184 -14.141   3.969  1.00  0.00     0.257 C 
HETATM    7  O   UNL     1      42.424 -13.297   3.115  1.00  0.00    -0.270 OA
HETATM    8  H   UNL     1      41.385 -16.986   5.320  1.00  0.00     0.165 HD
ENDROOT
BRANCH   5   9
HETATM    9  C   UNL     1      41.012 -16.067   2.567  1.00  0.00     0.027 C 
HETATM   10  C   UNL     1      41.400 -15.746   1.113  1.00  0.00     0.035 C 
HETATM   11  C   UNL     1      41.125 -14.324   0.640  1.00  0.00     0.235 C 
HETATM   12  N   UNL     1      39.738 -13.856   1.007  1.00  0.00    -0.067 N 
HETATM   13  H   UNL     1      39.092 -14.321   0.359  1.00  0.00     0.280 HD
HETATM   14  C   UNL     1      39.295 -14.174   2.410  1.00  0.00     0.235 C 
HETATM   15  C   UNL     1      39.553 -15.622   2.771  1.00  0.00     0.035 C 
BRANCH  12  16
HETATM   16  C   UNL     1      39.572 -12.356   0.776  1.00  0.00     0.273 C 
BRANCH  16  17
HETATM   17  C   UNL     1      38.622 -11.988  -0.326  1.00  0.00    -0.030 A 
HETATM   18  C   UNL     1      37.949 -10.758  -0.314  1.00  0.00     0.048 A 
HETATM   19  C   UNL     1      37.071 -10.431  -1.349  1.00  0.00     0.102 A 
HETATM   20  C   UNL     1      36.831 -11.337  -2.383  1.00  0.00     0.102 A 
HETATM   21  O   UNL     1      36.479  -9.198  -1.280  1.00  0.00    -0.346 OA
HETATM   22  O   UNL     1      35.962 -11.092  -3.413  1.00  0.00    -0.346 OA
HETATM   23  C   UNL     1      37.500 -12.557  -2.409  1.00  0.00     0.040 A 
HETATM   24  C   UNL     1      35.115  -9.970  -3.137  1.00  0.00     0.202 C 
HETATM   25  C   UNL     1      35.918  -8.822  -2.546  1.00  0.00     0.202 C 
HETATM   26  C   UNL     1      38.392 -12.883  -1.387  1.00  0.00     0.012 A 
ENDBRANCH  16  17
ENDBRANCH  12  16
ENDBRANCH   5   9
BRANCH   5  27
HETATM   27  C   UNL     1      43.470 -16.193   3.499  1.00  0.00     0.080 C 
BRANCH  27  28
HETATM   28  C   UNL     1      43.618 -17.696   3.551  1.00  0.00    -0.052 A 
HETATM   29  C   UNL     1      43.373 -18.490   2.424  1.00  0.00     0.049 A 
HETATM   30  C   UNL     1      43.517 -19.873   2.499  1.00  0.00     0.116 A 
HETATM   31  F   UNL     1      43.268 -20.615   1.412  1.00  0.00    -0.206 F 
HETATM   32  C   UNL     1      43.911 -20.491   3.678  1.00  0.00     0.042 A 
HETATM   33  C   UNL     1      44.169 -19.714   4.804  1.00  0.00     0.003 A 
HETATM   34  C   UNL     1      44.025 -18.324   4.741  1.00  0.00     0.007 A 
ENDBRANCH  27  28
ENDBRANCH   5  27
BRANCH   1  35
HETATM   35  C   UNL     1      42.436 -12.669   5.983  1.00  0.00     0.140 C 
BRANCH  35  36
HETATM   36  C   UNL     1      43.949 -12.461   6.170  1.00  0.00    -0.004 C 
HETATM   37  C   UNL     1      44.288 -11.927   7.563  1.00  0.00     0.011 C 
HETATM   38  C   UNL     1      44.470 -11.484   5.114  1.00  0.00     0.011 C 
ENDBRANCH  35  36
ENDBRANCH   1  35
TORSDOF 7
ENDMDL
MODEL 5
REMARK VINA RESULT:      -9.0      2.550      5.086
REMARK  7 active torsions:
REMARK  status: ('A' for Active; 'I' for Inactive)
REMARK    1  A    between atoms: C_2  and  C_3 
REMARK    2  A    between atoms: C_3  and  N_4 
REMARK    3  A    between atoms: C_8  and  C_9 
REMARK    4  A    between atoms: C_8  and  C_27 
REMARK    5  A    between atoms: N_12  and  C_14 
REMARK    6  A    between atoms: C_14  and  C_15 
REMARK    7  A    between atoms: C_27  and  C_28 
ROOT
HETATM    1  N   UNL     1      40.711 -13.776   1.554  1.00  0.00    -0.268 N 
HETATM    2  C   UNL     1      41.657 -12.836   1.819  1.00  0.00     0.326 C 
HETATM    3  O   UNL     1      41.805 -11.753   1.284  1.00  0.00    -0.247 OA
HETATM    4  N   UNL     1      42.463 -13.308   2.831  1.00  0.00    -0.324 N 
HETATM    5  C   UNL     1      42.254 -14.725   3.098  1.00  0.00     0.123 C 
HETATM    6  C   UNL     1      40.914 -14.873   2.341  1.00  0.00     0.257 C 
HETATM    7  O   UNL     1      40.185 -15.854   2.399  1.00  0.00    -0.270 OA
HETATM    8  H   UNL     1      43.323 -12.806   3.032  1.00  0.00     0.165 HD
ENDROOT
BRANCH   5   9
HETATM    9  C   UNL     1      42.238 -14.997   4.639  1.00  0.00     0.027 C 
HETATM   10  C   UNL     1      40.866 -15.173   5.314  1.00  0.00     0.035 C 
HETATM   11  C   UNL     1      40.124 -13.892   5.675  1.00  0.00     0.235 C 
HETATM   12  N   UNL     1      41.012 -12.893   6.374  1.00  0.00    -0.067 N 
HETATM   13  H   UNL     1      41.134 -13.230   7.336  1.00  0.00     0.280 HD
HETATM   14  C   UNL     1      42.379 -12.706   5.773  1.00  0.00     0.235 C 
HETATM   15  C   UNL     1      43.065 -14.029   5.503  1.00  0.00     0.035 C 
BRANCH  12  16
HETATM   16  C   UNL     1      40.341 -11.525   6.483  1.00  0.00     0.273 C 
BRANCH  16  17
HETATM   17  C   UNL     1      40.139 -10.814   5.176  1.00  0.00    -0.030 A 
HETATM   18  C   UNL     1      39.154 -11.237   4.273  1.00  0.00     0.048 A 
HETATM   19  C   UNL     1      38.978 -10.562   3.064  1.00  0.00     0.102 A 
HETATM   20  C   UNL     1      39.802  -9.486   2.729  1.00  0.00     0.102 A 
HETATM   21  O   UNL     1      37.972 -11.017   2.252  1.00  0.00    -0.346 OA
HETATM   22  O   UNL     1      39.703  -8.799   1.549  1.00  0.00    -0.346 OA
HETATM   23  C   UNL     1      40.777  -9.054   3.622  1.00  0.00     0.040 A 
HETATM   24  C   UNL     1      38.895  -9.498   0.594  1.00  0.00     0.202 C 
HETATM   25  C   UNL     1      37.637 -10.045   1.250  1.00  0.00     0.202 C 
HETATM   26  C   UNL     1      40.947  -9.713   4.841  1.00  0.00     0.012 A 
ENDBRANCH  16  17
ENDBRANCH  12  16
ENDBRANCH   5   9
BRANCH   5  27
HETATM   27  C   UNL     1      43.274 -15.589   2.293  1.00  0.00     0.080 C 
BRANCH  27  28
HETATM   28  C   UNL     1      43.469 -17.001   2.794  1.00  0.00    -0.052 A 
HETATM   29  C   UNL     1      43.045 -18.104   2.042  1.00  0.00     0.049 A 
HETATM   30  C   UNL     1      43.237 -19.395   2.527  1.00  0.00     0.116 A 
HETATM   31  F   UNL     1      42.816 -20.436   1.797  1.00  0.00    -0.206 F 
HETATM   32  C   UNL     1      43.854 -19.619   3.750  1.00  0.00     0.042 A 
HETATM   33  C   UNL     1      44.291 -18.532   4.504  1.00  0.00     0.003 A 
HETATM   34  C   UNL     1      44.101 -17.231   4.028  1.00  0.00     0.007 A 
ENDBRANCH  27  28
ENDBRANCH   5  27
BRANCH   1  35
HETATM   35  C   UNL     1      39.702 -13.657   0.513  1.00  0.00     0.140 C 
BRANCH  35  36
HETATM   36  C   UNL     1      40.218 -13.982  -0.899  1.00  0.00    -0.004 C 
HETATM   37  C   UNL     1      40.451 -12.720  -1.731  1.00  0.00     0.011 C 
HETATM   38  C   UNL     1      39.214 -14.885  -1.619  1.00  0.00     0.011 C 
ENDBRANCH  35  36
ENDBRANCH   1  35
TORSDOF 7
ENDMDL
MODEL 6
REMARK VINA RESULT:      -9.0      4.066      8.226
REMARK  7 active torsions:
REMARK  status: ('A' for Active; 'I' for Inactive)
REMARK    1  A    between atoms: C_2  and  C_3 
REMARK    2  A    between atoms: C_3  and  N_4 
REMARK    3  A    between atoms: C_8  and  C_9 
REMARK    4  A    between atoms: C_8  and  C_27 
REMARK    5  A    between atoms: N_12  and  C_14 
REMARK    6  A    between atoms: C_14  and  C_15 
REMARK    7  A    between atoms: C_27  and  C_28 
ROOT
HETATM    1  N   UNL     1      41.402 -15.199   3.389  1.00  0.00    -0.268 N 
HETATM    2  C   UNL     1      40.101 -15.260   2.997  1.00  0.00     0.326 C 
HETATM    3  O   UNL     1      39.417 -16.252   2.826  1.00  0.00    -0.247 OA
HETATM    4  N   UNL     1      39.646 -13.973   2.815  1.00  0.00    -0.324 N 
HETATM    5  C   UNL     1      40.724 -12.993   2.810  1.00  0.00     0.123 C 
HETATM    6  C   UNL     1      41.817 -13.900   3.419  1.00  0.00     0.257 C 
HETATM    7  O   UNL     1      42.910 -13.509   3.809  1.00  0.00    -0.270 OA
HETATM    8  H   UNL     1      38.748 -13.843   2.356  1.00  0.00     0.165 HD
ENDROOT
BRANCH   5   9
HETATM    9  C   UNL     1      40.315 -11.721   3.623  1.00  0.00     0.027 C 
HETATM   10  C   UNL     1      41.169 -10.454   3.437  1.00  0.00     0.035 C 
HETATM   11  C   UNL     1      42.458 -10.385   4.245  1.00  0.00     0.235 C 
HETATM   12  N   UNL     1      42.247 -10.757   5.692  1.00  0.00    -0.067 N 
HETATM   13  H   UNL     1      41.789  -9.954   6.138  1.00  0.00     0.280 HD
HETATM   14  C   UNL     1      41.392 -11.971   5.933  1.00  0.00     0.235 C 
HETATM   15  C   UNL     1      40.105 -11.926   5.134  1.00  0.00     0.035 C 
BRANCH  12  16
HETATM   16  C   UNL     1      43.575 -10.950   6.421  1.00  0.00     0.273 C 
BRANCH  16  17
HETATM   17  C   UNL     1      43.629 -10.363   7.802  1.00  0.00    -0.030 A 
HETATM   18  C   UNL     1      42.546  -9.639   8.318  1.00  0.00     0.048 A 
HETATM   19  C   UNL     1      42.613  -9.104   9.606  1.00  0.00     0.102 A 
HETATM   20  C   UNL     1      43.769  -9.255  10.374  1.00  0.00     0.102 A 
HETATM   21  O   UNL     1      41.500  -8.439  10.048  1.00  0.00    -0.346 OA
HETATM   22  O   UNL     1      43.912  -8.732  11.631  1.00  0.00    -0.346 OA
HETATM   23  C   UNL     1      44.846  -9.979   9.874  1.00  0.00     0.040 A 
HETATM   24  C   UNL     1      42.892  -7.769  11.925  1.00  0.00     0.202 C 
HETATM   25  C   UNL     1      41.530  -8.273  11.473  1.00  0.00     0.202 C 
HETATM   26  C   UNL     1      44.780 -10.532   8.594  1.00  0.00     0.012 A 
ENDBRANCH  16  17
ENDBRANCH  12  16
ENDBRANCH   5   9
BRANCH   5  27
HETATM   27  C   UNL     1      41.197 -12.710   1.350  1.00  0.00     0.080 C 
BRANCH  27  28
HETATM   28  C   UNL     1      40.144 -12.883   0.279  1.00  0.00    -0.052 A 
HETATM   29  C   UNL     1      40.103 -14.030  -0.522  1.00  0.00     0.049 A 
HETATM   30  C   UNL     1      39.121 -14.164  -1.501  1.00  0.00     0.116 A 
HETATM   31  F   UNL     1      39.106 -15.265  -2.264  1.00  0.00    -0.206 F 
HETATM   32  C   UNL     1      38.165 -13.178  -1.699  1.00  0.00     0.042 A 
HETATM   33  C   UNL     1      38.186 -12.036  -0.901  1.00  0.00     0.003 A 
HETATM   34  C   UNL     1      39.168 -11.890   0.083  1.00  0.00     0.007 A 
ENDBRANCH  27  28
ENDBRANCH   5  27
BRANCH   1  35
HETATM   35  C   UNL     1      42.240 -16.362   3.637  1.00  0.00     0.140 C 
BRANCH  35  36
HETATM   36  C   UNL     1      42.643 -17.126   2.364  1.00  0.00    -0.004 C 
HETATM   37  C   UNL     1      43.524 -18.337   2.675  1.00  0.00     0.011 C 
HETATM   38  C   UNL     1      43.389 -16.187   1.414  1.00  0.00     0.011 C 
ENDBRANCH  35  36
ENDBRANCH   1  35
TORSDOF 7
ENDMDL
MODEL 7
REMARK VINA RESULT:      -8.9      3.929      7.954
REMARK  7 active torsions:
REMARK  status: ('A' for Active; 'I' for Inactive)
REMARK    1  A    between atoms: C_2  and  C_3 
REMARK    2  A    between atoms: C_3  and  N_4 
REMARK    3  A    between atoms: C_8  and  C_9 
REMARK    4  A    between atoms: C_8  and  C_27 
REMARK    5  A    between atoms: N_12  and  C_14 
REMARK    6  A    between atoms: C_14  and  C_15 
REMARK    7  A    between atoms: C_27  and  C_28 
ROOT
HETATM    1  N   UNL     1      40.744 -12.901   1.707  1.00  0.00    -0.268 N 
HETATM    2  C   UNL     1      41.616 -11.917   2.054  1.00  0.00     0.326 C 
HETATM    3  O   UNL     1      41.769 -10.832   1.525  1.00  0.00    -0.247 OA
HETATM    4  N   UNL     1      42.338 -12.347   3.146  1.00  0.00    -0.324 N 
HETATM    5  C   UNL     1      42.166 -13.770   3.406  1.00  0.00     0.123 C 
HETATM    6  C   UNL     1      40.916 -13.983   2.521  1.00  0.00     0.257 C 
HETATM    7  O   UNL     1      40.229 -14.996   2.517  1.00  0.00    -0.270 OA
HETATM    8  H   UNL     1      43.151 -11.805   3.426  1.00  0.00     0.165 HD
ENDROOT
BRANCH   5   9
HETATM    9  C   UNL     1      42.009 -14.034   4.940  1.00  0.00     0.027 C 
HETATM   10  C   UNL     1      40.777 -13.435   5.641  1.00  0.00     0.035 C 
HETATM   11  C   UNL     1      40.877 -11.970   6.046  1.00  0.00     0.235 C 
HETATM   12  N   UNL     1      42.176 -11.657   6.747  1.00  0.00    -0.067 N 
HETATM   13  H   UNL     1      42.093 -12.034   7.699  1.00  0.00     0.280 HD
HETATM   14  C   UNL     1      43.411 -12.246   6.121  1.00  0.00     0.235 C 
HETATM   15  C   UNL     1      43.241 -13.718   5.807  1.00  0.00     0.035 C 
BRANCH  12  16
HETATM   16  C   UNL     1      42.382 -10.152   6.900  1.00  0.00     0.273 C 
BRANCH  16  17
HETATM   17  C   UNL     1      42.730  -9.700   8.289  1.00  0.00    -0.030 A 
HETATM   18  C   UNL     1      41.741  -9.210   9.154  1.00  0.00     0.048 A 
HETATM   19  C   UNL     1      42.083  -8.797  10.443  1.00  0.00     0.102 A 
HETATM   20  C   UNL     1      43.412  -8.834  10.868  1.00  0.00     0.102 A 
HETATM   21  O   UNL     1      41.054  -8.363  11.237  1.00  0.00    -0.346 OA
HETATM   22  O   UNL     1      43.819  -8.418  12.107  1.00  0.00    -0.346 OA
HETATM   23  C   UNL     1      44.399  -9.326  10.020  1.00  0.00     0.040 A 
HETATM   24  C   UNL     1      42.800  -7.662  12.775  1.00  0.00     0.202 C 
HETATM   25  C   UNL     1      41.444  -8.331  12.617  1.00  0.00     0.202 C 
HETATM   26  C   UNL     1      44.062  -9.758   8.736  1.00  0.00     0.012 A 
ENDBRANCH  16  17
ENDBRANCH  12  16
ENDBRANCH   5   9
BRANCH   5  27
HETATM   27  C   UNL     1      43.298 -14.592   2.714  1.00  0.00     0.080 C 
BRANCH  27  28
HETATM   28  C   UNL     1      43.372 -16.051   3.101  1.00  0.00    -0.052 A 
HETATM   29  C   UNL     1      43.048 -17.062   2.189  1.00  0.00     0.049 A 
HETATM   30  C   UNL     1      43.124 -18.399   2.571  1.00  0.00     0.116 A 
HETATM   31  F   UNL     1      42.800 -19.351   1.686  1.00  0.00    -0.206 F 
HETATM   32  C   UNL     1      43.529 -18.759   3.849  1.00  0.00     0.042 A 
HETATM   33  C   UNL     1      43.867 -17.764   4.764  1.00  0.00     0.003 A 
HETATM   34  C   UNL     1      43.790 -16.419   4.392  1.00  0.00     0.007 A 
ENDBRANCH  27  28
ENDBRANCH   5  27
BRANCH   1  35
HETATM   35  C   UNL     1      39.839 -12.833   0.570  1.00  0.00     0.140 C 
BRANCH  35  36
HETATM   36  C   UNL     1      40.403 -13.461  -0.717  1.00  0.00    -0.004 C 
HETATM   37  C   UNL     1      40.536 -12.438  -1.845  1.00  0.00     0.011 C 
HETATM   38  C   UNL     1      39.492 -14.603  -1.174  1.00  0.00     0.011 C 
ENDBRANCH  35  36
ENDBRANCH   1  35
TORSDOF 7
ENDMDL
MODEL 8
REMARK VINA RESULT:      -8.6      3.168      7.489
REMARK  7 active torsions:
REMARK  status: ('A' for Active; 'I' for Inactive)
REMARK    1  A    between atoms: C_2  and  C_3 
REMARK    2  A    between atoms: C_3  and  N_4 
REMARK    3  A    between atoms: C_8  and  C_9 
REMARK    4  A    between atoms: C_8  and  C_27 
REMARK    5  A    between atoms: N_12  and  C_14 
REMARK    6  A    between atoms: C_14  and  C_15 
REMARK    7  A    between atoms: C_27  and  C_28 
ROOT
HETATM    1  N   UNL     1      41.262 -14.035   2.595  1.00  0.00    -0.268 N 
HETATM    2  C   UNL     1      39.987 -14.378   2.270  1.00  0.00     0.326 C 
HETATM    3  O   UNL     1      39.417 -15.431   2.489  1.00  0.00    -0.247 OA
HETATM    4  N   UNL     1      39.404 -13.309   1.626  1.00  0.00    -0.324 N 
HETATM    5  C   UNL     1      40.372 -12.292   1.241  1.00  0.00     0.123 C 
HETATM    6  C   UNL     1      41.537 -12.781   2.132  1.00  0.00     0.257 C 
HETATM    7  O   UNL     1      42.570 -12.156   2.335  1.00  0.00    -0.270 OA
HETATM    8  H   UNL     1      38.512 -13.459   1.162  1.00  0.00     0.165 HD
ENDROOT
BRANCH   5   9
HETATM    9  C   UNL     1      39.807 -10.860   1.526  1.00  0.00     0.027 C 
HETATM   10  C   UNL     1      40.812  -9.769   1.933  1.00  0.00     0.035 C 
HETATM   11  C   UNL     1      41.224  -9.744   3.400  1.00  0.00     0.235 C 
HETATM   12  N   UNL     1      40.040  -9.845   4.329  1.00  0.00    -0.067 N 
HETATM   13  H   UNL     1      39.583  -8.925   4.322  1.00  0.00     0.280 HD
HETATM   14  C   UNL     1      39.008 -10.876   3.958  1.00  0.00     0.235 C 
HETATM   15  C   UNL     1      38.616 -10.787   2.498  1.00  0.00     0.035 C 
BRANCH  12  16
HETATM   16  C   UNL     1      40.477 -10.095   5.770  1.00  0.00     0.273 C 
BRANCH  16  17
HETATM   17  C   UNL     1      41.115 -11.431   6.015  1.00  0.00    -0.030 A 
HETATM   18  C   UNL     1      40.335 -12.590   6.132  1.00  0.00     0.048 A 
HETATM   19  C   UNL     1      40.947 -13.825   6.356  1.00  0.00     0.102 A 
HETATM   20  C   UNL     1      42.332 -13.910   6.501  1.00  0.00     0.102 A 
HETATM   21  O   UNL     1      40.117 -14.912   6.426  1.00  0.00    -0.346 OA
HETATM   22  O   UNL     1      42.992 -15.083   6.750  1.00  0.00    -0.346 OA
HETATM   23  C   UNL     1      43.116 -12.768   6.378  1.00  0.00     0.040 A 
HETATM   24  C   UNL     1      42.093 -16.124   7.155  1.00  0.00     0.202 C 
HETATM   25  C   UNL     1      40.853 -16.135   6.275  1.00  0.00     0.202 C 
HETATM   26  C   UNL     1      42.513 -11.533   6.136  1.00  0.00     0.012 A 
ENDBRANCH  16  17
ENDBRANCH  12  16
ENDBRANCH   5   9
BRANCH   5  27
HETATM   27  C   UNL     1      40.856 -12.523  -0.224  1.00  0.00     0.080 C 
BRANCH  27  28
HETATM   28  C   UNL     1      39.801 -13.019  -1.187  1.00  0.00    -0.052 A 
HETATM   29  C   UNL     1      39.701 -14.376  -1.519  1.00  0.00     0.049 A 
HETATM   30  C   UNL     1      38.720 -14.807  -2.408  1.00  0.00     0.116 A 
HETATM   31  F   UNL     1      38.647 -16.107  -2.720  1.00  0.00    -0.206 F 
HETATM   32  C   UNL     1      37.821 -13.913  -2.975  1.00  0.00     0.042 A 
HETATM   33  C   UNL     1      37.902 -12.562  -2.645  1.00  0.00     0.003 A 
HETATM   34  C   UNL     1      38.885 -12.118  -1.756  1.00  0.00     0.007 A 
ENDBRANCH  27  28
ENDBRANCH   5  27
BRANCH   1  35
HETATM   35  C   UNL     1      42.211 -14.922   3.249  1.00  0.00     0.140 C 
BRANCH  35  36
HETATM   36  C   UNL     1      42.504 -16.213   2.464  1.00  0.00    -0.004 C 
HETATM   37  C   UNL     1      43.138 -17.290   3.345  1.00  0.00     0.011 C 
HETATM   38  C   UNL     1      43.439 -15.902   1.293  1.00  0.00     0.011 C 
ENDBRANCH  35  36
ENDBRANCH   1  35
TORSDOF 7
ENDMDL
MODEL 9
REMARK VINA RESULT:      -8.5      2.980      5.901
REMARK  7 active torsions:
REMARK  status: ('A' for Active; 'I' for Inactive)
REMARK    1  A    between atoms: C_2  and  C_3 
REMARK    2  A    between atoms: C_3  and  N_4 
REMARK    3  A    between atoms: C_8  and  C_9 
REMARK    4  A    between atoms: C_8  and  C_27 
REMARK    5  A    between atoms: N_12  and  C_14 
REMARK    6  A    between atoms: C_14  and  C_15 
REMARK    7  A    between atoms: C_27  and  C_28 
ROOT
HETATM    1  N   UNL     1      42.299 -14.880   3.660  1.00  0.00    -0.268 N 
HETATM    2  C   UNL     1      43.117 -14.082   2.924  1.00  0.00     0.326 C 
HETATM    3  O   UNL     1      43.637 -14.329   1.852  1.00  0.00    -0.247 OA
HETATM    4  N   UNL     1      43.280 -12.893   3.601  1.00  0.00    -0.324 N 
HETATM    5  C   UNL     1      42.792 -12.957   4.971  1.00  0.00     0.123 C 
HETATM    6  C   UNL     1      41.964 -14.254   4.825  1.00  0.00     0.257 C 
HETATM    7  O   UNL     1      41.176 -14.677   5.662  1.00  0.00    -0.270 OA
HETATM    8  H   UNL     1      43.999 -12.253   3.275  1.00  0.00     0.165 HD
ENDROOT
BRANCH   5   9
HETATM    9  C   UNL     1      42.014 -11.650   5.339  1.00  0.00     0.027 C 
HETATM   10  C   UNL     1      40.638 -11.808   6.008  1.00  0.00     0.035 C 
HETATM   11  C   UNL     1      39.462 -12.078   5.078  1.00  0.00     0.235 C 
HETATM   12  N   UNL     1      39.447 -11.148   3.889  1.00  0.00    -0.067 N 
HETATM   13  H   UNL     1      39.116 -10.239   4.233  1.00  0.00     0.280 HD
HETATM   14  C   UNL     1      40.776 -10.932   3.216  1.00  0.00     0.235 C 
HETATM   15  C   UNL     1      41.871 -10.612   4.213  1.00  0.00     0.035 C 
BRANCH  12  16
HETATM   16  C   UNL     1      38.439 -11.600   2.836  1.00  0.00     0.273 C 
BRANCH  16  17
HETATM   17  C   UNL     1      39.041 -12.238   1.617  1.00  0.00    -0.030 A 
HETATM   18  C   UNL     1      39.001 -11.592   0.373  1.00  0.00     0.048 A 
HETATM   19  C   UNL     1      39.569 -12.200  -0.748  1.00  0.00     0.102 A 
HETATM   20  C   UNL     1      40.148 -13.466  -0.648  1.00  0.00     0.102 A 
HETATM   21  O   UNL     1      39.518 -11.489  -1.918  1.00  0.00    -0.346 OA
HETATM   22  O   UNL     1      40.696 -14.130  -1.712  1.00  0.00    -0.346 OA
HETATM   23  C   UNL     1      40.200 -14.112   0.583  1.00  0.00     0.040 A 
HETATM   24  C   UNL     1      40.327 -13.530  -2.960  1.00  0.00     0.202 C 
HETATM   25  C   UNL     1      40.440 -12.015  -2.883  1.00  0.00     0.202 C 
HETATM   26  C   UNL     1      39.650 -13.503   1.712  1.00  0.00     0.012 A 
ENDBRANCH  16  17
ENDBRANCH  12  16
ENDBRANCH   5   9
BRANCH   5  27
HETATM   27  C   UNL     1      43.952 -13.323   5.948  1.00  0.00     0.080 C 
BRANCH  27  28
HETATM   28  C   UNL     1      44.474 -12.185   6.795  1.00  0.00    -0.052 A 
HETATM   29  C   UNL     1      43.829 -11.806   7.979  1.00  0.00     0.049 A 
HETATM   30  C   UNL     1      44.331 -10.753   8.741  1.00  0.00     0.116 A 
HETATM   31  F   UNL     1      43.694 -10.400   9.865  1.00  0.00    -0.206 F 
HETATM   32  C   UNL     1      45.474 -10.068   8.354  1.00  0.00     0.042 A 
HETATM   33  C   UNL     1      46.132 -10.441   7.185  1.00  0.00     0.003 A 
HETATM   34  C   UNL     1      45.636 -11.494   6.411  1.00  0.00     0.007 A 
ENDBRANCH  27  28
ENDBRANCH   5  27
BRANCH   1  35
HETATM   35  C   UNL     1      41.927 -16.238   3.292  1.00  0.00     0.140 C 
BRANCH  35  36
HETATM   36  C   UNL     1      43.116 -17.210   3.201  1.00  0.00    -0.004 C 
HETATM   37  C   UNL     1      42.803 -18.421   2.322  1.00  0.00     0.011 C 
HETATM   38  C   UNL     1      43.498 -17.688   4.604  1.00  0.00     0.011 C 
ENDBRANCH  35  36
ENDBRANCH   1  35
TORSDOF 7
ENDMDL
MODEL 10
REMARK VINA RESULT:      -8.5      5.493      8.789
REMARK  7 active torsions:
REMARK  status: ('A' for Active; 'I' for Inactive)
REMARK    1  A    between atoms: C_2  and  C_3 
REMARK    2  A    between atoms: C_3  and  N_4 
REMARK    3  A    between atoms: C_8  and  C_9 
REMARK    4  A    between atoms: C_8  and  C_27 
REMARK    5  A    between atoms: N_12  and  C_14 
REMARK    6  A    between atoms: C_14  and  C_15 
REMARK    7  A    between atoms: C_27  and  C_28 
ROOT
HETATM    1  N   UNL     1      41.058  -8.159  11.193  1.00  0.00    -0.268 N 
HETATM    2  C   UNL     1      41.464  -9.431  10.935  1.00  0.00     0.326 C 
HETATM    3  O   UNL     1      41.949 -10.234  11.711  1.00  0.00    -0.247 OA
HETATM    4  N   UNL     1      41.234  -9.694   9.603  1.00  0.00    -0.324 N 
HETATM    5  C   UNL     1      40.917  -8.494   8.842  1.00  0.00     0.123 C 
HETATM    6  C   UNL     1      40.613  -7.572  10.045  1.00  0.00     0.257 C 
HETATM    7  O   UNL     1      40.107  -6.461   9.962  1.00  0.00    -0.270 OA
HETATM    8  H   UNL     1      41.639 -10.538   9.205  1.00  0.00     0.165 HD
ENDROOT
BRANCH   5   9
HETATM    9  C   UNL     1      39.747  -8.771   7.841  1.00  0.00     0.027 C 
HETATM   10  C   UNL     1      39.403 -10.240   7.540  1.00  0.00     0.035 C 
HETATM   11  C   UNL     1      40.271 -10.937   6.500  1.00  0.00     0.235 C 
HETATM   12  N   UNL     1      40.460 -10.100   5.259  1.00  0.00    -0.067 N 
HETATM   13  H   UNL     1      39.581 -10.156   4.731  1.00  0.00     0.280 HD
HETATM   14  C   UNL     1      40.767  -8.646   5.495  1.00  0.00     0.235 C 
HETATM   15  C   UNL     1      39.818  -8.022   6.498  1.00  0.00     0.035 C 
BRANCH  12  16
HETATM   16  C   UNL     1      41.541 -10.681   4.350  1.00  0.00     0.273 C 
BRANCH  16  17
HETATM   17  C   UNL     1      41.336 -12.116   3.960  1.00  0.00    -0.030 A 
HETATM   18  C   UNL     1      42.331 -13.075   4.196  1.00  0.00     0.048 A 
HETATM   19  C   UNL     1      42.120 -14.405   3.829  1.00  0.00     0.102 A 
HETATM   20  C   UNL     1      40.937 -14.784   3.194  1.00  0.00     0.102 A 
HETATM   21  O   UNL     1      43.127 -15.286   4.125  1.00  0.00    -0.346 OA
HETATM   22  O   UNL     1      40.678 -16.064   2.782  1.00  0.00    -0.346 OA
HETATM   23  C   UNL     1      39.940 -13.841   2.962  1.00  0.00     0.040 A 
HETATM   24  C   UNL     1      41.861 -16.873   2.789  1.00  0.00     0.202 C 
HETATM   25  C   UNL     1      42.664 -16.642   4.060  1.00  0.00     0.202 C 
HETATM   26  C   UNL     1      40.136 -12.513   3.342  1.00  0.00     0.012 A 
ENDBRANCH  16  17
ENDBRANCH  12  16
ENDBRANCH   5   9
BRANCH   5  27
HETATM   27  C   UNL     1      42.206  -7.903   8.192  1.00  0.00     0.080 C 
BRANCH  27  28
HETATM   28  C   UNL     1      43.430  -8.788   8.251  1.00  0.00    -0.052 A 
HETATM   29  C   UNL     1      43.495  -9.987   7.531  1.00  0.00     0.049 A 
HETATM   30  C   UNL     1      44.635 -10.784   7.603  1.00  0.00     0.116 A 
HETATM   31  F   UNL     1      44.674 -11.932   6.914  1.00  0.00    -0.206 F 
HETATM   32  C   UNL     1      45.726 -10.409   8.375  1.00  0.00     0.042 A 
HETATM   33  C   UNL     1      45.680  -9.214   9.088  1.00  0.00     0.003 A 
HETATM   34  C   UNL     1      44.540  -8.407   9.025  1.00  0.00     0.007 A 
ENDBRANCH  27  28
ENDBRANCH   5  27
BRANCH   1  35
HETATM   35  C   UNL     1      41.181  -7.504  12.486  1.00  0.00     0.140 C 
BRANCH  35  36
HETATM   36  C   UNL     1      42.520  -6.774  12.693  1.00  0.00    -0.004 C 
HETATM   37  C   UNL     1      43.217  -7.206  13.984  1.00  0.00     0.011 C 
HETATM   38  C   UNL     1      42.283  -5.263  12.728  1.00  0.00     0.011 C 
ENDBRANCH  35  36
ENDBRANCH   1  35
TORSDOF 7
ENDMDL
