MODEL 1
REMARK VINA RESULT:      -8.7      0.000      0.000
REMARK  9 active torsions:
REMARK  status: ('A' for Active; 'I' for Inactive)
REMARK    1  A    between atoms: C_2  and  C_3 
REMARK    2  A    between atoms: C_3  and  C_4 
REMARK    3  A    between atoms: C_4  and  N_5 
REMARK    4  A    between atoms: C_9  and  C_10 
REMARK    5  A    between atoms: C_13  and  C_14 
REMARK    6  A    between atoms: C_14  and  O_15 
REMARK    7  A    between atoms: C_20  and  C_21 
REMARK       I    between atoms: C_21  and  N_22 
REMARK    8  A    between atoms: N_22  and  C_23 
REMARK    9  A    between atoms: C_24  and  O_25 
ROOT
HETATM    1  N   UNL     1      42.770 -12.550   5.159  1.00  0.00    -0.303 N 
HETATM    2  C   UNL     1      43.328 -11.897   4.060  1.00  0.00     0.323 C 
HETATM    3  O   UNL     1      43.708 -10.728   4.065  1.00  0.00    -0.247 OA
HETATM    4  N   UNL     1      43.486 -12.630   2.928  1.00  0.00    -0.330 N 
HETATM    5  C   UNL     1      42.871 -13.908   2.674  1.00  0.00     0.160 C 
HETATM    6  C   UNL     1      42.509 -14.576   3.963  1.00  0.00     0.059 C 
HETATM    7  C   UNL     1      42.416 -13.909   5.133  1.00  0.00     0.026 C 
HETATM    8  C   UNL     1      41.909 -14.551   6.403  1.00  0.00     0.069 C 
HETATM    9  H   UNL     1      43.831 -12.098   2.141  1.00  0.00     0.165 HD
ENDROOT
BRANCH   6  10
HETATM   10  C   UNL     1      42.243 -16.036   3.837  1.00  0.00     0.256 C 
HETATM   11  N   UNL     1      43.391 -16.766   3.638  1.00  0.00    -0.321 N 
HETATM   12  H   UNL     1      44.284 -16.282   3.647  1.00  0.00     0.169 HD
HETATM   13  O   UNL     1      41.096 -16.456   3.878  1.00  0.00    -0.267 OA
BRANCH  11  14
HETATM   14  C   UNL     1      43.509 -18.163   3.458  1.00  0.00     0.068 A 
HETATM   15  C   UNL     1      43.962 -18.915   4.563  1.00  0.00     0.095 A 
HETATM   16  C   UNL     1      44.113 -20.300   4.447  1.00  0.00     0.039 A 
HETATM   17  C   UNL     1      43.807 -20.939   3.243  1.00  0.00     0.003 A 
HETATM   18  C   UNL     1      43.352 -20.199   2.156  1.00  0.00     0.002 A 
HETATM   19  C   UNL     1      43.203 -18.816   2.262  1.00  0.00     0.032 A 
BRANCH  15  20
HETATM   20  O   UNL     1      44.227 -18.188   5.703  1.00  0.00    -0.354 OA
HETATM   21  C   UNL     1      43.262 -18.260   6.746  1.00  0.00     0.210 C 
ENDBRANCH  15  20
ENDBRANCH  11  14
ENDBRANCH   6  10
BRANCH   5  22
HETATM   22  C   UNL     1      41.708 -13.753   1.704  1.00  0.00    -0.031 A 
HETATM   23  C   UNL     1      41.001 -12.541   1.649  1.00  0.00     0.010 A 
HETATM   24  C   UNL     1      39.984 -12.350   0.709  1.00  0.00     0.018 A 
HETATM   25  C   UNL     1      39.656 -13.367  -0.194  1.00  0.00     0.039 A 
HETATM   26  C   UNL     1      40.331 -14.591  -0.125  1.00  0.00     0.018 A 
HETATM   27  C   UNL     1      41.345 -14.783   0.819  1.00  0.00     0.010 A 
BRANCH  25  28
HETATM   28  C   UNL     1      38.609 -13.087  -1.214  1.00  0.00     0.292 C 
HETATM   29  O   UNL     1      37.793 -12.184  -1.116  1.00  0.00    -0.259 OA
BRANCH  28  30
HETATM   30  O   UNL     1      38.726 -13.941  -2.263  1.00  0.00    -0.323 OA
HETATM   31  C   UNL     1      37.600 -13.932  -3.142  1.00  0.00     0.213 C 
ENDBRANCH  28  30
ENDBRANCH  25  28
ENDBRANCH   5  22
BRANCH   1  32
HETATM   32  C   UNL     1      42.697 -11.758   6.395  1.00  0.00     0.133 C 
BRANCH  32  33
HETATM   33  C   UNL     1      43.886 -12.028   7.323  1.00  0.00     0.020 C 
BRANCH  33  34
HETATM   34  C   UNL     1      44.785 -10.798   7.446  1.00  0.00    -0.003 C 
HETATM   35  C   UNL     1      46.149 -11.040   6.819  1.00  0.00     0.005 C 
ENDBRANCH  33  34
ENDBRANCH  32  33
ENDBRANCH   1  32
TORSDOF 9
ENDMDL
MODEL 2
REMARK VINA RESULT:      -8.5      2.043      6.538
REMARK  9 active torsions:
REMARK  status: ('A' for Active; 'I' for Inactive)
REMARK    1  A    between atoms: C_2  and  C_3 
REMARK    2  A    between atoms: C_3  and  C_4 
REMARK    3  A    between atoms: C_4  and  N_5 
REMARK    4  A    between atoms: C_9  and  C_10 
REMARK    5  A    between atoms: C_13  and  C_14 
REMARK    6  A    between atoms: C_14  and  O_15 
REMARK    7  A    between atoms: C_20  and  C_21 
REMARK       I    between atoms: C_21  and  N_22 
REMARK    8  A    between atoms: N_22  and  C_23 
REMARK    9  A    between atoms: C_24  and  O_25 
ROOT
HETATM    1  N   UNL     1      39.647 -12.440   0.879  1.00  0.00    -0.303 N 
HETATM    2  C   UNL     1      39.215 -11.529   1.842  1.00  0.00     0.323 C 
HETATM    3  O   UNL     1      38.727 -10.429   1.589  1.00  0.00    -0.247 OA
HETATM    4  N   UNL     1      39.315 -11.915   3.140  1.00  0.00    -0.330 N 
HETATM    5  C   UNL     1      40.086 -13.037   3.615  1.00  0.00     0.160 C 
HETATM    6  C   UNL     1      40.296 -14.026   2.512  1.00  0.00     0.059 C 
HETATM    7  C   UNL     1      40.132 -13.717   1.208  1.00  0.00     0.026 C 
HETATM    8  C   UNL     1      40.485 -14.670   0.090  1.00  0.00     0.069 C 
HETATM    9  H   UNL     1      39.053 -11.198   3.801  1.00  0.00     0.165 HD
ENDROOT
BRANCH   6  10
HETATM   10  C   UNL     1      40.721 -15.375   2.980  1.00  0.00     0.256 C 
HETATM   11  N   UNL     1      42.074 -15.579   2.843  1.00  0.00    -0.321 N 
HETATM   12  H   UNL     1      42.650 -14.814   2.502  1.00  0.00     0.169 HD
HETATM   13  O   UNL     1      39.890 -16.171   3.393  1.00  0.00    -0.267 OA
BRANCH  11  14
HETATM   14  C   UNL     1      42.812 -16.740   3.165  1.00  0.00     0.068 A 
HETATM   15  C   UNL     1      43.488 -16.746   4.404  1.00  0.00     0.095 A 
HETATM   16  C   UNL     1      44.246 -17.860   4.777  1.00  0.00     0.039 A 
HETATM   17  C   UNL     1      44.328 -18.967   3.930  1.00  0.00     0.003 A 
HETATM   18  C   UNL     1      43.654 -18.965   2.711  1.00  0.00     0.002 A 
HETATM   19  C   UNL     1      42.899 -17.856   2.329  1.00  0.00     0.032 A 
BRANCH  15  20
HETATM   20  O   UNL     1      43.335 -15.609   5.165  1.00  0.00    -0.354 OA
HETATM   21  C   UNL     1      43.963 -15.604   6.442  1.00  0.00     0.210 C 
ENDBRANCH  15  20
ENDBRANCH  11  14
ENDBRANCH   6  10
BRANCH   5  22
HETATM   22  C   UNL     1      41.371 -12.556   4.275  1.00  0.00    -0.031 A 
HETATM   23  C   UNL     1      41.503 -12.615   5.671  1.00  0.00     0.010 A 
HETATM   24  C   UNL     1      42.704 -12.256   6.290  1.00  0.00     0.018 A 
HETATM   25  C   UNL     1      43.795 -11.832   5.523  1.00  0.00     0.039 A 
HETATM   26  C   UNL     1      43.662 -11.737   4.134  1.00  0.00     0.018 A 
HETATM   27  C   UNL     1      42.459 -12.091   3.516  1.00  0.00     0.010 A 
BRANCH  25  28
HETATM   28  C   UNL     1      45.069 -11.523   6.228  1.00  0.00     0.292 C 
HETATM   29  O   UNL     1      46.074 -11.123   5.662  1.00  0.00    -0.259 OA
BRANCH  28  30
HETATM   30  O   UNL     1      44.931 -11.707   7.565  1.00  0.00    -0.323 OA
HETATM   31  C   UNL     1      45.430 -10.624   8.351  1.00  0.00     0.213 C 
ENDBRANCH  28  30
ENDBRANCH  25  28
ENDBRANCH   5  22
BRANCH   1  32
HETATM   32  C   UNL     1      39.440 -12.031  -0.517  1.00  0.00     0.133 C 
BRANCH  32  33
HETATM   33  C   UNL     1      37.986 -12.216  -0.962  1.00  0.00     0.020 C 
BRANCH  33  34
HETATM   34  C   UNL     1      37.872 -13.270  -2.062  1.00  0.00    -0.003 C 
HETATM   35  C   UNL     1      39.031 -13.180  -3.043  1.00  0.00     0.005 C 
ENDBRANCH  33  34
ENDBRANCH  32  33
ENDBRANCH   1  32
TORSDOF 9
ENDMDL
MODEL 3
REMARK VINA RESULT:      -8.3      1.393      2.116
REMARK  9 active torsions:
REMARK  status: ('A' for Active; 'I' for Inactive)
REMARK    1  A    between atoms: C_2  and  C_3 
REMARK    2  A    between atoms: C_3  and  C_4 
REMARK    3  A    between atoms: C_4  and  N_5 
REMARK    4  A    between atoms: C_9  and  C_10 
REMARK    5  A    between atoms: C_13  and  C_14 
REMARK    6  A    between atoms: C_14  and  O_15 
REMARK    7  A    between atoms: C_20  and  C_21 
REMARK       I    between atoms: C_21  and  N_22 
REMARK    8  A    between atoms: N_22  and  C_23 
REMARK    9  A    between atoms: C_24  and  O_25 
ROOT
HETATM    1  N   UNL     1      41.850 -12.206   4.902  1.00  0.00    -0.303 N 
HETATM    2  C   UNL     1      42.572 -11.575   3.889  1.00  0.00     0.323 C 
HETATM    3  O   UNL     1      42.860 -10.380   3.882  1.00  0.00    -0.247 OA
HETATM    4  N   UNL     1      43.009 -12.358   2.870  1.00  0.00    -0.330 N 
HETATM    5  C   UNL     1      42.551 -13.696   2.595  1.00  0.00     0.160 C 
HETATM    6  C   UNL     1      41.981 -14.314   3.834  1.00  0.00     0.059 C 
HETATM    7  C   UNL     1      41.605 -13.589   4.908  1.00  0.00     0.026 C 
HETATM    8  C   UNL     1      40.896 -14.196   6.097  1.00  0.00     0.069 C 
HETATM    9  H   UNL     1      43.469 -11.846   2.130  1.00  0.00     0.165 HD
ENDROOT
BRANCH   6  10
HETATM   10  C   UNL     1      41.850 -15.796   3.766  1.00  0.00     0.256 C 
HETATM   11  N   UNL     1      43.046 -16.421   3.504  1.00  0.00    -0.321 N 
HETATM   12  H   UNL     1      43.887 -15.854   3.434  1.00  0.00     0.169 HD
HETATM   13  O   UNL     1      40.755 -16.322   3.904  1.00  0.00    -0.267 OA
BRANCH  11  14
HETATM   14  C   UNL     1      43.287 -17.805   3.354  1.00  0.00     0.068 A 
HETATM   15  C   UNL     1      43.879 -18.474   4.446  1.00  0.00     0.095 A 
HETATM   16  C   UNL     1      44.155 -19.843   4.356  1.00  0.00     0.039 A 
HETATM   17  C   UNL     1      43.836 -20.547   3.193  1.00  0.00     0.003 A 
HETATM   18  C   UNL     1      43.245 -19.889   2.119  1.00  0.00     0.002 A 
HETATM   19  C   UNL     1      42.971 -18.523   2.197  1.00  0.00     0.032 A 
BRANCH  15  20
HETATM   20  O   UNL     1      44.144 -17.689   5.546  1.00  0.00    -0.354 OA
HETATM   21  C   UNL     1      43.361 -17.931   6.708  1.00  0.00     0.210 C 
ENDBRANCH  15  20
ENDBRANCH  11  14
ENDBRANCH   6  10
BRANCH   5  22
HETATM   22  C   UNL     1      41.602 -13.697   1.405  1.00  0.00    -0.031 A 
HETATM   23  C   UNL     1      41.308 -12.493   0.745  1.00  0.00     0.010 A 
HETATM   24  C   UNL     1      40.505 -12.484  -0.399  1.00  0.00     0.018 A 
HETATM   25  C   UNL     1      39.983 -13.679  -0.906  1.00  0.00     0.039 A 
HETATM   26  C   UNL     1      40.242 -14.880  -0.236  1.00  0.00     0.018 A 
HETATM   27  C   UNL     1      41.041 -14.888   0.912  1.00  0.00     0.010 A 
BRANCH  25  28
HETATM   28  C   UNL     1      39.187 -13.620  -2.162  1.00  0.00     0.292 C 
HETATM   29  O   UNL     1      39.670 -13.760  -3.275  1.00  0.00    -0.259 OA
BRANCH  28  30
HETATM   30  O   UNL     1      37.872 -13.434  -1.886  1.00  0.00    -0.323 OA
HETATM   31  C   UNL     1      37.345 -12.205  -2.388  1.00  0.00     0.213 C 
ENDBRANCH  28  30
ENDBRANCH  25  28
ENDBRANCH   5  22
BRANCH   1  32
HETATM   32  C   UNL     1      41.470 -11.351   6.036  1.00  0.00     0.133 C 
BRANCH  32  33
HETATM   33  C   UNL     1      40.378 -10.345   5.657  1.00  0.00     0.020 C 
BRANCH  33  34
HETATM   34  C   UNL     1      39.140 -11.051   5.107  1.00  0.00    -0.003 C 
HETATM   35  C   UNL     1      38.900 -10.701   3.647  1.00  0.00     0.005 C 
ENDBRANCH  33  34
ENDBRANCH  32  33
ENDBRANCH   1  32
TORSDOF 9
ENDMDL
MODEL 4
REMARK VINA RESULT:      -8.0      2.566      7.011
REMARK  9 active torsions:
REMARK  status: ('A' for Active; 'I' for Inactive)
REMARK    1  A    between atoms: C_2  and  C_3 
REMARK    2  A    between atoms: C_3  and  C_4 
REMARK    3  A    between atoms: C_4  and  N_5 
REMARK    4  A    between atoms: C_9  and  C_10 
REMARK    5  A    between atoms: C_13  and  C_14 
REMARK    6  A    between atoms: C_14  and  O_15 
REMARK    7  A    between atoms: C_20  and  C_21 
REMARK       I    between atoms: C_21  and  N_22 
REMARK    8  A    between atoms: N_22  and  C_23 
REMARK    9  A    between atoms: C_24  and  O_25 
ROOT
HETATM    1  N   UNL     1      43.222 -16.956   5.259  1.00  0.00    -0.303 N 
HETATM    2  C   UNL     1      43.821 -16.143   6.221  1.00  0.00     0.323 C 
HETATM    3  O   UNL     1      44.285 -16.551   7.285  1.00  0.00    -0.247 OA
HETATM    4  N   UNL     1      43.922 -14.821   5.930  1.00  0.00    -0.330 N 
HETATM    5  C   UNL     1      43.215 -14.149   4.869  1.00  0.00     0.160 C 
HETATM    6  C   UNL     1      42.811 -15.129   3.812  1.00  0.00     0.059 C 
HETATM    7  C   UNL     1      42.771 -16.461   4.025  1.00  0.00     0.026 C 
HETATM    8  C   UNL     1      42.224 -17.436   3.008  1.00  0.00     0.069 C 
HETATM    9  H   UNL     1      44.301 -14.265   6.683  1.00  0.00     0.165 HD
ENDROOT
BRANCH   6  10
HETATM   10  C   UNL     1      42.440 -14.501   2.513  1.00  0.00     0.256 C 
HETATM   11  N   UNL     1      41.079 -14.460   2.317  1.00  0.00    -0.321 N 
HETATM   12  H   UNL     1      40.469 -14.796   3.058  1.00  0.00     0.169 HD
HETATM   13  O   UNL     1      43.310 -14.122   1.744  1.00  0.00    -0.267 OA
BRANCH  11  14
HETATM   14  C   UNL     1      40.380 -13.957   1.197  1.00  0.00     0.068 A 
HETATM   15  C   UNL     1      39.772 -12.691   1.339  1.00  0.00     0.095 A 
HETATM   16  C   UNL     1      39.054 -12.142   0.271  1.00  0.00     0.039 A 
HETATM   17  C   UNL     1      38.947 -12.839  -0.934  1.00  0.00     0.003 A 
HETATM   18  C   UNL     1      39.554 -14.084  -1.076  1.00  0.00     0.002 A 
HETATM   19  C   UNL     1      40.268 -14.642  -0.015  1.00  0.00     0.032 A 
BRANCH  15  20
HETATM   20  O   UNL     1      39.945 -12.087   2.564  1.00  0.00    -0.354 OA
HETATM   21  C   UNL     1      39.478 -10.749   2.689  1.00  0.00     0.210 C 
ENDBRANCH  15  20
ENDBRANCH  11  14
ENDBRANCH   6  10
BRANCH   5  22
HETATM   22  C   UNL     1      42.062 -13.331   5.435  1.00  0.00    -0.031 A 
HETATM   23  C   UNL     1      42.206 -11.945   5.603  1.00  0.00     0.010 A 
HETATM   24  C   UNL     1      41.133 -11.165   6.043  1.00  0.00     0.018 A 
HETATM   25  C   UNL     1      39.896 -11.757   6.323  1.00  0.00     0.039 A 
HETATM   26  C   UNL     1      39.753 -13.143   6.192  1.00  0.00     0.018 A 
HETATM   27  C   UNL     1      40.828 -13.923   5.756  1.00  0.00     0.010 A 
BRANCH  25  28
HETATM   28  C   UNL     1      38.770 -10.871   6.727  1.00  0.00     0.292 C 
HETATM   29  O   UNL     1      38.106 -10.219   5.937  1.00  0.00    -0.259 OA
BRANCH  28  30
HETATM   30  O   UNL     1      38.574 -10.932   8.068  1.00  0.00    -0.323 OA
HETATM   31  C   UNL     1      39.181  -9.861   8.790  1.00  0.00     0.213 C 
ENDBRANCH  28  30
ENDBRANCH  25  28
ENDBRANCH   5  22
BRANCH   1  32
HETATM   32  C   UNL     1      43.211 -18.394   5.564  1.00  0.00     0.133 C 
BRANCH  32  33
HETATM   33  C   UNL     1      44.396 -19.126   4.927  1.00  0.00     0.020 C 
BRANCH  33  34
HETATM   34  C   UNL     1      44.055 -20.587   4.636  1.00  0.00    -0.003 C 
HETATM   35  C   UNL     1      43.768 -20.809   3.159  1.00  0.00     0.005 C 
ENDBRANCH  33  34
ENDBRANCH  32  33
ENDBRANCH   1  32
TORSDOF 9
ENDMDL
MODEL 5
REMARK VINA RESULT:      -7.7      2.807      7.762
REMARK  9 active torsions:
REMARK  status: ('A' for Active; 'I' for Inactive)
REMARK    1  A    between atoms: C_2  and  C_3 
REMARK    2  A    between atoms: C_3  and  C_4 
REMARK    3  A    between atoms: C_4  and  N_5 
REMARK    4  A    between atoms: C_9  and  C_10 
REMARK    5  A    between atoms: C_13  and  C_14 
REMARK    6  A    between atoms: C_14  and  O_15 
REMARK    7  A    between atoms: C_20  and  C_21 
REMARK       I    between atoms: C_21  and  N_22 
REMARK    8  A    between atoms: N_22  and  C_23 
REMARK    9  A    between atoms: C_24  and  O_25 
ROOT
HETATM    1  N   UNL     1      42.093 -15.955   3.225  1.00  0.00    -0.303 N 
HETATM    2  C   UNL     1      43.065 -15.346   4.020  1.00  0.00     0.323 C 
HETATM    3  O   UNL     1      43.833 -15.952   4.765  1.00  0.00    -0.247 OA
HETATM    4  N   UNL     1      43.179 -13.997   3.923  1.00  0.00    -0.330 N 
HETATM    5  C   UNL     1      42.210 -13.124   3.310  1.00  0.00     0.160 C 
HETATM    6  C   UNL     1      41.371 -13.885   2.332  1.00  0.00     0.059 C 
HETATM    7  C   UNL     1      41.284 -15.233   2.332  1.00  0.00     0.026 C 
HETATM    8  C   UNL     1      40.327 -15.991   1.444  1.00  0.00     0.069 C 
HETATM    9  H   UNL     1      43.849 -13.597   4.565  1.00  0.00     0.165 HD
ENDROOT
BRANCH   6  10
HETATM   10  C   UNL     1      40.627 -13.023   1.371  1.00  0.00     0.256 C 
HETATM   11  N   UNL     1      41.334 -12.787   0.216  1.00  0.00    -0.321 N 
HETATM   12  H   UNL     1      42.237 -13.239   0.096  1.00  0.00     0.169 HD
HETATM   13  O   UNL     1      39.525 -12.583   1.668  1.00  0.00    -0.267 OA
BRANCH  11  14
HETATM   14  C   UNL     1      40.945 -12.003  -0.893  1.00  0.00     0.068 A 
HETATM   15  C   UNL     1      40.326 -12.677  -1.967  1.00  0.00     0.095 A 
HETATM   16  C   UNL     1      39.928 -11.960  -3.100  1.00  0.00     0.039 A 
HETATM   17  C   UNL     1      40.135 -10.581  -3.165  1.00  0.00     0.003 A 
HETATM   18  C   UNL     1      40.739  -9.915  -2.103  1.00  0.00     0.002 A 
HETATM   19  C   UNL     1      41.143 -10.622  -0.970  1.00  0.00     0.032 A 
BRANCH  15  20
HETATM   20  O   UNL     1      40.162 -14.033  -1.797  1.00  0.00    -0.354 OA
HETATM   21  C   UNL     1      38.927 -14.589  -2.234  1.00  0.00     0.210 C 
ENDBRANCH  15  20
ENDBRANCH  11  14
ENDBRANCH   6  10
BRANCH   5  22
HETATM   22  C   UNL     1      41.411 -12.387   4.376  1.00  0.00    -0.031 A 
HETATM   23  C   UNL     1      41.685 -11.036   4.644  1.00  0.00     0.010 A 
HETATM   24  C   UNL     1      40.909 -10.320   5.560  1.00  0.00     0.018 A 
HETATM   25  C   UNL     1      39.844 -10.941   6.223  1.00  0.00     0.039 A 
HETATM   26  C   UNL     1      39.585 -12.295   5.988  1.00  0.00     0.018 A 
HETATM   27  C   UNL     1      40.365 -13.013   5.076  1.00  0.00     0.010 A 
BRANCH  25  28
HETATM   28  C   UNL     1      39.012 -10.115   7.140  1.00  0.00     0.292 C 
HETATM   29  O   UNL     1      38.660  -8.973   6.888  1.00  0.00    -0.259 OA
BRANCH  28  30
HETATM   30  O   UNL     1      38.677 -10.822   8.247  1.00  0.00    -0.323 OA
HETATM   31  C   UNL     1      38.956 -10.144   9.472  1.00  0.00     0.213 C 
ENDBRANCH  28  30
ENDBRANCH  25  28
ENDBRANCH   5  22
BRANCH   1  32
HETATM   32  C   UNL     1      42.056 -17.423   3.284  1.00  0.00     0.133 C 
BRANCH  32  33
HETATM   33  C   UNL     1      43.014 -18.063   2.273  1.00  0.00     0.020 C 
BRANCH  33  34
HETATM   34  C   UNL     1      43.629 -19.347   2.828  1.00  0.00    -0.003 C 
HETATM   35  C   UNL     1      43.620 -20.462   1.794  1.00  0.00     0.005 C 
ENDBRANCH  33  34
ENDBRANCH  32  33
ENDBRANCH   1  32
TORSDOF 9
ENDMDL
MODEL 6
REMARK VINA RESULT:      -7.5      1.953      6.618
REMARK  9 active torsions:
REMARK  status: ('A' for Active; 'I' for Inactive)
REMARK    1  A    between atoms: C_2  and  C_3 
REMARK    2  A    between atoms: C_3  and  C_4 
REMARK    3  A    between atoms: C_4  and  N_5 
REMARK    4  A    between atoms: C_9  and  C_10 
REMARK    5  A    between atoms: C_13  and  C_14 
REMARK    6  A    between atoms: C_14  and  O_15 
REMARK    7  A    between atoms: C_20  and  C_21 
REMARK       I    between atoms: C_21  and  N_22 
REMARK    8  A    between atoms: N_22  and  C_23 
REMARK    9  A    between atoms: C_24  and  O_25 
ROOT
HETATM    1  N   UNL     1      42.187 -16.004   5.863  1.00  0.00    -0.303 N 
HETATM    2  C   UNL     1      40.829 -15.850   5.586  1.00  0.00     0.323 C 
HETATM    3  O   UNL     1      40.020 -16.775   5.537  1.00  0.00    -0.247 OA
HETATM    4  N   UNL     1      40.382 -14.582   5.395  1.00  0.00    -0.330 N 
HETATM    5  C   UNL     1      41.220 -13.433   5.165  1.00  0.00     0.160 C 
HETATM    6  C   UNL     1      42.596 -13.678   5.698  1.00  0.00     0.059 C 
HETATM    7  C   UNL     1      43.064 -14.913   5.981  1.00  0.00     0.026 C 
HETATM    8  C   UNL     1      44.498 -15.173   6.379  1.00  0.00     0.069 C 
HETATM    9  H   UNL     1      39.408 -14.527   5.132  1.00  0.00     0.165 HD
ENDROOT
BRANCH   6  10
HETATM   10  C   UNL     1      43.409 -12.442   5.871  1.00  0.00     0.256 C 
HETATM   11  N   UNL     1      43.368 -11.959   7.158  1.00  0.00    -0.321 N 
HETATM   12  H   UNL     1      42.856 -12.486   7.860  1.00  0.00     0.169 HD
HETATM   13  O   UNL     1      43.991 -11.951   4.915  1.00  0.00    -0.267 OA
BRANCH  11  14
HETATM   14  C   UNL     1      44.000 -10.804   7.671  1.00  0.00     0.068 A 
HETATM   15  C   UNL     1      43.196  -9.657   7.842  1.00  0.00     0.095 A 
HETATM   16  C   UNL     1      43.764  -8.478   8.335  1.00  0.00     0.039 A 
HETATM   17  C   UNL     1      45.120  -8.437   8.664  1.00  0.00     0.003 A 
HETATM   18  C   UNL     1      45.912  -9.570   8.502  1.00  0.00     0.002 A 
HETATM   19  C   UNL     1      45.355 -10.750   8.007  1.00  0.00     0.032 A 
BRANCH  15  20
HETATM   20  O   UNL     1      41.872  -9.808   7.496  1.00  0.00    -0.354 OA
HETATM   21  C   UNL     1      41.424  -9.091   6.351  1.00  0.00     0.210 C 
ENDBRANCH  15  20
ENDBRANCH  11  14
ENDBRANCH   6  10
BRANCH   5  22
HETATM   22  C   UNL     1      41.182 -13.036   3.695  1.00  0.00    -0.031 A 
HETATM   23  C   UNL     1      41.780 -13.865   2.733  1.00  0.00     0.010 A 
HETATM   24  C   UNL     1      41.685 -13.561   1.372  1.00  0.00     0.018 A 
HETATM   25  C   UNL     1      40.990 -12.423   0.948  1.00  0.00     0.039 A 
HETATM   26  C   UNL     1      40.421 -11.572   1.902  1.00  0.00     0.018 A 
HETATM   27  C   UNL     1      40.520 -11.874   3.263  1.00  0.00     0.010 A 
BRANCH  25  28
HETATM   28  C   UNL     1      40.866 -12.181  -0.515  1.00  0.00     0.292 C 
HETATM   29  O   UNL     1      41.257 -11.164  -1.067  1.00  0.00    -0.259 OA
BRANCH  28  30
HETATM   30  O   UNL     1      40.307 -13.253  -1.130  1.00  0.00    -0.323 OA
HETATM   31  C   UNL     1      38.892 -13.154  -1.291  1.00  0.00     0.213 C 
ENDBRANCH  28  30
ENDBRANCH  25  28
ENDBRANCH   5  22
BRANCH   1  32
HETATM   32  C   UNL     1      42.621 -17.377   6.155  1.00  0.00     0.133 C 
BRANCH  32  33
HETATM   33  C   UNL     1      43.552 -17.929   5.070  1.00  0.00     0.020 C 
BRANCH  33  34
HETATM   34  C   UNL     1      43.095 -17.501   3.677  1.00  0.00    -0.003 C 
HETATM   35  C   UNL     1      43.440 -18.549   2.630  1.00  0.00     0.005 C 
ENDBRANCH  33  34
ENDBRANCH  32  33
ENDBRANCH   1  32
TORSDOF 9
ENDMDL
MODEL 7
REMARK VINA RESULT:      -7.5      2.208      6.690
REMARK  9 active torsions:
REMARK  status: ('A' for Active; 'I' for Inactive)
REMARK    1  A    between atoms: C_2  and  C_3 
REMARK    2  A    between atoms: C_3  and  C_4 
REMARK    3  A    between atoms: C_4  and  N_5 
REMARK    4  A    between atoms: C_9  and  C_10 
REMARK    5  A    between atoms: C_13  and  C_14 
REMARK    6  A    between atoms: C_14  and  O_15 
REMARK    7  A    between atoms: C_20  and  C_21 
REMARK       I    between atoms: C_21  and  N_22 
REMARK    8  A    between atoms: N_22  and  C_23 
REMARK    9  A    between atoms: C_24  and  O_25 
ROOT
HETATM    1  N   UNL     1      42.140 -15.353   5.973  1.00  0.00    -0.303 N 
HETATM    2  C   UNL     1      40.786 -15.465   5.660  1.00  0.00     0.323 C 
HETATM    3  O   UNL     1      40.172 -16.529   5.601  1.00  0.00    -0.247 OA
HETATM    4  N   UNL     1      40.110 -14.308   5.444  1.00  0.00    -0.330 N 
HETATM    5  C   UNL     1      40.717 -13.020   5.223  1.00  0.00     0.160 C 
HETATM    6  C   UNL     1      42.099 -12.993   5.795  1.00  0.00     0.059 C 
HETATM    7  C   UNL     1      42.788 -14.113   6.102  1.00  0.00     0.026 C 
HETATM    8  C   UNL     1      44.233 -14.091   6.540  1.00  0.00     0.069 C 
HETATM    9  H   UNL     1      39.151 -14.444   5.156  1.00  0.00     0.165 HD
ENDROOT
BRANCH   6  10
HETATM   10  C   UNL     1      42.654 -11.623   5.975  1.00  0.00     0.256 C 
HETATM   11  N   UNL     1      42.503 -11.157   7.260  1.00  0.00    -0.321 N 
HETATM   12  H   UNL     1      42.094 -11.774   7.957  1.00  0.00     0.169 HD
HETATM   13  O   UNL     1      43.143 -11.028   5.025  1.00  0.00    -0.267 OA
BRANCH  11  14
HETATM   14  C   UNL     1      42.892  -9.901   7.778  1.00  0.00     0.068 A 
HETATM   15  C   UNL     1      44.187  -9.810   8.331  1.00  0.00     0.095 A 
HETATM   16  C   UNL     1      44.628  -8.598   8.872  1.00  0.00     0.039 A 
HETATM   17  C   UNL     1      43.793  -7.479   8.856  1.00  0.00     0.003 A 
HETATM   18  C   UNL     1      42.519  -7.566   8.303  1.00  0.00     0.002 A 
HETATM   19  C   UNL     1      42.068  -8.773   7.766  1.00  0.00     0.032 A 
BRANCH  15  20
HETATM   20  O   UNL     1      44.930 -10.969   8.288  1.00  0.00    -0.354 OA
HETATM   21  C   UNL     1      46.103 -10.947   7.483  1.00  0.00     0.210 C 
ENDBRANCH  15  20
ENDBRANCH  11  14
ENDBRANCH   6  10
BRANCH   5  22
HETATM   22  C   UNL     1      40.644 -12.647   3.749  1.00  0.00    -0.031 A 
HETATM   23  C   UNL     1      41.539 -13.227   2.836  1.00  0.00     0.010 A 
HETATM   24  C   UNL     1      41.436 -12.960   1.468  1.00  0.00     0.018 A 
HETATM   25  C   UNL     1      40.434 -12.109   0.987  1.00  0.00     0.039 A 
HETATM   26  C   UNL     1      39.559 -11.499   1.892  1.00  0.00     0.018 A 
HETATM   27  C   UNL     1      39.666 -11.762   3.261  1.00  0.00     0.010 A 
BRANCH  25  28
HETATM   28  C   UNL     1      40.330 -11.910  -0.484  1.00  0.00     0.292 C 
HETATM   29  O   UNL     1      41.216 -11.414  -1.163  1.00  0.00    -0.259 OA
BRANCH  28  30
HETATM   30  O   UNL     1      39.150 -12.392  -0.948  1.00  0.00    -0.323 OA
HETATM   31  C   UNL     1      39.187 -13.777  -1.293  1.00  0.00     0.213 C 
ENDBRANCH  28  30
ENDBRANCH  25  28
ENDBRANCH   5  22
BRANCH   1  32
HETATM   32  C   UNL     1      42.823 -16.615   6.291  1.00  0.00     0.133 C 
BRANCH  32  33
HETATM   33  C   UNL     1      43.877 -16.980   5.241  1.00  0.00     0.020 C 
BRANCH  33  34
HETATM   34  C   UNL     1      43.229 -17.553   3.981  1.00  0.00    -0.003 C 
HETATM   35  C   UNL     1      43.268 -16.557   2.832  1.00  0.00     0.005 C 
ENDBRANCH  33  34
ENDBRANCH  32  33
ENDBRANCH   1  32
TORSDOF 9
ENDMDL
MODEL 8
REMARK VINA RESULT:      -7.4      3.006      6.813
REMARK  9 active torsions:
REMARK  status: ('A' for Active; 'I' for Inactive)
REMARK    1  A    between atoms: C_2  and  C_3 
REMARK    2  A    between atoms: C_3  and  C_4 
REMARK    3  A    between atoms: C_4  and  N_5 
REMARK    4  A    between atoms: C_9  and  C_10 
REMARK    5  A    between atoms: C_13  and  C_14 
REMARK    6  A    between atoms: C_14  and  O_15 
REMARK    7  A    between atoms: C_20  and  C_21 
REMARK       I    between atoms: C_21  and  N_22 
REMARK    8  A    between atoms: N_22  and  C_23 
REMARK    9  A    between atoms: C_24  and  O_25 
ROOT
HETATM    1  N   UNL     1      40.806 -15.333   3.421  1.00  0.00    -0.303 N 
HETATM    2  C   UNL     1      39.822 -15.232   2.438  1.00  0.00     0.323 C 
HETATM    3  O   UNL     1      39.600 -16.089   1.585  1.00  0.00    -0.247 OA
HETATM    4  N   UNL     1      39.043 -14.120   2.464  1.00  0.00    -0.330 N 
HETATM    5  C   UNL     1      39.329 -12.924   3.215  1.00  0.00     0.160 C 
HETATM    6  C   UNL     1      40.242 -13.234   4.359  1.00  0.00     0.059 C 
HETATM    7  C   UNL     1      40.979 -14.364   4.422  1.00  0.00     0.026 C 
HETATM    8  C   UNL     1      42.009 -14.609   5.501  1.00  0.00     0.069 C 
HETATM    9  H   UNL     1      38.391 -14.060   1.694  1.00  0.00     0.165 HD
ENDROOT
BRANCH   6  10
HETATM   10  C   UNL     1      40.280 -12.179   5.409  1.00  0.00     0.256 C 
HETATM   11  N   UNL     1      41.355 -11.333   5.269  1.00  0.00    -0.321 N 
HETATM   12  H   UNL     1      41.974 -11.459   4.472  1.00  0.00     0.169 HD
HETATM   13  O   UNL     1      39.430 -12.157   6.288  1.00  0.00    -0.267 OA
BRANCH  11  14
HETATM   14  C   UNL     1      41.712 -10.241   6.091  1.00  0.00     0.068 A 
HETATM   15  C   UNL     1      42.777 -10.441   6.995  1.00  0.00     0.095 A 
HETATM   16  C   UNL     1      43.171  -9.403   7.845  1.00  0.00     0.039 A 
HETATM   17  C   UNL     1      42.518  -8.170   7.795  1.00  0.00     0.003 A 
HETATM   18  C   UNL     1      41.473  -7.969   6.898  1.00  0.00     0.002 A 
HETATM   19  C   UNL     1      41.069  -9.001   6.049  1.00  0.00     0.032 A 
BRANCH  15  20
HETATM   20  O   UNL     1      43.356 -11.690   6.958  1.00  0.00    -0.354 OA
HETATM   21  C   UNL     1      44.777 -11.738   7.016  1.00  0.00     0.210 C 
ENDBRANCH  15  20
ENDBRANCH  11  14
ENDBRANCH   6  10
BRANCH   5  22
HETATM   22  C   UNL     1      39.838 -11.826   2.290  1.00  0.00    -0.031 A 
HETATM   23  C   UNL     1      39.246 -10.554   2.325  1.00  0.00     0.010 A 
HETATM   24  C   UNL     1      39.752  -9.510   1.544  1.00  0.00     0.018 A 
HETATM   25  C   UNL     1      40.860  -9.720   0.715  1.00  0.00     0.039 A 
HETATM   26  C   UNL     1      41.435 -10.994   0.647  1.00  0.00     0.018 A 
HETATM   27  C   UNL     1      40.925 -12.039   1.425  1.00  0.00     0.010 A 
BRANCH  25  28
HETATM   28  C   UNL     1      41.396  -8.559  -0.046  1.00  0.00     0.292 C 
HETATM   29  O   UNL     1      40.853  -7.466  -0.082  1.00  0.00    -0.259 OA
BRANCH  28  30
HETATM   30  O   UNL     1      42.572  -8.882  -0.642  1.00  0.00    -0.323 OA
HETATM   31  C   UNL     1      43.109  -7.842  -1.459  1.00  0.00     0.213 C 
ENDBRANCH  28  30
ENDBRANCH  25  28
ENDBRANCH   5  22
BRANCH   1  32
HETATM   32  C   UNL     1      41.571 -16.589   3.423  1.00  0.00     0.133 C 
BRANCH  32  33
HETATM   33  C   UNL     1      42.789 -16.522   2.497  1.00  0.00     0.020 C 
BRANCH  33  34
HETATM   34  C   UNL     1      43.520 -17.863   2.443  1.00  0.00    -0.003 C 
HETATM   35  C   UNL     1      43.962 -18.313   3.827  1.00  0.00     0.005 C 
ENDBRANCH  33  34
ENDBRANCH  32  33
ENDBRANCH   1  32
TORSDOF 9
ENDMDL
MODEL 9
REMARK VINA RESULT:      -7.4     15.103     17.238
REMARK  9 active torsions:
REMARK  status: ('A' for Active; 'I' for Inactive)
REMARK    1  A    between atoms: C_2  and  C_3 
REMARK    2  A    between atoms: C_3  and  C_4 
REMARK    3  A    between atoms: C_4  and  N_5 
REMARK    4  A    between atoms: C_9  and  C_10 
REMARK    5  A    between atoms: C_13  and  C_14 
REMARK    6  A    between atoms: C_14  and  O_15 
REMARK    7  A    between atoms: C_20  and  C_21 
REMARK       I    between atoms: C_21  and  N_22 
REMARK    8  A    between atoms: N_22  and  C_23 
REMARK    9  A    between atoms: C_24  and  O_25 
ROOT
HETATM    1  N   UNL     1      43.740 -30.121   1.719  1.00  0.00    -0.303 N 
HETATM    2  C   UNL     1      42.915 -29.259   0.997  1.00  0.00     0.323 C 
HETATM    3  O   UNL     1      41.699 -29.163   1.158  1.00  0.00    -0.247 OA
HETATM    4  N   UNL     1      43.518 -28.454   0.086  1.00  0.00    -0.330 N 
HETATM    5  C   UNL     1      44.864 -28.615  -0.403  1.00  0.00     0.160 C 
HETATM    6  C   UNL     1      45.682 -29.393   0.579  1.00  0.00     0.059 C 
HETATM    7  C   UNL     1      45.135 -30.147   1.556  1.00  0.00     0.026 C 
HETATM    8  C   UNL     1      45.954 -31.046   2.452  1.00  0.00     0.069 C 
HETATM    9  H   UNL     1      42.873 -27.897  -0.457  1.00  0.00     0.165 HD
ENDROOT
BRANCH   6  10
HETATM   10  C   UNL     1      47.153 -29.277   0.370  1.00  0.00     0.256 C 
HETATM   11  N   UNL     1      47.672 -30.340  -0.331  1.00  0.00    -0.321 N 
HETATM   12  H   UNL     1      47.035 -31.053  -0.677  1.00  0.00     0.169 HD
HETATM   13  O   UNL     1      47.766 -28.327   0.835  1.00  0.00    -0.267 OA
BRANCH  11  14
HETATM   14  C   UNL     1      49.020 -30.566  -0.690  1.00  0.00     0.068 A 
HETATM   15  C   UNL     1      49.797 -31.337   0.200  1.00  0.00     0.095 A 
HETATM   16  C   UNL     1      51.142 -31.588  -0.091  1.00  0.00     0.039 A 
HETATM   17  C   UNL     1      51.711 -31.084  -1.263  1.00  0.00     0.003 A 
HETATM   18  C   UNL     1      50.942 -30.330  -2.144  1.00  0.00     0.002 A 
HETATM   19  C   UNL     1      49.601 -30.071  -1.860  1.00  0.00     0.032 A 
BRANCH  15  20
HETATM   20  O   UNL     1      49.137 -31.792   1.319  1.00  0.00    -0.354 OA
HETATM   21  C   UNL     1      49.912 -31.938   2.504  1.00  0.00     0.210 C 
ENDBRANCH  15  20
ENDBRANCH  11  14
ENDBRANCH   6  10
BRANCH   5  22
HETATM   22  C   UNL     1      44.850 -29.202  -1.807  1.00  0.00    -0.031 A 
HETATM   23  C   UNL     1      44.416 -30.522  -2.009  1.00  0.00     0.010 A 
HETATM   24  C   UNL     1      44.318 -31.052  -3.298  1.00  0.00     0.018 A 
HETATM   25  C   UNL     1      44.652 -30.271  -4.411  1.00  0.00     0.039 A 
HETATM   26  C   UNL     1      45.119 -28.966  -4.218  1.00  0.00     0.018 A 
HETATM   27  C   UNL     1      45.222 -28.438  -2.928  1.00  0.00     0.010 A 
BRANCH  25  28
HETATM   28  C   UNL     1      44.469 -30.864  -5.764  1.00  0.00     0.292 C 
HETATM   29  O   UNL     1      43.377 -31.079  -6.265  1.00  0.00    -0.259 OA
BRANCH  28  30
HETATM   30  O   UNL     1      45.671 -31.082  -6.355  1.00  0.00    -0.323 OA
HETATM   31  C   UNL     1      46.113 -32.438  -6.282  1.00  0.00     0.213 C 
ENDBRANCH  28  30
ENDBRANCH  25  28
ENDBRANCH   5  22
BRANCH   1  32
HETATM   32  C   UNL     1      43.071 -30.913   2.761  1.00  0.00     0.133 C 
BRANCH  32  33
HETATM   33  C   UNL     1      42.164 -31.996   2.168  1.00  0.00     0.020 C 
BRANCH  33  34
HETATM   34  C   UNL     1      42.983 -33.109   1.517  1.00  0.00    -0.003 C 
HETATM   35  C   UNL     1      42.724 -33.190   0.020  1.00  0.00     0.005 C 
ENDBRANCH  33  34
ENDBRANCH  32  33
ENDBRANCH   1  32
TORSDOF 9
ENDMDL
MODEL 10
REMARK VINA RESULT:      -7.4      1.863      2.081
REMARK  9 active torsions:
REMARK  status: ('A' for Active; 'I' for Inactive)
REMARK    1  A    between atoms: C_2  and  C_3 
REMARK    2  A    between atoms: C_3  and  C_4 
REMARK    3  A    between atoms: C_4  and  N_5 
REMARK    4  A    between atoms: C_9  and  C_10 
REMARK    5  A    between atoms: C_13  and  C_14 
REMARK    6  A    between atoms: C_14  and  O_15 
REMARK    7  A    between atoms: C_20  and  C_21 
REMARK       I    between atoms: C_21  and  N_22 
REMARK    8  A    between atoms: N_22  and  C_23 
REMARK    9  A    between atoms: C_24  and  O_25 
ROOT
HETATM    1  N   UNL     1      40.917 -11.179   4.818  1.00  0.00    -0.303 N 
HETATM    2  C   UNL     1      41.516 -10.470   3.776  1.00  0.00     0.323 C 
HETATM    3  O   UNL     1      41.625  -9.246   3.740  1.00  0.00    -0.247 OA
HETATM    4  N   UNL     1      42.041 -11.202   2.760  1.00  0.00    -0.330 N 
HETATM    5  C   UNL     1      41.778 -12.598   2.521  1.00  0.00     0.160 C 
HETATM    6  C   UNL     1      41.334 -13.267   3.784  1.00  0.00     0.059 C 
HETATM    7  C   UNL     1      40.879 -12.582   4.855  1.00  0.00     0.026 C 
HETATM    8  C   UNL     1      40.294 -13.261   6.071  1.00  0.00     0.069 C 
HETATM    9  H   UNL     1      42.404 -10.644   2.000  1.00  0.00     0.165 HD
ENDROOT
BRANCH   6  10
HETATM   10  C   UNL     1      41.420 -14.753   3.747  1.00  0.00     0.256 C 
HETATM   11  N   UNL     1      42.718 -15.207   3.770  1.00  0.00    -0.321 N 
HETATM   12  H   UNL     1      43.470 -14.529   3.859  1.00  0.00     0.169 HD
HETATM   13  O   UNL     1      40.403 -15.426   3.667  1.00  0.00    -0.267 OA
BRANCH  11  14
HETATM   14  C   UNL     1      43.169 -16.546   3.727  1.00  0.00     0.068 A 
HETATM   15  C   UNL     1      43.666 -17.092   4.929  1.00  0.00     0.095 A 
HETATM   16  C   UNL     1      44.139 -18.408   4.951  1.00  0.00     0.039 A 
HETATM   17  C   UNL     1      44.112 -19.182   3.789  1.00  0.00     0.003 A 
HETATM   18  C   UNL     1      43.614 -18.645   2.605  1.00  0.00     0.002 A 
HETATM   19  C   UNL     1      43.145 -17.332   2.572  1.00  0.00     0.032 A 
BRANCH  15  20
HETATM   20  O   UNL     1      43.640 -16.248   6.017  1.00  0.00    -0.354 OA
HETATM   21  C   UNL     1      42.744 -16.586   7.068  1.00  0.00     0.210 C 
ENDBRANCH  15  20
ENDBRANCH  11  14
ENDBRANCH   6  10
BRANCH   5  22
HETATM   22  C   UNL     1      40.813 -12.764   1.355  1.00  0.00    -0.031 A 
HETATM   23  C   UNL     1      39.699 -11.916   1.245  1.00  0.00     0.010 A 
HETATM   24  C   UNL     1      38.847 -11.998   0.140  1.00  0.00     0.018 A 
HETATM   25  C   UNL     1      39.095 -12.927  -0.877  1.00  0.00     0.039 A 
HETATM   26  C   UNL     1      40.184 -13.798  -0.760  1.00  0.00     0.018 A 
HETATM   27  C   UNL     1      41.032 -13.720   0.348  1.00  0.00     0.010 A 
BRANCH  25  28
HETATM   28  C   UNL     1      38.194 -12.927  -2.062  1.00  0.00     0.292 C 
HETATM   29  O   UNL     1      37.898 -11.921  -2.686  1.00  0.00    -0.259 OA
BRANCH  28  30
HETATM   30  O   UNL     1      37.797 -14.190  -2.358  1.00  0.00    -0.323 OA
HETATM   31  C   UNL     1      38.179 -14.624  -3.664  1.00  0.00     0.213 C 
ENDBRANCH  28  30
ENDBRANCH  25  28
ENDBRANCH   5  22
BRANCH   1  32
HETATM   32  C   UNL     1      40.442 -10.364   5.945  1.00  0.00     0.133 C 
BRANCH  32  33
HETATM   33  C   UNL     1      41.580  -9.975   6.894  1.00  0.00     0.020 C 
BRANCH  33  34
HETATM   34  C   UNL     1      41.041  -9.346   8.178  1.00  0.00    -0.003 C 
HETATM   35  C   UNL     1      42.118  -9.250   9.247  1.00  0.00     0.005 C 
ENDBRANCH  33  34
ENDBRANCH  32  33
ENDBRANCH   1  32
TORSDOF 9
ENDMDL
