MODEL 1
REMARK VINA RESULT:      -9.8      0.000      0.000
REMARK  7 active torsions:
REMARK  status: ('A' for Active; 'I' for Inactive)
REMARK    1  A    between atoms: C_3  and  O_4 
REMARK    2  A    between atoms: C_9  and  N_10 
REMARK    3  A    between atoms: C_13  and  C_14 
REMARK       I    between atoms: C_14  and  N_15 
REMARK    4  A    between atoms: N_15  and  C_16 
REMARK    5  A    between atoms: C_16  and  C_17 
REMARK    6  A    between atoms: C_17  and  N_18 
REMARK       I    between atoms: N_18  and  C_19 
REMARK    7  A    between atoms: C_19  and  C_20 
ROOT
HETATM    1  N   UNL     1      42.692 -14.130   3.986  1.00  0.00    -0.268 NA
HETATM    2  C   UNL     1      43.461 -13.205   3.139  1.00  0.00     0.098 C 
HETATM    3  C   UNL     1      43.006 -11.771   3.404  1.00  0.00     0.029 C 
HETATM    4  C   UNL     1      43.116 -11.400   4.887  1.00  0.00     0.080 C 
HETATM    5  C   UNL     1      42.396 -12.448   5.746  1.00  0.00     0.029 C 
HETATM    6  C   UNL     1      42.846 -13.877   5.428  1.00  0.00     0.098 C 
ENDROOT
BRANCH   4   7
HETATM    7  C   UNL     1      44.564 -11.210   5.339  1.00  0.00     0.221 C 
HETATM    8  N   UNL     1      44.722 -11.095   6.699  1.00  0.00    -0.359 N 
HETATM    9  H   UNL     1      43.919 -11.060   7.311  1.00  0.00     0.162 HD
HETATM   10  O   UNL     1      45.516 -11.198   4.564  1.00  0.00    -0.273 OA
BRANCH   8  11
HETATM   11  C   UNL     1      46.032 -10.907   7.301  1.00  0.00     0.142 C 
BRANCH  11  12
HETATM   12  C   UNL     1      46.192  -9.530   7.961  1.00  0.00     0.142 C 
BRANCH  12  13
HETATM   13  N   UNL     1      45.580  -9.433   9.279  1.00  0.00    -0.355 N 
HETATM   14  C   UNL     1      44.273  -9.017   9.426  1.00  0.00     0.251 C 
HETATM   15  O   UNL     1      43.596  -8.604   8.490  1.00  0.00    -0.268 OA
HETATM   16  H   UNL     1      46.034  -9.943  10.025  1.00  0.00     0.162 HD
BRANCH  14  17
HETATM   17  C   UNL     1      43.674  -9.114  10.789  1.00  0.00     0.033 A 
HETATM   18  C   UNL     1      43.387  -7.989  11.571  1.00  0.00     0.036 A 
HETATM   19  C   UNL     1      42.829  -8.157  12.840  1.00  0.00     0.012 A 
HETATM   20 BR   UNL     1      42.453  -6.638  13.903  1.00  0.00    -0.051 Br
HETATM   21  C   UNL     1      42.544  -9.429  13.334  1.00  0.00     0.019 A 
HETATM   22  C   UNL     1      42.815 -10.551  12.552  1.00  0.00     0.002 A 
HETATM   23  C   UNL     1      43.374 -10.393  11.284  1.00  0.00     0.017 A 
ENDBRANCH  14  17
ENDBRANCH  12  13
ENDBRANCH  11  12
ENDBRANCH   8  11
ENDBRANCH   4   7
BRANCH   1  24
HETATM   24  C   UNL     1      42.922 -15.481   3.636  1.00  0.00     0.106 A 
HETATM   25  N   UNL     1      43.197 -16.386   4.602  1.00  0.00    -0.233 NA
HETATM   26  C   UNL     1      43.451 -17.677   4.288  1.00  0.00     0.102 A 
HETATM   27  C   UNL     1      43.747 -18.631   5.274  1.00  0.00     0.095 A 
HETATM   28  C   UNL     1      43.436 -18.123   2.951  1.00  0.00    -0.004 A 
HETATM   29  C   UNL     1      44.011 -19.970   4.965  1.00  0.00     0.039 A 
HETATM   30  C   UNL     1      43.983 -20.388   3.640  1.00  0.00     0.004 A 
HETATM   31  C   UNL     1      43.697 -19.468   2.635  1.00  0.00     0.014 A 
HETATM   32  C   UNL     1      43.166 -17.187   1.952  1.00  0.00     0.017 A 
HETATM   33  C   UNL     1      42.921 -15.861   2.298  1.00  0.00     0.045 A 
BRANCH  27  34
HETATM   34  O   UNL     1      43.782 -18.238   6.594  1.00  0.00    -0.358 OA
HETATM   35  H   UNL     1      44.611 -17.766   6.761  1.00  0.00     0.218 HD
ENDBRANCH  27  34
ENDBRANCH   1  24
TORSDOF 7
ENDMDL
MODEL 2
REMARK VINA RESULT:      -9.5      3.965     10.180
REMARK  7 active torsions:
REMARK  status: ('A' for Active; 'I' for Inactive)
REMARK    1  A    between atoms: C_3  and  O_4 
REMARK    2  A    between atoms: C_9  and  N_10 
REMARK    3  A    between atoms: C_13  and  C_14 
REMARK       I    between atoms: C_14  and  N_15 
REMARK    4  A    between atoms: N_15  and  C_16 
REMARK    5  A    between atoms: C_16  and  C_17 
REMARK    6  A    between atoms: C_17  and  N_18 
REMARK       I    between atoms: N_18  and  C_19 
REMARK    7  A    between atoms: C_19  and  C_20 
ROOT
HETATM    1  N   UNL     1      43.337  -9.871   8.150  1.00  0.00    -0.268 NA
HETATM    2  C   UNL     1      42.120  -9.664   7.351  1.00  0.00     0.098 C 
HETATM    3  C   UNL     1      42.470  -9.710   5.865  1.00  0.00     0.029 C 
HETATM    4  C   UNL     1      43.179 -11.014   5.484  1.00  0.00     0.080 C 
HETATM    5  C   UNL     1      44.379 -11.251   6.412  1.00  0.00     0.029 C 
HETATM    6  C   UNL     1      44.001 -11.159   7.893  1.00  0.00     0.098 C 
ENDROOT
BRANCH   4   7
HETATM    7  C   UNL     1      42.235 -12.216   5.477  1.00  0.00     0.221 C 
HETATM    8  N   UNL     1      41.014 -11.973   4.894  1.00  0.00    -0.359 N 
HETATM    9  H   UNL     1      40.766 -11.045   4.583  1.00  0.00     0.162 HD
HETATM   10  O   UNL     1      42.545 -13.318   5.918  1.00  0.00    -0.273 OA
BRANCH   8  11
HETATM   11  C   UNL     1      39.994 -13.005   4.805  1.00  0.00     0.142 C 
BRANCH  11  12
HETATM   12  C   UNL     1      40.111 -13.851   3.530  1.00  0.00     0.142 C 
BRANCH  12  13
HETATM   13  N   UNL     1      40.857 -15.089   3.711  1.00  0.00    -0.355 N 
HETATM   14  C   UNL     1      42.033 -15.316   3.027  1.00  0.00     0.251 C 
HETATM   15  O   UNL     1      42.456 -14.558   2.160  1.00  0.00    -0.268 OA
HETATM   16  H   UNL     1      40.646 -15.625   4.541  1.00  0.00     0.162 HD
BRANCH  14  17
HETATM   17  C   UNL     1      42.819 -16.528   3.400  1.00  0.00     0.033 A 
HETATM   18  C   UNL     1      42.860 -17.678   2.604  1.00  0.00     0.036 A 
HETATM   19  C   UNL     1      43.616 -18.776   3.021  1.00  0.00     0.012 A 
HETATM   20 BR   UNL     1      43.663 -20.336   1.951  1.00  0.00    -0.051 Br
HETATM   21  C   UNL     1      44.337 -18.739   4.213  1.00  0.00     0.019 A 
HETATM   22  C   UNL     1      44.310 -17.590   5.001  1.00  0.00     0.002 A 
HETATM   23  C   UNL     1      43.557 -16.488   4.594  1.00  0.00     0.017 A 
ENDBRANCH  14  17
ENDBRANCH  12  13
ENDBRANCH  11  12
ENDBRANCH   8  11
ENDBRANCH   4   7
BRANCH   1  24
HETATM   24  C   UNL     1      43.111  -9.633   9.527  1.00  0.00     0.106 A 
HETATM   25  N   UNL     1      41.880  -9.829  10.048  1.00  0.00    -0.233 NA
HETATM   26  C   UNL     1      41.634  -9.579  11.355  1.00  0.00     0.102 A 
HETATM   27  C   UNL     1      40.362  -9.768  11.914  1.00  0.00     0.095 A 
HETATM   28  C   UNL     1      42.647  -9.109  12.214  1.00  0.00    -0.004 A 
HETATM   29  C   UNL     1      40.091  -9.513  13.264  1.00  0.00     0.039 A 
HETATM   30  C   UNL     1      41.109  -9.058  14.094  1.00  0.00     0.004 A 
HETATM   31  C   UNL     1      42.384  -8.855  13.572  1.00  0.00     0.014 A 
HETATM   32  C   UNL     1      43.916  -8.894  11.675  1.00  0.00     0.017 A 
HETATM   33  C   UNL     1      44.142  -9.146  10.324  1.00  0.00     0.045 A 
BRANCH  27  34
HETATM   34  O   UNL     1      39.337 -10.216  11.110  1.00  0.00    -0.358 OA
HETATM   35  H   UNL     1      39.017 -11.065  11.449  1.00  0.00     0.218 HD
ENDBRANCH  27  34
ENDBRANCH   1  24
TORSDOF 7
ENDMDL
MODEL 3
REMARK VINA RESULT:      -9.1      1.936      2.193
REMARK  7 active torsions:
REMARK  status: ('A' for Active; 'I' for Inactive)
REMARK    1  A    between atoms: C_3  and  O_4 
REMARK    2  A    between atoms: C_9  and  N_10 
REMARK    3  A    between atoms: C_13  and  C_14 
REMARK       I    between atoms: C_14  and  N_15 
REMARK    4  A    between atoms: N_15  and  C_16 
REMARK    5  A    between atoms: C_16  and  C_17 
REMARK    6  A    between atoms: C_17  and  N_18 
REMARK       I    between atoms: N_18  and  C_19 
REMARK    7  A    between atoms: C_19  and  C_20 
ROOT
HETATM    1  N   UNL     1      40.731 -14.197   4.334  1.00  0.00    -0.268 NA
HETATM    2  C   UNL     1      40.853 -13.053   3.418  1.00  0.00     0.098 C 
HETATM    3  C   UNL     1      40.005 -11.892   3.934  1.00  0.00     0.029 C 
HETATM    4  C   UNL     1      40.377 -11.506   5.370  1.00  0.00     0.080 C 
HETATM    5  C   UNL     1      40.345 -12.747   6.273  1.00  0.00     0.029 C 
HETATM    6  C   UNL     1      41.172 -13.905   5.707  1.00  0.00     0.098 C 
ENDROOT
BRANCH   4   7
HETATM    7  C   UNL     1      41.724 -10.790   5.456  1.00  0.00     0.221 C 
HETATM    8  N   UNL     1      42.441 -11.068   6.596  1.00  0.00    -0.359 N 
HETATM    9  H   UNL     1      42.044 -11.635   7.331  1.00  0.00     0.162 HD
HETATM   10  O   UNL     1      42.156 -10.058   4.572  1.00  0.00    -0.273 OA
BRANCH   8  11
HETATM   11  C   UNL     1      43.743 -10.470   6.842  1.00  0.00     0.142 C 
BRANCH  11  12
HETATM   12  C   UNL     1      44.377 -10.940   8.158  1.00  0.00     0.142 C 
BRANCH  12  13
HETATM   13  N   UNL     1      43.593 -10.609   9.341  1.00  0.00    -0.355 N 
HETATM   14  C   UNL     1      44.170  -9.973  10.420  1.00  0.00     0.251 C 
HETATM   15  O   UNL     1      45.374  -9.753  10.498  1.00  0.00    -0.268 OA
HETATM   16  H   UNL     1      42.588 -10.597   9.226  1.00  0.00     0.162 HD
BRANCH  14  17
HETATM   17  C   UNL     1      43.261  -9.517  11.511  1.00  0.00     0.033 A 
HETATM   18  C   UNL     1      42.033 -10.134  11.781  1.00  0.00     0.036 A 
HETATM   19  C   UNL     1      41.233  -9.649  12.818  1.00  0.00     0.012 A 
HETATM   20 BR   UNL     1      39.568 -10.474  13.176  1.00  0.00    -0.051 Br
HETATM   21  C   UNL     1      41.644  -8.566  13.594  1.00  0.00     0.019 A 
HETATM   22  C   UNL     1      42.872  -7.959  13.338  1.00  0.00     0.002 A 
HETATM   23  C   UNL     1      43.678  -8.435  12.302  1.00  0.00     0.017 A 
ENDBRANCH  14  17
ENDBRANCH  12  13
ENDBRANCH  11  12
ENDBRANCH   8  11
ENDBRANCH   4   7
BRANCH   1  24
HETATM   24  C   UNL     1      41.325 -15.366   3.801  1.00  0.00     0.106 A 
HETATM   25  N   UNL     1      42.183 -16.086   4.558  1.00  0.00    -0.233 NA
HETATM   26  C   UNL     1      42.786 -17.189   4.059  1.00  0.00     0.102 A 
HETATM   27  C   UNL     1      43.686 -17.946   4.824  1.00  0.00     0.095 A 
HETATM   28  C   UNL     1      42.543 -17.625   2.742  1.00  0.00    -0.004 A 
HETATM   29  C   UNL     1      44.319 -19.089   4.323  1.00  0.00     0.039 A 
HETATM   30  C   UNL     1      44.057 -19.505   3.023  1.00  0.00     0.004 A 
HETATM   31  C   UNL     1      43.172 -18.775   2.233  1.00  0.00     0.014 A 
HETATM   32  C   UNL     1      41.669 -16.875   1.955  1.00  0.00     0.017 A 
HETATM   33  C   UNL     1      41.069 -15.736   2.485  1.00  0.00     0.045 A 
BRANCH  27  34
HETATM   34  O   UNL     1      43.962 -17.552   6.115  1.00  0.00    -0.358 OA
HETATM   35  H   UNL     1      44.471 -18.248   6.557  1.00  0.00     0.218 HD
ENDBRANCH  27  34
ENDBRANCH   1  24
TORSDOF 7
ENDMDL
MODEL 4
REMARK VINA RESULT:      -9.0      5.550      8.809
REMARK  7 active torsions:
REMARK  status: ('A' for Active; 'I' for Inactive)
REMARK    1  A    between atoms: C_3  and  O_4 
REMARK    2  A    between atoms: C_9  and  N_10 
REMARK    3  A    between atoms: C_13  and  C_14 
REMARK       I    between atoms: C_14  and  N_15 
REMARK    4  A    between atoms: N_15  and  C_16 
REMARK    5  A    between atoms: C_16  and  C_17 
REMARK    6  A    between atoms: C_17  and  N_18 
REMARK       I    between atoms: N_18  and  C_19 
REMARK    7  A    between atoms: C_19  and  C_20 
ROOT
HETATM    1  N   UNL     1      42.903 -13.717   3.966  1.00  0.00    -0.268 NA
HETATM    2  C   UNL     1      41.535 -13.402   4.404  1.00  0.00     0.098 C 
HETATM    3  C   UNL     1      41.523 -12.047   5.109  1.00  0.00     0.029 C 
HETATM    4  C   UNL     1      42.101 -10.936   4.225  1.00  0.00     0.080 C 
HETATM    5  C   UNL     1      43.482 -11.349   3.697  1.00  0.00     0.029 C 
HETATM    6  C   UNL     1      43.467 -12.728   3.032  1.00  0.00     0.098 C 
ENDROOT
BRANCH   4   7
HETATM    7  C   UNL     1      41.163 -10.547   3.083  1.00  0.00     0.221 C 
HETATM    8  N   UNL     1      41.757  -9.802   2.091  1.00  0.00    -0.359 N 
HETATM    9  H   UNL     1      42.712  -9.487   2.184  1.00  0.00     0.162 HD
HETATM   10  O   UNL     1      39.988 -10.896   3.026  1.00  0.00    -0.273 OA
BRANCH   8  11
HETATM   11  C   UNL     1      41.010  -9.343   0.931  1.00  0.00     0.142 C 
BRANCH  11  12
HETATM   12  C   UNL     1      41.662  -9.751  -0.397  1.00  0.00     0.142 C 
BRANCH  12  13
HETATM   13  N   UNL     1      40.841 -10.640  -1.208  1.00  0.00    -0.355 N 
HETATM   14  C   UNL     1      40.626 -11.949  -0.830  1.00  0.00     0.251 C 
HETATM   15  O   UNL     1      41.191 -12.468   0.128  1.00  0.00    -0.268 OA
HETATM   16  H   UNL     1      40.221 -10.199  -1.873  1.00  0.00     0.162 HD
BRANCH  14  17
HETATM   17  C   UNL     1      39.637 -12.736  -1.622  1.00  0.00     0.033 A 
HETATM   18  C   UNL     1      38.403 -12.212  -2.027  1.00  0.00     0.036 A 
HETATM   19  C   UNL     1      37.526 -13.010  -2.764  1.00  0.00     0.012 A 
HETATM   20 BR   UNL     1      35.853 -12.307  -3.300  1.00  0.00    -0.051 Br
HETATM   21  C   UNL     1      37.865 -14.316  -3.111  1.00  0.00     0.019 A 
HETATM   22  C   UNL     1      39.098 -14.836  -2.723  1.00  0.00     0.002 A 
HETATM   23  C   UNL     1      39.981 -14.048  -1.984  1.00  0.00     0.017 A 
ENDBRANCH  14  17
ENDBRANCH  12  13
ENDBRANCH  11  12
ENDBRANCH   8  11
ENDBRANCH   4   7
BRANCH   1  24
HETATM   24  C   UNL     1      43.013 -15.046   3.493  1.00  0.00     0.106 A 
HETATM   25  N   UNL     1      43.328 -16.039   4.354  1.00  0.00    -0.233 NA
HETATM   26  C   UNL     1      43.469 -17.313   3.919  1.00  0.00     0.102 A 
HETATM   27  C   UNL     1      43.804 -18.357   4.793  1.00  0.00     0.095 A 
HETATM   28  C   UNL     1      43.292 -17.647   2.561  1.00  0.00    -0.004 A 
HETATM   29  C   UNL     1      43.954 -19.679   4.359  1.00  0.00     0.039 A 
HETATM   30  C   UNL     1      43.766 -19.987   3.016  1.00  0.00     0.004 A 
HETATM   31  C   UNL     1      43.437 -18.974   2.119  1.00  0.00     0.014 A 
HETATM   32  C   UNL     1      42.980 -16.621   1.670  1.00  0.00     0.017 A 
HETATM   33  C   UNL     1      42.853 -15.316   2.137  1.00  0.00     0.045 A 
BRANCH  27  34
HETATM   34  O   UNL     1      43.997 -18.076   6.128  1.00  0.00    -0.358 OA
HETATM   35  H   UNL     1      43.149 -18.146   6.592  1.00  0.00     0.218 HD
ENDBRANCH  27  34
ENDBRANCH   1  24
TORSDOF 7
ENDMDL
MODEL 5
REMARK VINA RESULT:      -8.8      5.380      8.018
REMARK  7 active torsions:
REMARK  status: ('A' for Active; 'I' for Inactive)
REMARK    1  A    between atoms: C_3  and  O_4 
REMARK    2  A    between atoms: C_9  and  N_10 
REMARK    3  A    between atoms: C_13  and  C_14 
REMARK       I    between atoms: C_14  and  N_15 
REMARK    4  A    between atoms: N_15  and  C_16 
REMARK    5  A    between atoms: C_16  and  C_17 
REMARK    6  A    between atoms: C_17  and  N_18 
REMARK       I    between atoms: N_18  and  C_19 
REMARK    7  A    between atoms: C_19  and  C_20 
ROOT
HETATM    1  N   UNL     1      41.362 -14.992   1.005  1.00  0.00    -0.268 NA
HETATM    2  C   UNL     1      40.716 -15.949   1.916  1.00  0.00     0.098 C 
HETATM    3  C   UNL     1      41.744 -16.972   2.397  1.00  0.00     0.029 C 
HETATM    4  C   UNL     1      42.955 -16.300   3.053  1.00  0.00     0.080 C 
HETATM    5  C   UNL     1      43.535 -15.231   2.118  1.00  0.00     0.029 C 
HETATM    6  C   UNL     1      42.472 -14.247   1.622  1.00  0.00     0.098 C 
ENDROOT
BRANCH   4   7
HETATM    7  C   UNL     1      42.630 -15.719   4.429  1.00  0.00     0.221 C 
HETATM    8  N   UNL     1      41.697 -16.434   5.140  1.00  0.00    -0.359 N 
HETATM    9  H   UNL     1      41.224 -17.224   4.723  1.00  0.00     0.162 HD
HETATM   10  O   UNL     1      43.179 -14.721   4.885  1.00  0.00    -0.273 OA
BRANCH   8  11
HETATM   11  C   UNL     1      41.268 -16.021   6.466  1.00  0.00     0.142 C 
BRANCH  11  12
HETATM   12  C   UNL     1      40.062 -15.073   6.435  1.00  0.00     0.142 C 
BRANCH  12  13
HETATM   13  N   UNL     1      40.165 -14.022   5.432  1.00  0.00    -0.355 N 
HETATM   14  C   UNL     1      39.810 -12.722   5.727  1.00  0.00     0.251 C 
HETATM   15  O   UNL     1      39.292 -12.398   6.791  1.00  0.00    -0.268 OA
HETATM   16  H   UNL     1      40.759 -14.214   4.637  1.00  0.00     0.162 HD
BRANCH  14  17
HETATM   17  C   UNL     1      40.111 -11.681   4.701  1.00  0.00     0.033 A 
HETATM   18  C   UNL     1      39.118 -10.884   4.119  1.00  0.00     0.036 A 
HETATM   19  C   UNL     1      39.474  -9.932   3.162  1.00  0.00     0.012 A 
HETATM   20 BR   UNL     1      38.133  -8.862   2.365  1.00  0.00    -0.051 Br
HETATM   21  C   UNL     1      40.806  -9.757   2.786  1.00  0.00     0.019 A 
HETATM   22  C   UNL     1      41.798 -10.539   3.374  1.00  0.00     0.002 A 
HETATM   23  C   UNL     1      41.451 -11.495   4.330  1.00  0.00     0.017 A 
ENDBRANCH  14  17
ENDBRANCH  12  13
ENDBRANCH  11  12
ENDBRANCH   8  11
ENDBRANCH   4   7
BRANCH   1  24
HETATM   24  C   UNL     1      40.420 -14.150   0.368  1.00  0.00     0.106 A 
HETATM   25  N   UNL     1      39.734 -14.604  -0.705  1.00  0.00    -0.233 NA
HETATM   26  C   UNL     1      38.851 -13.806  -1.349  1.00  0.00     0.102 A 
HETATM   27  C   UNL     1      38.135 -14.253  -2.468  1.00  0.00     0.095 A 
HETATM   28  C   UNL     1      38.616 -12.483  -0.926  1.00  0.00    -0.004 A 
HETATM   29  C   UNL     1      37.219 -13.441  -3.146  1.00  0.00     0.039 A 
HETATM   30  C   UNL     1      36.997 -12.141  -2.705  1.00  0.00     0.004 A 
HETATM   31  C   UNL     1      37.694 -11.662  -1.599  1.00  0.00     0.014 A 
HETATM   32  C   UNL     1      39.334 -12.009   0.173  1.00  0.00     0.017 A 
HETATM   33  C   UNL     1      40.247 -12.843   0.812  1.00  0.00     0.045 A 
BRANCH  27  34
HETATM   34  O   UNL     1      38.340 -15.537  -2.924  1.00  0.00    -0.358 OA
HETATM   35  H   UNL     1      38.376 -16.140  -2.166  1.00  0.00     0.218 HD
ENDBRANCH  27  34
ENDBRANCH   1  24
TORSDOF 7
ENDMDL
MODEL 6
REMARK VINA RESULT:      -8.8     17.713     19.784
REMARK  7 active torsions:
REMARK  status: ('A' for Active; 'I' for Inactive)
REMARK    1  A    between atoms: C_3  and  O_4 
REMARK    2  A    between atoms: C_9  and  N_10 
REMARK    3  A    between atoms: C_13  and  C_14 
REMARK       I    between atoms: C_14  and  N_15 
REMARK    4  A    between atoms: N_15  and  C_16 
REMARK    5  A    between atoms: C_16  and  C_17 
REMARK    6  A    between atoms: C_17  and  N_18 
REMARK       I    between atoms: N_18  and  C_19 
REMARK    7  A    between atoms: C_19  and  C_20 
ROOT
HETATM    1  N   UNL     1      48.332 -29.348  -1.188  1.00  0.00    -0.268 NA
HETATM    2  C   UNL     1      47.685 -28.829   0.026  1.00  0.00     0.098 C 
HETATM    3  C   UNL     1      46.778 -27.655  -0.339  1.00  0.00     0.029 C 
HETATM    4  C   UNL     1      45.747 -28.039  -1.406  1.00  0.00     0.080 C 
HETATM    5  C   UNL     1      46.450 -28.678  -2.611  1.00  0.00     0.029 C 
HETATM    6  C   UNL     1      47.381 -29.824  -2.207  1.00  0.00     0.098 C 
ENDROOT
BRANCH   4   7
HETATM    7  C   UNL     1      44.646 -28.946  -0.859  1.00  0.00     0.221 C 
HETATM    8  N   UNL     1      44.379 -28.771   0.478  1.00  0.00    -0.359 N 
HETATM    9  H   UNL     1      44.941 -28.146   1.039  1.00  0.00     0.162 HD
HETATM   10  O   UNL     1      44.020 -29.740  -1.554  1.00  0.00    -0.273 OA
BRANCH   8  11
HETATM   11  C   UNL     1      43.363 -29.554   1.162  1.00  0.00     0.142 C 
BRANCH  11  12
HETATM   12  C   UNL     1      43.622 -29.680   2.670  1.00  0.00     0.142 C 
BRANCH  12  13
HETATM   13  N   UNL     1      45.025 -29.553   3.039  1.00  0.00    -0.355 N 
HETATM   14  C   UNL     1      45.770 -30.659   3.391  1.00  0.00     0.251 C 
HETATM   15  O   UNL     1      45.281 -31.777   3.522  1.00  0.00    -0.268 OA
HETATM   16  H   UNL     1      45.491 -28.702   2.754  1.00  0.00     0.162 HD
BRANCH  14  17
HETATM   17  C   UNL     1      47.236 -30.463   3.585  1.00  0.00     0.033 A 
HETATM   18  C   UNL     1      48.120 -31.528   3.799  1.00  0.00     0.036 A 
HETATM   19  C   UNL     1      49.480 -31.267   3.976  1.00  0.00     0.012 A 
HETATM   20 BR   UNL     1      50.674 -32.703   4.277  1.00  0.00    -0.051 Br
HETATM   21  C   UNL     1      49.971 -29.963   3.932  1.00  0.00     0.019 A 
HETATM   22  C   UNL     1      49.097 -28.903   3.705  1.00  0.00     0.002 A 
HETATM   23  C   UNL     1      47.735 -29.153   3.529  1.00  0.00     0.017 A 
ENDBRANCH  14  17
ENDBRANCH  12  13
ENDBRANCH  11  12
ENDBRANCH   8  11
ENDBRANCH   4   7
BRANCH   1  24
HETATM   24  C   UNL     1      49.338 -30.297  -0.887  1.00  0.00     0.106 A 
HETATM   25  N   UNL     1      50.431 -30.387  -1.676  1.00  0.00    -0.233 NA
HETATM   26  C   UNL     1      51.391 -31.308  -1.425  1.00  0.00     0.102 A 
HETATM   27  C   UNL     1      52.530 -31.424  -2.236  1.00  0.00     0.095 A 
HETATM   28  C   UNL     1      51.285 -32.198  -0.339  1.00  0.00    -0.004 A 
HETATM   29  C   UNL     1      53.530 -32.371  -1.990  1.00  0.00     0.039 A 
HETATM   30  C   UNL     1      53.409 -33.234  -0.907  1.00  0.00     0.004 A 
HETATM   31  C   UNL     1      52.289 -33.150  -0.083  1.00  0.00     0.014 A 
HETATM   32  C   UNL     1      50.150 -32.115   0.468  1.00  0.00     0.017 A 
HETATM   33  C   UNL     1      49.169 -31.169   0.184  1.00  0.00     0.045 A 
BRANCH  27  34
HETATM   34  O   UNL     1      52.671 -30.581  -3.316  1.00  0.00    -0.358 OA
HETATM   35  H   UNL     1      52.842 -29.683  -2.996  1.00  0.00     0.218 HD
ENDBRANCH  27  34
ENDBRANCH   1  24
TORSDOF 7
ENDMDL
MODEL 7
REMARK VINA RESULT:      -8.8      4.777      7.183
REMARK  7 active torsions:
REMARK  status: ('A' for Active; 'I' for Inactive)
REMARK    1  A    between atoms: C_3  and  O_4 
REMARK    2  A    between atoms: C_9  and  N_10 
REMARK    3  A    between atoms: C_13  and  C_14 
REMARK       I    between atoms: C_14  and  N_15 
REMARK    4  A    between atoms: N_15  and  C_16 
REMARK    5  A    between atoms: C_16  and  C_17 
REMARK    6  A    between atoms: C_17  and  N_18 
REMARK       I    between atoms: N_18  and  C_19 
REMARK    7  A    between atoms: C_19  and  C_20 
ROOT
HETATM    1  N   UNL     1      42.860 -15.034   5.506  1.00  0.00    -0.268 NA
HETATM    2  C   UNL     1      41.615 -14.312   5.201  1.00  0.00     0.098 C 
HETATM    3  C   UNL     1      41.349 -13.272   6.288  1.00  0.00     0.029 C 
HETATM    4  C   UNL     1      42.530 -12.310   6.461  1.00  0.00     0.080 C 
HETATM    5  C   UNL     1      43.828 -13.103   6.666  1.00  0.00     0.029 C 
HETATM    6  C   UNL     1      44.044 -14.163   5.584  1.00  0.00     0.098 C 
ENDROOT
BRANCH   4   7
HETATM    7  C   UNL     1      42.659 -11.323   5.302  1.00  0.00     0.221 C 
HETATM    8  N   UNL     1      41.642 -10.400   5.228  1.00  0.00    -0.359 N 
HETATM    9  H   UNL     1      40.850 -10.453   5.853  1.00  0.00     0.162 HD
HETATM   10  O   UNL     1      43.605 -11.320   4.521  1.00  0.00    -0.273 OA
BRANCH   8  11
HETATM   11  C   UNL     1      41.605  -9.388   4.185  1.00  0.00     0.142 C 
BRANCH  11  12
HETATM   12  C   UNL     1      40.433  -9.578   3.212  1.00  0.00     0.142 C 
BRANCH  12  13
HETATM   13  N   UNL     1      40.539 -10.774   2.388  1.00  0.00    -0.355 N 
HETATM   14  C   UNL     1      39.870 -11.932   2.727  1.00  0.00     0.251 C 
HETATM   15  O   UNL     1      39.250 -12.059   3.778  1.00  0.00    -0.268 OA
HETATM   16  H   UNL     1      40.869 -10.642   1.441  1.00  0.00     0.162 HD
BRANCH  14  17
HETATM   17  C   UNL     1      39.894 -13.050   1.740  1.00  0.00     0.033 A 
HETATM   18  C   UNL     1      39.957 -12.838   0.358  1.00  0.00     0.036 A 
HETATM   19  C   UNL     1      39.972 -13.935  -0.506  1.00  0.00     0.012 A 
HETATM   20 BR   UNL     1      40.045 -13.650  -2.375  1.00  0.00    -0.051 Br
HETATM   21  C   UNL     1      39.936 -15.238  -0.011  1.00  0.00     0.019 A 
HETATM   22  C   UNL     1      39.888 -15.452   1.365  1.00  0.00     0.002 A 
HETATM   23  C   UNL     1      39.870 -14.363   2.237  1.00  0.00     0.017 A 
ENDBRANCH  14  17
ENDBRANCH  12  13
ENDBRANCH  11  12
ENDBRANCH   8  11
ENDBRANCH   4   7
BRANCH   1  24
HETATM   24  C   UNL     1      43.048 -16.146   4.651  1.00  0.00     0.106 A 
HETATM   25  N   UNL     1      43.250 -17.372   5.181  1.00  0.00    -0.233 NA
HETATM   26  C   UNL     1      43.463 -18.444   4.383  1.00  0.00     0.102 A 
HETATM   27  C   UNL     1      43.683 -19.724   4.912  1.00  0.00     0.095 A 
HETATM   28  C   UNL     1      43.481 -18.320   2.980  1.00  0.00    -0.004 A 
HETATM   29  C   UNL     1      43.905 -20.843   4.101  1.00  0.00     0.039 A 
HETATM   30  C   UNL     1      43.910 -20.698   2.718  1.00  0.00     0.004 A 
HETATM   31  C   UNL     1      43.700 -19.441   2.158  1.00  0.00     0.014 A 
HETATM   32  C   UNL     1      43.287 -17.053   2.431  1.00  0.00     0.017 A 
HETATM   33  C   UNL     1      43.082 -15.962   3.272  1.00  0.00     0.045 A 
BRANCH  27  34
HETATM   34  O   UNL     1      43.684 -19.891   6.280  1.00  0.00    -0.358 OA
HETATM   35  H   UNL     1      44.442 -19.419   6.655  1.00  0.00     0.218 HD
ENDBRANCH  27  34
ENDBRANCH   1  24
TORSDOF 7
ENDMDL
MODEL 8
REMARK VINA RESULT:      -8.7      3.499     10.878
REMARK  7 active torsions:
REMARK  status: ('A' for Active; 'I' for Inactive)
REMARK    1  A    between atoms: C_3  and  O_4 
REMARK    2  A    between atoms: C_9  and  N_10 
REMARK    3  A    between atoms: C_13  and  C_14 
REMARK       I    between atoms: C_14  and  N_15 
REMARK    4  A    between atoms: N_15  and  C_16 
REMARK    5  A    between atoms: C_16  and  C_17 
REMARK    6  A    between atoms: C_17  and  N_18 
REMARK       I    between atoms: N_18  and  C_19 
REMARK    7  A    between atoms: C_19  and  C_20 
ROOT
HETATM    1  N   UNL     1      43.801  -8.572  10.879  1.00  0.00    -0.268 NA
HETATM    2  C   UNL     1      43.514  -8.157   9.498  1.00  0.00     0.098 C 
HETATM    3  C   UNL     1      44.727  -8.446   8.615  1.00  0.00     0.029 C 
HETATM    4  C   UNL     1      45.148  -9.918   8.685  1.00  0.00     0.080 C 
HETATM    5  C   UNL     1      45.331 -10.344  10.147  1.00  0.00     0.029 C 
HETATM    6  C   UNL     1      44.114 -10.004  11.013  1.00  0.00     0.098 C 
ENDROOT
BRANCH   4   7
HETATM    7  C   UNL     1      44.176 -10.843   7.953  1.00  0.00     0.221 C 
HETATM    8  N   UNL     1      43.331 -10.199   7.080  1.00  0.00    -0.359 N 
HETATM    9  H   UNL     1      43.324  -9.191   7.016  1.00  0.00     0.162 HD
HETATM   10  O   UNL     1      44.167 -12.061   8.097  1.00  0.00    -0.273 OA
BRANCH   8  11
HETATM   11  C   UNL     1      42.339 -10.926   6.304  1.00  0.00     0.142 C 
BRANCH  11  12
HETATM   12  C   UNL     1      42.866 -11.371   4.932  1.00  0.00     0.142 C 
BRANCH  12  13
HETATM   13  N   UNL     1      42.861 -12.815   4.740  1.00  0.00    -0.355 N 
HETATM   14  C   UNL     1      42.889 -13.363   3.474  1.00  0.00     0.251 C 
HETATM   15  O   UNL     1      42.808 -12.686   2.454  1.00  0.00    -0.268 OA
HETATM   16  H   UNL     1      43.123 -13.377   5.538  1.00  0.00     0.162 HD
BRANCH  14  17
HETATM   17  C   UNL     1      43.057 -14.841   3.372  1.00  0.00     0.033 A 
HETATM   18  C   UNL     1      43.205 -15.665   4.494  1.00  0.00     0.036 A 
HETATM   19  C   UNL     1      43.362 -17.042   4.320  1.00  0.00     0.012 A 
HETATM   20 BR   UNL     1      43.575 -18.156   5.835  1.00  0.00    -0.051 Br
HETATM   21  C   UNL     1      43.362 -17.608   3.046  1.00  0.00     0.019 A 
HETATM   22  C   UNL     1      43.200 -16.793   1.928  1.00  0.00     0.002 A 
HETATM   23  C   UNL     1      43.045 -15.416   2.091  1.00  0.00     0.017 A 
ENDBRANCH  14  17
ENDBRANCH  12  13
ENDBRANCH  11  12
ENDBRANCH   8  11
ENDBRANCH   4   7
BRANCH   1  24
HETATM   24  C   UNL     1      42.798  -8.141  11.780  1.00  0.00     0.106 A 
HETATM   25  N   UNL     1      41.517  -8.049  11.361  1.00  0.00    -0.233 NA
HETATM   26  C   UNL     1      40.546  -7.610  12.196  1.00  0.00     0.102 A 
HETATM   27  C   UNL     1      39.211  -7.499  11.780  1.00  0.00     0.095 A 
HETATM   28  C   UNL     1      40.836  -7.236  13.523  1.00  0.00    -0.004 A 
HETATM   29  C   UNL     1      38.196  -7.047  12.630  1.00  0.00     0.039 A 
HETATM   30  C   UNL     1      38.504  -6.691  13.939  1.00  0.00     0.004 A 
HETATM   31  C   UNL     1      39.820  -6.784  14.385  1.00  0.00     0.014 A 
HETATM   32  C   UNL     1      42.161  -7.317  13.952  1.00  0.00     0.017 A 
HETATM   33  C   UNL     1      43.145  -7.760  13.072  1.00  0.00     0.045 A 
BRANCH  27  34
HETATM   34  O   UNL     1      38.883  -7.844  10.487  1.00  0.00    -0.358 OA
HETATM   35  H   UNL     1      39.627  -8.319  10.088  1.00  0.00     0.218 HD
ENDBRANCH  27  34
ENDBRANCH   1  24
TORSDOF 7
ENDMDL
MODEL 9
REMARK VINA RESULT:      -8.7      4.161      9.573
REMARK  7 active torsions:
REMARK  status: ('A' for Active; 'I' for Inactive)
REMARK    1  A    between atoms: C_3  and  O_4 
REMARK    2  A    between atoms: C_9  and  N_10 
REMARK    3  A    between atoms: C_13  and  C_14 
REMARK       I    between atoms: C_14  and  N_15 
REMARK    4  A    between atoms: N_15  and  C_16 
REMARK    5  A    between atoms: C_16  and  C_17 
REMARK    6  A    between atoms: C_17  and  N_18 
REMARK       I    between atoms: N_18  and  C_19 
REMARK    7  A    between atoms: C_19  and  C_20 
ROOT
HETATM    1  N   UNL     1      41.289 -10.407   5.546  1.00  0.00    -0.268 NA
HETATM    2  C   UNL     1      40.813 -11.764   5.240  1.00  0.00     0.098 C 
HETATM    3  C   UNL     1      39.523 -11.683   4.426  1.00  0.00     0.029 C 
HETATM    4  C   UNL     1      39.703 -10.849   3.152  1.00  0.00     0.080 C 
HETATM    5  C   UNL     1      40.305  -9.481   3.500  1.00  0.00     0.029 C 
HETATM    6  C   UNL     1      41.573  -9.597   4.350  1.00  0.00     0.098 C 
ENDROOT
BRANCH   4   7
HETATM    7  C   UNL     1      40.534 -11.569   2.091  1.00  0.00     0.221 C 
HETATM    8  N   UNL     1      39.795 -12.308   1.198  1.00  0.00    -0.359 N 
HETATM    9  H   UNL     1      38.797 -12.411   1.315  1.00  0.00     0.162 HD
HETATM   10  O   UNL     1      41.755 -11.471   2.010  1.00  0.00    -0.273 OA
BRANCH   8  11
HETATM   11  C   UNL     1      40.426 -13.059   0.125  1.00  0.00     0.142 C 
BRANCH  11  12
HETATM   12  C   UNL     1      40.137 -14.564   0.202  1.00  0.00     0.142 C 
BRANCH  12  13
HETATM   13  N   UNL     1      41.174 -15.329   0.882  1.00  0.00    -0.355 N 
HETATM   14  C   UNL     1      41.136 -15.518   2.248  1.00  0.00     0.251 C 
HETATM   15  O   UNL     1      40.310 -14.973   2.973  1.00  0.00    -0.268 OA
HETATM   16  H   UNL     1      41.737 -15.939   0.304  1.00  0.00     0.162 HD
BRANCH  14  17
HETATM   17  C   UNL     1      42.136 -16.455   2.837  1.00  0.00     0.033 A 
HETATM   18  C   UNL     1      42.415 -17.710   2.283  1.00  0.00     0.036 A 
HETATM   19  C   UNL     1      43.362 -18.535   2.893  1.00  0.00     0.012 A 
HETATM   20 BR   UNL     1      43.731 -20.238   2.153  1.00  0.00    -0.051 Br
HETATM   21  C   UNL     1      44.042 -18.122   4.037  1.00  0.00     0.019 A 
HETATM   22  C   UNL     1      43.778 -16.867   4.582  1.00  0.00     0.002 A 
HETATM   23  C   UNL     1      42.831 -16.036   3.982  1.00  0.00     0.017 A 
ENDBRANCH  14  17
ENDBRANCH  12  13
ENDBRANCH  11  12
ENDBRANCH   8  11
ENDBRANCH   4   7
BRANCH   1  24
HETATM   24  C   UNL     1      42.360 -10.418   6.470  1.00  0.00     0.106 A 
HETATM   25  N   UNL     1      42.209  -9.832   7.678  1.00  0.00    -0.233 NA
HETATM   26  C   UNL     1      43.230  -9.804   8.566  1.00  0.00     0.102 A 
HETATM   27  C   UNL     1      43.098  -9.193   9.822  1.00  0.00     0.095 A 
HETATM   28  C   UNL     1      44.479 -10.382   8.265  1.00  0.00    -0.004 A 
HETATM   29  C   UNL     1      44.144  -9.155  10.751  1.00  0.00     0.039 A 
HETATM   30  C   UNL     1      45.365  -9.740  10.435  1.00  0.00     0.004 A 
HETATM   31  C   UNL     1      45.533 -10.352   9.195  1.00  0.00     0.014 A 
HETATM   32  C   UNL     1      44.640 -10.976   7.013  1.00  0.00     0.017 A 
HETATM   33  C   UNL     1      43.580 -10.982   6.110  1.00  0.00     0.045 A 
BRANCH  27  34
HETATM   34  O   UNL     1      41.898  -8.605  10.156  1.00  0.00    -0.358 OA
HETATM   35  H   UNL     1      41.641  -7.988   9.454  1.00  0.00     0.218 HD
ENDBRANCH  27  34
ENDBRANCH   1  24
TORSDOF 7
ENDMDL
MODEL 10
REMARK VINA RESULT:      -8.5      4.511     10.380
REMARK  7 active torsions:
REMARK  status: ('A' for Active; 'I' for Inactive)
REMARK    1  A    between atoms: C_3  and  O_4 
REMARK    2  A    between atoms: C_9  and  N_10 
REMARK    3  A    between atoms: C_13  and  C_14 
REMARK       I    between atoms: C_14  and  N_15 
REMARK    4  A    between atoms: N_15  and  C_16 
REMARK    5  A    between atoms: C_16  and  C_17 
REMARK    6  A    between atoms: C_17  and  N_18 
REMARK       I    between atoms: N_18  and  C_19 
REMARK    7  A    between atoms: C_19  and  C_20 
ROOT
HETATM    1  N   UNL     1      43.692 -10.555   7.193  1.00  0.00    -0.268 NA
HETATM    2  C   UNL     1      42.721 -10.226   6.139  1.00  0.00     0.098 C 
HETATM    3  C   UNL     1      43.153 -10.874   4.825  1.00  0.00     0.029 C 
HETATM    4  C   UNL     1      43.336 -12.389   4.968  1.00  0.00     0.080 C 
HETATM    5  C   UNL     1      44.268 -12.697   6.147  1.00  0.00     0.029 C 
HETATM    6  C   UNL     1      43.831 -12.000   7.438  1.00  0.00     0.098 C 
ENDROOT
BRANCH   4   7
HETATM    7  C   UNL     1      42.007 -13.132   5.100  1.00  0.00     0.221 C 
HETATM    8  N   UNL     1      42.131 -14.495   5.230  1.00  0.00    -0.359 N 
HETATM    9  H   UNL     1      43.035 -14.941   5.155  1.00  0.00     0.162 HD
HETATM   10  O   UNL     1      40.919 -12.567   5.130  1.00  0.00    -0.273 OA
BRANCH   8  11
HETATM   11  C   UNL     1      40.968 -15.357   5.364  1.00  0.00     0.142 C 
BRANCH  11  12
HETATM   12  C   UNL     1      40.647 -16.130   4.078  1.00  0.00     0.142 C 
BRANCH  12  13
HETATM   13  N   UNL     1      40.032 -15.315   3.039  1.00  0.00    -0.355 N 
HETATM   14  C   UNL     1      40.792 -14.759   2.030  1.00  0.00     0.251 C 
HETATM   15  O   UNL     1      42.017 -14.820   2.008  1.00  0.00    -0.268 OA
HETATM   16  H   UNL     1      39.033 -15.412   2.922  1.00  0.00     0.162 HD
BRANCH  14  17
HETATM   17  C   UNL     1      40.062 -14.087   0.916  1.00  0.00     0.033 A 
HETATM   18  C   UNL     1      39.790 -14.722  -0.302  1.00  0.00     0.036 A 
HETATM   19  C   UNL     1      39.105 -14.028  -1.302  1.00  0.00     0.012 A 
HETATM   20 BR   UNL     1      38.748 -14.880  -2.953  1.00  0.00    -0.051 Br
HETATM   21  C   UNL     1      38.679 -12.716  -1.099  1.00  0.00     0.019 A 
HETATM   22  C   UNL     1      38.935 -12.086   0.117  1.00  0.00     0.002 A 
HETATM   23  C   UNL     1      39.621 -12.771   1.121  1.00  0.00     0.017 A 
ENDBRANCH  14  17
ENDBRANCH  12  13
ENDBRANCH  11  12
ENDBRANCH   8  11
ENDBRANCH   4   7
BRANCH   1  24
HETATM   24  C   UNL     1      43.459  -9.815   8.376  1.00  0.00     0.106 A 
HETATM   25  N   UNL     1      43.485 -10.441   9.573  1.00  0.00    -0.233 NA
HETATM   26  C   UNL     1      43.235  -9.760  10.715  1.00  0.00     0.102 A 
HETATM   27  C   UNL     1      43.249 -10.391  11.968  1.00  0.00     0.095 A 
HETATM   28  C   UNL     1      42.940  -8.382  10.697  1.00  0.00    -0.004 A 
HETATM   29  C   UNL     1      42.991  -9.701  13.158  1.00  0.00     0.039 A 
HETATM   30  C   UNL     1      42.711  -8.340  13.116  1.00  0.00     0.004 A 
HETATM   31  C   UNL     1      42.684  -7.682  11.889  1.00  0.00     0.014 A 
HETATM   32  C   UNL     1      42.898  -7.738   9.460  1.00  0.00     0.017 A 
HETATM   33  C   UNL     1      43.147  -8.462   8.297  1.00  0.00     0.045 A 
BRANCH  27  34
HETATM   34  O   UNL     1      43.522 -11.740  12.034  1.00  0.00    -0.358 OA
HETATM   35  H   UNL     1      43.548 -12.013  12.963  1.00  0.00     0.218 HD
ENDBRANCH  27  34
ENDBRANCH   1  24
TORSDOF 7
ENDMDL
