MODEL 1
REMARK VINA RESULT:      -7.6      0.000      0.000
REMARK  5 active torsions:
REMARK  status: ('A' for Active; 'I' for Inactive)
REMARK    1  A    between atoms: C_5  and  C_6 
REMARK    2  A    between atoms: N_9  and  C_11 
REMARK    3  A    between atoms: C_11  and  C_12 
REMARK    4  A    between atoms: C_13  and  N_14 
REMARK    5  A    between atoms: N_14  and  C_15 
ROOT
HETATM    1  C   UNL     1      42.201 -15.914   4.393  1.00  0.00    -0.006 A 
HETATM    2  C   UNL     1      41.965 -16.087   3.010  1.00  0.00     0.038 A 
HETATM    3  C   UNL     1      42.646 -17.125   2.344  1.00  0.00     0.030 A 
HETATM    4  C   UNL     1      43.536 -17.967   3.013  1.00  0.00     0.002 A 
HETATM    5  C   UNL     1      43.746 -17.810   4.373  1.00  0.00     0.001 A 
HETATM    6  C   UNL     1      43.077 -16.802   5.059  1.00  0.00     0.011 A 
ENDROOT
BRANCH   1   7
HETATM    7  C   UNL     1      41.504 -14.858   5.212  1.00  0.00     0.275 C 
BRANCH   7   8
HETATM    8  N   UNL     1      41.868 -13.420   4.834  1.00  0.00    -0.067 N 
HETATM    9  C   UNL     1      41.156 -12.453   5.750  1.00  0.00     0.236 C 
HETATM   10  C   UNL     1      41.479 -11.018   5.356  1.00  0.00     0.037 C 
HETATM   11  C   UNL     1      42.991 -10.741   5.413  1.00  0.00     0.025 C 
HETATM   12  C   UNL     1      43.680 -11.730   4.465  1.00  0.00     0.037 C 
HETATM   13  C   UNL     1      43.362 -13.185   4.793  1.00  0.00     0.236 C 
HETATM   14  H   UNL     1      41.518 -13.287   3.880  1.00  0.00     0.280 HD
BRANCH  11  15
HETATM   15  C   UNL     1      43.522 -10.771   6.821  1.00  0.00    -0.018 A 
HETATM   16  C   UNL     1      44.709 -11.404   7.273  1.00  0.00     0.147 A 
HETATM   17  N   UNL     1      44.951 -11.183   8.562  1.00  0.00    -0.185 NA
HETATM   18  N   UNL     1      43.869 -10.516   8.988  1.00  0.00    -0.285 N 
HETATM   19  C   UNL     1      43.759 -10.146  10.380  1.00  0.00     0.179 C 
HETATM   20  C   UNL     1      42.987 -10.238   7.980  1.00  0.00     0.120 A 
ENDBRANCH  11  15
ENDBRANCH   7   8
ENDBRANCH   1   7
BRANCH   2  21
HETATM   21  N   UNL     1      40.987 -15.314   2.339  1.00  0.00    -0.380 N 
HETATM   22  C   UNL     1      39.658 -15.939   2.413  1.00  0.00     0.150 C 
BRANCH  21  23
HETATM   23  C   UNL     1      41.427 -14.616   1.105  1.00  0.00     0.087 C 
HETATM   24  C   UNL     1      42.219 -13.336   1.421  1.00  0.00     0.053 C 
HETATM   25  C   UNL     1      41.386 -12.062   1.490  1.00  0.00     0.236 C 
HETATM   26  N   UNL     1      40.521 -11.945   0.268  1.00  0.00    -0.075 N 
HETATM   27  H   UNL     1      41.127 -11.933  -0.565  1.00  0.00     0.279 HD
HETATM   28  C   UNL     1      39.784 -10.625   0.231  1.00  0.00     0.269 C 
HETATM   29  C   UNL     1      39.572 -13.107   0.150  1.00  0.00     0.236 C 
HETATM   30  C   UNL     1      40.360 -14.399   0.027  1.00  0.00     0.053 C 
ENDBRANCH  21  23
ENDBRANCH   2  21
TORSDOF 5
ENDMDL
MODEL 2
REMARK VINA RESULT:      -7.5      2.610      7.576
REMARK  5 active torsions:
REMARK  status: ('A' for Active; 'I' for Inactive)
REMARK    1  A    between atoms: C_5  and  C_6 
REMARK    2  A    between atoms: N_9  and  C_11 
REMARK    3  A    between atoms: C_11  and  C_12 
REMARK    4  A    between atoms: C_13  and  N_14 
REMARK    5  A    between atoms: N_14  and  C_15 
ROOT
HETATM    1  C   UNL     1      41.611 -13.365   4.276  1.00  0.00    -0.006 A 
HETATM    2  C   UNL     1      42.392 -14.361   4.905  1.00  0.00     0.038 A 
HETATM    3  C   UNL     1      43.154 -13.994   6.033  1.00  0.00     0.030 A 
HETATM    4  C   UNL     1      43.153 -12.689   6.527  1.00  0.00     0.002 A 
HETATM    5  C   UNL     1      42.367 -11.722   5.922  1.00  0.00     0.001 A 
HETATM    6  C   UNL     1      41.594 -12.058   4.815  1.00  0.00     0.011 A 
ENDROOT
BRANCH   1   7
HETATM    7  C   UNL     1      40.734 -13.651   3.084  1.00  0.00     0.275 C 
BRANCH   7   8
HETATM    8  N   UNL     1      40.418 -12.428   2.220  1.00  0.00    -0.067 N 
HETATM    9  C   UNL     1      41.455 -12.289   1.130  1.00  0.00     0.236 C 
HETATM   10  C   UNL     1      41.174 -11.051   0.290  1.00  0.00     0.037 C 
HETATM   11  C   UNL     1      39.777 -11.105  -0.351  1.00  0.00     0.025 C 
HETATM   12  C   UNL     1      38.751 -11.235   0.780  1.00  0.00     0.037 C 
HETATM   13  C   UNL     1      39.006 -12.442   1.677  1.00  0.00     0.236 C 
HETATM   14  H   UNL     1      40.490 -11.621   2.847  1.00  0.00     0.280 HD
BRANCH  11  15
HETATM   15  C   UNL     1      39.673 -12.182  -1.398  1.00  0.00    -0.018 A 
HETATM   16  C   UNL     1      40.649 -12.526  -2.370  1.00  0.00     0.147 A 
HETATM   17  N   UNL     1      40.296 -13.578  -3.103  1.00  0.00    -0.185 NA
HETATM   18  N   UNL     1      39.044 -13.848  -2.705  1.00  0.00    -0.285 N 
HETATM   19  C   UNL     1      38.309 -14.920  -3.335  1.00  0.00     0.179 C 
HETATM   20  C   UNL     1      38.629 -13.044  -1.679  1.00  0.00     0.120 A 
ENDBRANCH  11  15
ENDBRANCH   7   8
ENDBRANCH   1   7
BRANCH   2  21
HETATM   21  N   UNL     1      42.322 -15.711   4.485  1.00  0.00    -0.380 N 
HETATM   22  C   UNL     1      41.492 -16.518   5.392  1.00  0.00     0.150 C 
BRANCH  21  23
HETATM   23  C   UNL     1      43.551 -16.280   3.877  1.00  0.00     0.087 C 
HETATM   24  C   UNL     1      43.300 -16.791   2.448  1.00  0.00     0.053 C 
HETATM   25  C   UNL     1      42.923 -18.263   2.345  1.00  0.00     0.236 C 
HETATM   26  N   UNL     1      43.902 -19.101   3.117  1.00  0.00    -0.075 N 
HETATM   27  H   UNL     1      44.845 -18.944   2.733  1.00  0.00     0.279 HD
HETATM   28  C   UNL     1      43.645 -20.578   2.925  1.00  0.00     0.269 C 
HETATM   29  C   UNL     1      43.913 -18.732   4.577  1.00  0.00     0.236 C 
HETATM   30  C   UNL     1      44.335 -17.281   4.732  1.00  0.00     0.053 C 
ENDBRANCH  21  23
ENDBRANCH   2  21
TORSDOF 5
ENDMDL
MODEL 3
REMARK VINA RESULT:      -7.4      1.177      1.572
REMARK  5 active torsions:
REMARK  status: ('A' for Active; 'I' for Inactive)
REMARK    1  A    between atoms: C_5  and  C_6 
REMARK    2  A    between atoms: N_9  and  C_11 
REMARK    3  A    between atoms: C_11  and  C_12 
REMARK    4  A    between atoms: C_13  and  N_14 
REMARK    5  A    between atoms: N_14  and  C_15 
ROOT
HETATM    1  C   UNL     1      42.898 -15.794   5.393  1.00  0.00    -0.006 A 
HETATM    2  C   UNL     1      42.581 -16.097   4.049  1.00  0.00     0.038 A 
HETATM    3  C   UNL     1      43.115 -17.275   3.489  1.00  0.00     0.030 A 
HETATM    4  C   UNL     1      43.938 -18.129   4.225  1.00  0.00     0.002 A 
HETATM    5  C   UNL     1      44.226 -17.842   5.549  1.00  0.00     0.001 A 
HETATM    6  C   UNL     1      43.702 -16.692   6.131  1.00  0.00     0.011 A 
ENDROOT
BRANCH   1   7
HETATM    7  C   UNL     1      42.357 -14.579   6.102  1.00  0.00     0.275 C 
BRANCH   7   8
HETATM    8  N   UNL     1      43.136 -13.289   5.833  1.00  0.00    -0.067 N 
HETATM    9  C   UNL     1      42.196 -12.107   5.858  1.00  0.00     0.236 C 
HETATM   10  C   UNL     1      42.955 -10.824   5.550  1.00  0.00     0.037 C 
HETATM   11  C   UNL     1      44.090 -10.581   6.557  1.00  0.00     0.025 C 
HETATM   12  C   UNL     1      45.030 -11.790   6.499  1.00  0.00     0.037 C 
HETATM   13  C   UNL     1      44.314 -13.110   6.766  1.00  0.00     0.236 C 
HETATM   14  H   UNL     1      43.516 -13.387   4.887  1.00  0.00     0.280 HD
BRANCH  11  15
HETATM   15  C   UNL     1      43.572 -10.275   7.937  1.00  0.00    -0.018 A 
HETATM   16  C   UNL     1      42.437  -9.490   8.268  1.00  0.00     0.147 A 
HETATM   17  N   UNL     1      42.187  -9.472   9.575  1.00  0.00    -0.185 NA
HETATM   18  N   UNL     1      43.221 -10.134  10.114  1.00  0.00    -0.285 N 
HETATM   19  C   UNL     1      43.313 -10.270  11.549  1.00  0.00     0.179 C 
HETATM   20  C   UNL     1      44.074 -10.642   9.172  1.00  0.00     0.120 A 
ENDBRANCH  11  15
ENDBRANCH   7   8
ENDBRANCH   1   7
BRANCH   2  21
HETATM   21  N   UNL     1      41.663 -15.301   3.322  1.00  0.00    -0.380 N 
HETATM   22  C   UNL     1      40.299 -15.847   3.393  1.00  0.00     0.150 C 
BRANCH  21  23
HETATM   23  C   UNL     1      42.166 -14.685   2.069  1.00  0.00     0.087 C 
HETATM   24  C   UNL     1      42.766 -13.290   2.317  1.00  0.00     0.053 C 
HETATM   25  C   UNL     1      41.794 -12.130   2.146  1.00  0.00     0.236 C 
HETATM   26  N   UNL     1      41.075 -12.249   0.834  1.00  0.00    -0.075 N 
HETATM   27  H   UNL     1      41.771 -12.247   0.075  1.00  0.00     0.279 HD
HETATM   28  C   UNL     1      40.204 -11.042   0.564  1.00  0.00     0.269 C 
HETATM   29  C   UNL     1      40.282 -13.526   0.751  1.00  0.00     0.236 C 
HETATM   30  C   UNL     1      41.220 -14.716   0.865  1.00  0.00     0.053 C 
ENDBRANCH  21  23
ENDBRANCH   2  21
TORSDOF 5
ENDMDL
MODEL 4
REMARK VINA RESULT:      -7.4      2.542      5.667
REMARK  5 active torsions:
REMARK  status: ('A' for Active; 'I' for Inactive)
REMARK    1  A    between atoms: C_5  and  C_6 
REMARK    2  A    between atoms: N_9  and  C_11 
REMARK    3  A    between atoms: C_11  and  C_12 
REMARK    4  A    between atoms: C_13  and  N_14 
REMARK    5  A    between atoms: N_14  and  C_15 
ROOT
HETATM    1  C   UNL     1      39.638 -13.546  -0.307  1.00  0.00    -0.006 A 
HETATM    2  C   UNL     1      39.200 -12.246  -0.649  1.00  0.00     0.038 A 
HETATM    3  C   UNL     1      38.968 -11.959  -2.009  1.00  0.00     0.030 A 
HETATM    4  C   UNL     1      39.163 -12.917  -3.005  1.00  0.00     0.002 A 
HETATM    5  C   UNL     1      39.569 -14.197  -2.663  1.00  0.00     0.001 A 
HETATM    6  C   UNL     1      39.793 -14.512  -1.326  1.00  0.00     0.011 A 
ENDROOT
BRANCH   1   7
HETATM    7  C   UNL     1      39.886 -13.971   1.118  1.00  0.00     0.275 C 
BRANCH   7   8
HETATM    8  N   UNL     1      41.027 -14.976   1.291  1.00  0.00    -0.067 N 
HETATM    9  C   UNL     1      42.297 -14.251   1.669  1.00  0.00     0.236 C 
HETATM   10  C   UNL     1      43.448 -15.238   1.802  1.00  0.00     0.037 C 
HETATM   11  C   UNL     1      43.153 -16.315   2.858  1.00  0.00     0.025 C 
HETATM   12  C   UNL     1      41.868 -17.038   2.438  1.00  0.00     0.037 C 
HETATM   13  C   UNL     1      40.687 -16.091   2.256  1.00  0.00     0.236 C 
HETATM   14  H   UNL     1      41.157 -15.408   0.370  1.00  0.00     0.280 HD
BRANCH  11  15
HETATM   15  C   UNL     1      43.108 -15.749   4.252  1.00  0.00    -0.018 A 
HETATM   16  C   UNL     1      43.114 -14.377   4.617  1.00  0.00     0.147 A 
HETATM   17  N   UNL     1      42.985 -14.193   5.928  1.00  0.00    -0.185 NA
HETATM   18  N   UNL     1      43.021 -15.433   6.437  1.00  0.00    -0.285 N 
HETATM   19  C   UNL     1      42.958 -15.621   7.867  1.00  0.00     0.179 C 
HETATM   20  C   UNL     1      43.087 -16.401   5.472  1.00  0.00     0.120 A 
ENDBRANCH  11  15
ENDBRANCH   7   8
ENDBRANCH   1   7
BRANCH   2  21
HETATM   21  N   UNL     1      38.893 -11.295   0.355  1.00  0.00    -0.380 N 
HETATM   22  C   UNL     1      37.441 -11.127   0.516  1.00  0.00     0.150 C 
BRANCH  21  23
HETATM   23  C   UNL     1      39.805 -10.130   0.464  1.00  0.00     0.087 C 
HETATM   24  C   UNL     1      41.254 -10.560   0.753  1.00  0.00     0.053 C 
HETATM   25  C   UNL     1      41.628 -10.616   2.229  1.00  0.00     0.236 C 
HETATM   26  N   UNL     1      41.236  -9.335   2.908  1.00  0.00    -0.075 N 
HETATM   27  H   UNL     1      41.722  -8.554   2.445  1.00  0.00     0.279 HD
HETATM   28  C   UNL     1      41.717  -9.295   4.342  1.00  0.00     0.269 C 
HETATM   29  C   UNL     1      39.753  -9.094   2.821  1.00  0.00     0.236 C 
HETATM   30  C   UNL     1      39.340  -8.981   1.364  1.00  0.00     0.053 C 
ENDBRANCH  21  23
ENDBRANCH   2  21
TORSDOF 5
ENDMDL
MODEL 5
REMARK VINA RESULT:      -7.3      1.610      4.570
REMARK  5 active torsions:
REMARK  status: ('A' for Active; 'I' for Inactive)
REMARK    1  A    between atoms: C_5  and  C_6 
REMARK    2  A    between atoms: N_9  and  C_11 
REMARK    3  A    between atoms: C_11  and  C_12 
REMARK    4  A    between atoms: C_13  and  N_14 
REMARK    5  A    between atoms: N_14  and  C_15 
ROOT
HETATM    1  C   UNL     1      41.545 -14.188   2.408  1.00  0.00    -0.006 A 
HETATM    2  C   UNL     1      41.106 -15.526   2.541  1.00  0.00     0.038 A 
HETATM    3  C   UNL     1      40.296 -16.064   1.520  1.00  0.00     0.030 A 
HETATM    4  C   UNL     1      39.926 -15.312   0.405  1.00  0.00     0.002 A 
HETATM    5  C   UNL     1      40.378 -14.010   0.267  1.00  0.00     0.001 A 
HETATM    6  C   UNL     1      41.189 -13.457   1.252  1.00  0.00     0.011 A 
ENDROOT
BRANCH   1   7
HETATM    7  C   UNL     1      42.439 -13.521   3.423  1.00  0.00     0.275 C 
BRANCH   7   8
HETATM    8  N   UNL     1      41.839 -12.272   4.073  1.00  0.00    -0.067 N 
HETATM    9  C   UNL     1      41.405 -12.587   5.485  1.00  0.00     0.236 C 
HETATM   10  C   UNL     1      40.768 -11.361   6.126  1.00  0.00     0.037 C 
HETATM   11  C   UNL     1      41.738 -10.168   6.155  1.00  0.00     0.025 C 
HETATM   12  C   UNL     1      42.149  -9.869   4.709  1.00  0.00     0.037 C 
HETATM   13  C   UNL     1      42.762 -11.075   4.005  1.00  0.00     0.236 C 
HETATM   14  H   UNL     1      41.010 -12.042   3.517  1.00  0.00     0.280 HD
BRANCH  11  15
HETATM   15  C   UNL     1      42.898 -10.400   7.085  1.00  0.00    -0.018 A 
HETATM   16  C   UNL     1      43.681 -11.579   7.198  1.00  0.00     0.147 A 
HETATM   17  N   UNL     1      44.689 -11.447   8.056  1.00  0.00    -0.185 NA
HETATM   18  N   UNL     1      44.498 -10.237   8.600  1.00  0.00    -0.285 N 
HETATM   19  C   UNL     1      45.392  -9.768   9.633  1.00  0.00     0.179 C 
HETATM   20  C   UNL     1      43.442  -9.566   8.046  1.00  0.00     0.120 A 
ENDBRANCH  11  15
ENDBRANCH   7   8
ENDBRANCH   1   7
BRANCH   2  21
HETATM   21  N   UNL     1      41.559 -16.335   3.610  1.00  0.00    -0.380 N 
HETATM   22  C   UNL     1      40.765 -16.117   4.829  1.00  0.00     0.150 C 
BRANCH  21  23
HETATM   23  C   UNL     1      43.023 -16.565   3.693  1.00  0.00     0.087 C 
HETATM   24  C   UNL     1      43.497 -17.612   2.671  1.00  0.00     0.053 C 
HETATM   25  C   UNL     1      43.543 -19.044   3.187  1.00  0.00     0.236 C 
HETATM   26  N   UNL     1      44.286 -19.099   4.490  1.00  0.00    -0.075 N 
HETATM   27  H   UNL     1      45.241 -18.742   4.340  1.00  0.00     0.279 HD
HETATM   28  C   UNL     1      44.475 -20.522   4.965  1.00  0.00     0.269 C 
HETATM   29  C   UNL     1      43.620 -18.254   5.543  1.00  0.00     0.236 C 
HETATM   30  C   UNL     1      43.598 -16.803   5.093  1.00  0.00     0.053 C 
ENDBRANCH  21  23
ENDBRANCH   2  21
TORSDOF 5
ENDMDL
MODEL 6
REMARK VINA RESULT:      -7.3      2.404      7.030
REMARK  5 active torsions:
REMARK  status: ('A' for Active; 'I' for Inactive)
REMARK    1  A    between atoms: C_5  and  C_6 
REMARK    2  A    between atoms: N_9  and  C_11 
REMARK    3  A    between atoms: C_11  and  C_12 
REMARK    4  A    between atoms: C_13  and  N_14 
REMARK    5  A    between atoms: N_14  and  C_15 
ROOT
HETATM    1  C   UNL     1      41.752 -13.939   5.324  1.00  0.00    -0.006 A 
HETATM    2  C   UNL     1      42.827 -14.784   5.684  1.00  0.00     0.038 A 
HETATM    3  C   UNL     1      43.862 -14.243   6.472  1.00  0.00     0.030 A 
HETATM    4  C   UNL     1      43.847 -12.913   6.892  1.00  0.00     0.002 A 
HETATM    5  C   UNL     1      42.780 -12.095   6.557  1.00  0.00     0.001 A 
HETATM    6  C   UNL     1      41.737 -12.605   5.791  1.00  0.00     0.011 A 
ENDROOT
BRANCH   1   7
HETATM    7  C   UNL     1      40.577 -14.419   4.511  1.00  0.00     0.275 C 
BRANCH   7   8
HETATM    8  N   UNL     1      40.901 -14.725   3.047  1.00  0.00    -0.067 N 
HETATM    9  C   UNL     1      39.652 -15.182   2.329  1.00  0.00     0.236 C 
HETATM   10  C   UNL     1      39.973 -15.529   0.883  1.00  0.00     0.037 C 
HETATM   11  C   UNL     1      40.571 -14.329   0.131  1.00  0.00     0.025 C 
HETATM   12  C   UNL     1      41.840 -13.899   0.876  1.00  0.00     0.037 C 
HETATM   13  C   UNL     1      41.583 -13.572   2.343  1.00  0.00     0.236 C 
HETATM   14  H   UNL     1      41.570 -15.501   3.068  1.00  0.00     0.280 HD
BRANCH  11  15
HETATM   15  C   UNL     1      39.570 -13.222  -0.062  1.00  0.00    -0.018 A 
HETATM   16  C   UNL     1      39.217 -12.216   0.875  1.00  0.00     0.147 A 
HETATM   17  N   UNL     1      38.358 -11.329   0.379  1.00  0.00    -0.185 NA
HETATM   18  N   UNL     1      38.049 -11.816  -0.832  1.00  0.00    -0.285 N 
HETATM   19  C   UNL     1      37.083 -11.125  -1.655  1.00  0.00     0.179 C 
HETATM   20  C   UNL     1      38.755 -12.945  -1.146  1.00  0.00     0.120 A 
ENDBRANCH  11  15
ENDBRANCH   7   8
ENDBRANCH   1   7
BRANCH   2  21
HETATM   21  N   UNL     1      42.807 -16.162   5.359  1.00  0.00    -0.380 N 
HETATM   22  C   UNL     1      42.333 -16.977   6.488  1.00  0.00     0.150 C 
BRANCH  21  23
HETATM   23  C   UNL     1      43.896 -16.651   4.478  1.00  0.00     0.087 C 
HETATM   24  C   UNL     1      43.506 -16.582   2.992  1.00  0.00     0.053 C 
HETATM   25  C   UNL     1      42.883 -17.852   2.428  1.00  0.00     0.236 C 
HETATM   26  N   UNL     1      43.735 -19.041   2.770  1.00  0.00    -0.075 N 
HETATM   27  H   UNL     1      44.675 -18.897   2.374  1.00  0.00     0.279 HD
HETATM   28  C   UNL     1      43.225 -20.302   2.109  1.00  0.00     0.269 C 
HETATM   29  C   UNL     1      43.867 -19.217   4.259  1.00  0.00     0.236 C 
HETATM   30  C   UNL     1      44.533 -17.991   4.860  1.00  0.00     0.053 C 
ENDBRANCH  21  23
ENDBRANCH   2  21
TORSDOF 5
ENDMDL
MODEL 7
REMARK VINA RESULT:      -7.1      2.225      7.274
REMARK  5 active torsions:
REMARK  status: ('A' for Active; 'I' for Inactive)
REMARK    1  A    between atoms: C_5  and  C_6 
REMARK    2  A    between atoms: N_9  and  C_11 
REMARK    3  A    between atoms: C_11  and  C_12 
REMARK    4  A    between atoms: C_13  and  N_14 
REMARK    5  A    between atoms: N_14  and  C_15 
ROOT
HETATM    1  C   UNL     1      41.448 -15.357   2.436  1.00  0.00    -0.006 A 
HETATM    2  C   UNL     1      42.273 -14.953   3.511  1.00  0.00     0.038 A 
HETATM    3  C   UNL     1      43.199 -15.885   4.024  1.00  0.00     0.030 A 
HETATM    4  C   UNL     1      43.310 -17.174   3.501  1.00  0.00     0.002 A 
HETATM    5  C   UNL     1      42.516 -17.556   2.432  1.00  0.00     0.001 A 
HETATM    6  C   UNL     1      41.602 -16.654   1.897  1.00  0.00     0.011 A 
ENDROOT
BRANCH   1   7
HETATM    7  C   UNL     1      40.446 -14.434   1.790  1.00  0.00     0.275 C 
BRANCH   7   8
HETATM    8  N   UNL     1      40.810 -13.999   0.368  1.00  0.00    -0.067 N 
HETATM    9  C   UNL     1      39.822 -14.580  -0.615  1.00  0.00     0.236 C 
HETATM   10  C   UNL     1      40.200 -14.187  -2.036  1.00  0.00     0.037 C 
HETATM   11  C   UNL     1      40.241 -12.660  -2.211  1.00  0.00     0.025 C 
HETATM   12  C   UNL     1      41.260 -12.105  -1.209  1.00  0.00     0.037 C 
HETATM   13  C   UNL     1      40.949 -12.498   0.231  1.00  0.00     0.236 C 
HETATM   14  H   UNL     1      41.734 -14.403   0.184  1.00  0.00     0.280 HD
BRANCH  11  15
HETATM   15  C   UNL     1      38.875 -12.038  -2.103  1.00  0.00    -0.018 A 
HETATM   16  C   UNL     1      37.655 -12.564  -2.604  1.00  0.00     0.147 A 
HETATM   17  N   UNL     1      36.602 -11.818  -2.278  1.00  0.00    -0.185 NA
HETATM   18  N   UNL     1      37.135 -10.744  -1.678  1.00  0.00    -0.285 N 
HETATM   19  C   UNL     1      36.274  -9.676  -1.227  1.00  0.00     0.179 C 
HETATM   20  C   UNL     1      38.494 -10.833  -1.542  1.00  0.00     0.120 A 
ENDBRANCH  11  15
ENDBRANCH   7   8
ENDBRANCH   1   7
BRANCH   2  21
HETATM   21  N   UNL     1      42.251 -13.619   3.983  1.00  0.00    -0.380 N 
HETATM   22  C   UNL     1      43.197 -12.768   3.245  1.00  0.00     0.150 C 
BRANCH  21  23
HETATM   23  C   UNL     1      42.048 -13.434   5.441  1.00  0.00     0.087 C 
HETATM   24  C   UNL     1      40.632 -13.846   5.879  1.00  0.00     0.053 C 
HETATM   25  C   UNL     1      39.608 -12.718   5.895  1.00  0.00     0.236 C 
HETATM   26  N   UNL     1      40.151 -11.539   6.651  1.00  0.00    -0.075 N 
HETATM   27  H   UNL     1      40.371 -11.837   7.612  1.00  0.00     0.279 HD
HETATM   28  C   UNL     1      39.112 -10.452   6.810  1.00  0.00     0.269 C 
HETATM   29  C   UNL     1      41.409 -11.007   6.017  1.00  0.00     0.236 C 
HETATM   30  C   UNL     1      42.479 -12.085   6.025  1.00  0.00     0.053 C 
ENDBRANCH  21  23
ENDBRANCH   2  21
TORSDOF 5
ENDMDL
MODEL 8
REMARK VINA RESULT:      -6.8      2.303      5.818
REMARK  5 active torsions:
REMARK  status: ('A' for Active; 'I' for Inactive)
REMARK    1  A    between atoms: C_5  and  C_6 
REMARK    2  A    between atoms: N_9  and  C_11 
REMARK    3  A    between atoms: C_11  and  C_12 
REMARK    4  A    between atoms: C_13  and  N_14 
REMARK    5  A    between atoms: N_14  and  C_15 
ROOT
HETATM    1  C   UNL     1      39.605 -13.620  -1.005  1.00  0.00    -0.006 A 
HETATM    2  C   UNL     1      38.832 -12.595  -1.597  1.00  0.00     0.038 A 
HETATM    3  C   UNL     1      38.009 -12.930  -2.691  1.00  0.00     0.030 A 
HETATM    4  C   UNL     1      37.949 -14.231  -3.192  1.00  0.00     0.002 A 
HETATM    5  C   UNL     1      38.689 -15.237  -2.594  1.00  0.00     0.001 A 
HETATM    6  C   UNL     1      39.500 -14.938  -1.504  1.00  0.00     0.011 A 
ENDROOT
BRANCH   1   7
HETATM    7  C   UNL     1      40.494 -13.382   0.189  1.00  0.00     0.275 C 
BRANCH   7   8
HETATM    8  N   UNL     1      40.809 -14.637   1.006  1.00  0.00    -0.067 N 
HETATM    9  C   UNL     1      42.247 -14.602   1.468  1.00  0.00     0.236 C 
HETATM   10  C   UNL     1      42.581 -15.866   2.246  1.00  0.00     0.037 C 
HETATM   11  C   UNL     1      41.667 -16.039   3.470  1.00  0.00     0.025 C 
HETATM   12  C   UNL     1      40.220 -16.083   2.965  1.00  0.00     0.037 C 
HETATM   13  C   UNL     1      39.840 -14.853   2.147  1.00  0.00     0.236 C 
HETATM   14  H   UNL     1      40.691 -15.424   0.360  1.00  0.00     0.280 HD
BRANCH  11  15
HETATM   15  C   UNL     1      41.917 -14.990   4.520  1.00  0.00    -0.018 A 
HETATM   16  C   UNL     1      40.948 -14.181   5.167  1.00  0.00     0.147 A 
HETATM   17  N   UNL     1      41.474 -13.402   6.110  1.00  0.00    -0.185 NA
HETATM   18  N   UNL     1      42.795 -13.602   5.998  1.00  0.00    -0.285 N 
HETATM   19  C   UNL     1      43.703 -12.867   6.847  1.00  0.00     0.179 C 
HETATM   20  C   UNL     1      43.111 -14.551   5.064  1.00  0.00     0.120 A 
ENDBRANCH  11  15
ENDBRANCH   7   8
ENDBRANCH   1   7
BRANCH   2  21
HETATM   21  N   UNL     1      38.798 -11.295  -1.035  1.00  0.00    -0.380 N 
HETATM   22  C   UNL     1      37.709 -11.157  -0.056  1.00  0.00     0.150 C 
BRANCH  21  23
HETATM   23  C   UNL     1      39.147 -10.173  -1.941  1.00  0.00     0.087 C 
HETATM   24  C   UNL     1      40.582 -10.298  -2.482  1.00  0.00     0.053 C 
HETATM   25  C   UNL     1      41.645  -9.577  -1.663  1.00  0.00     0.236 C 
HETATM   26  N   UNL     1      41.224  -8.159  -1.404  1.00  0.00    -0.075 N 
HETATM   27  H   UNL     1      41.086  -7.686  -2.308  1.00  0.00     0.279 HD
HETATM   28  C   UNL     1      42.314  -7.370  -0.715  1.00  0.00     0.269 C 
HETATM   29  C   UNL     1      39.932  -8.099  -0.632  1.00  0.00     0.236 C 
HETATM   30  C   UNL     1      38.827  -8.763  -1.435  1.00  0.00     0.053 C 
ENDBRANCH  21  23
ENDBRANCH   2  21
TORSDOF 5
ENDMDL
MODEL 9
REMARK VINA RESULT:      -6.8      2.376      5.205
REMARK  5 active torsions:
REMARK  status: ('A' for Active; 'I' for Inactive)
REMARK    1  A    between atoms: C_5  and  C_6 
REMARK    2  A    between atoms: N_9  and  C_11 
REMARK    3  A    between atoms: C_11  and  C_12 
REMARK    4  A    between atoms: C_13  and  N_14 
REMARK    5  A    between atoms: N_14  and  C_15 
ROOT
HETATM    1  C   UNL     1      42.951 -13.482   4.884  1.00  0.00    -0.006 A 
HETATM    2  C   UNL     1      42.393 -14.727   4.511  1.00  0.00     0.038 A 
HETATM    3  C   UNL     1      42.035 -14.917   3.161  1.00  0.00     0.030 A 
HETATM    4  C   UNL     1      42.215 -13.915   2.206  1.00  0.00     0.002 A 
HETATM    5  C   UNL     1      42.784 -12.707   2.571  1.00  0.00     0.001 A 
HETATM    6  C   UNL     1      43.160 -12.496   3.894  1.00  0.00     0.011 A 
ENDROOT
BRANCH   1   7
HETATM    7  C   UNL     1      43.400 -13.181   6.291  1.00  0.00     0.275 C 
BRANCH   7   8
HETATM    8  N   UNL     1      43.742 -11.712   6.547  1.00  0.00    -0.067 N 
HETATM    9  C   UNL     1      42.498 -10.960   6.962  1.00  0.00     0.236 C 
HETATM   10  C   UNL     1      42.820  -9.488   7.178  1.00  0.00     0.037 C 
HETATM   11  C   UNL     1      43.902  -9.296   8.253  1.00  0.00     0.025 C 
HETATM   12  C   UNL     1      45.151 -10.059   7.797  1.00  0.00     0.037 C 
HETATM   13  C   UNL     1      44.878 -11.536   7.531  1.00  0.00     0.236 C 
HETATM   14  H   UNL     1      44.065 -11.342   5.648  1.00  0.00     0.280 HD
BRANCH  11  15
HETATM   15  C   UNL     1      43.416  -9.680   9.624  1.00  0.00    -0.018 A 
HETATM   16  C   UNL     1      44.117 -10.441  10.596  1.00  0.00     0.147 A 
HETATM   17  N   UNL     1      43.453 -10.545  11.745  1.00  0.00    -0.185 NA
HETATM   18  N   UNL     1      42.271  -9.966  11.492  1.00  0.00    -0.285 N 
HETATM   19  C   UNL     1      41.254  -9.939  12.517  1.00  0.00     0.179 C 
HETATM   20  C   UNL     1      42.202  -9.425  10.236  1.00  0.00     0.120 A 
ENDBRANCH  11  15
ENDBRANCH   7   8
ENDBRANCH   1   7
BRANCH   2  21
HETATM   21  N   UNL     1      42.303 -15.790   5.442  1.00  0.00    -0.380 N 
HETATM   22  C   UNL     1      41.271 -15.533   6.458  1.00  0.00     0.150 C 
BRANCH  21  23
HETATM   23  C   UNL     1      43.576 -16.458   5.810  1.00  0.00     0.087 C 
HETATM   24  C   UNL     1      44.283 -17.060   4.583  1.00  0.00     0.053 C 
HETATM   25  C   UNL     1      43.945 -18.517   4.295  1.00  0.00     0.236 C 
HETATM   26  N   UNL     1      44.103 -19.340   5.542  1.00  0.00    -0.075 N 
HETATM   27  H   UNL     1      45.076 -19.255   5.871  1.00  0.00     0.279 HD
HETATM   28  C   UNL     1      43.914 -20.814   5.265  1.00  0.00     0.269 C 
HETATM   29  C   UNL     1      43.186 -18.865   6.637  1.00  0.00     0.236 C 
HETATM   30  C   UNL     1      43.520 -17.428   6.995  1.00  0.00     0.053 C 
ENDBRANCH  21  23
ENDBRANCH   2  21
TORSDOF 5
ENDMDL
MODEL 10
REMARK VINA RESULT:      -6.7      3.141      7.741
REMARK  5 active torsions:
REMARK  status: ('A' for Active; 'I' for Inactive)
REMARK    1  A    between atoms: C_5  and  C_6 
REMARK    2  A    between atoms: N_9  and  C_11 
REMARK    3  A    between atoms: C_11  and  C_12 
REMARK    4  A    between atoms: C_13  and  N_14 
REMARK    5  A    between atoms: N_14  and  C_15 
ROOT
HETATM    1  C   UNL     1      40.712 -12.675   3.541  1.00  0.00    -0.006 A 
HETATM    2  C   UNL     1      40.915 -13.973   4.066  1.00  0.00     0.038 A 
HETATM    3  C   UNL     1      40.559 -14.209   5.409  1.00  0.00     0.030 A 
HETATM    4  C   UNL     1      40.023 -13.204   6.215  1.00  0.00     0.002 A 
HETATM    5  C   UNL     1      39.804 -11.941   5.690  1.00  0.00     0.001 A 
HETATM    6  C   UNL     1      40.134 -11.682   4.363  1.00  0.00     0.011 A 
ENDROOT
BRANCH   1   7
HETATM    7  C   UNL     1      41.027 -12.319   2.111  1.00  0.00     0.275 C 
BRANCH   7   8
HETATM    8  N   UNL     1      39.958 -12.742   1.102  1.00  0.00    -0.067 N 
HETATM    9  C   UNL     1      39.181 -11.532   0.639  1.00  0.00     0.236 C 
HETATM   10  C   UNL     1      38.087 -11.949  -0.334  1.00  0.00     0.037 C 
HETATM   11  C   UNL     1      38.664 -12.673  -1.561  1.00  0.00     0.025 C 
HETATM   12  C   UNL     1      39.434 -13.899  -1.058  1.00  0.00     0.037 C 
HETATM   13  C   UNL     1      40.523 -13.543  -0.051  1.00  0.00     0.236 C 
HETATM   14  H   UNL     1      39.324 -13.363   1.615  1.00  0.00     0.280 HD
BRANCH  11  15
HETATM   15  C   UNL     1      39.478 -11.754  -2.433  1.00  0.00    -0.018 A 
HETATM   16  C   UNL     1      40.738 -12.031  -3.023  1.00  0.00     0.147 A 
HETATM   17  N   UNL     1      41.167 -11.045  -3.808  1.00  0.00    -0.185 NA
HETATM   18  N   UNL     1      40.258 -10.074  -3.637  1.00  0.00    -0.285 N 
HETATM   19  C   UNL     1      40.431  -8.808  -4.310  1.00  0.00     0.179 C 
HETATM   20  C   UNL     1      39.222 -10.453  -2.828  1.00  0.00     0.120 A 
ENDBRANCH  11  15
ENDBRANCH   7   8
ENDBRANCH   1   7
BRANCH   2  21
HETATM   21  N   UNL     1      41.355 -15.031   3.235  1.00  0.00    -0.380 N 
HETATM   22  C   UNL     1      40.351 -16.102   3.146  1.00  0.00     0.150 C 
BRANCH  21  23
HETATM   23  C   UNL     1      42.803 -15.354   3.285  1.00  0.00     0.087 C 
HETATM   24  C   UNL     1      43.233 -16.242   2.104  1.00  0.00     0.053 C 
HETATM   25  C   UNL     1      43.191 -17.740   2.374  1.00  0.00     0.236 C 
HETATM   26  N   UNL     1      43.913 -18.054   3.653  1.00  0.00    -0.075 N 
HETATM   27  H   UNL     1      44.887 -17.731   3.569  1.00  0.00     0.279 HD
HETATM   28  C   UNL     1      44.016 -19.545   3.884  1.00  0.00     0.269 C 
HETATM   29  C   UNL     1      43.280 -17.359   4.829  1.00  0.00     0.236 C 
HETATM   30  C   UNL     1      43.344 -15.855   4.628  1.00  0.00     0.053 C 
ENDBRANCH  21  23
ENDBRANCH   2  21
TORSDOF 5
ENDMDL
