MODEL 1
REMARK VINA RESULT:      -9.1      0.000      0.000
REMARK  5 active torsions:
REMARK  status: ('A' for Active; 'I' for Inactive)
REMARK    1  A    between atoms: C_7  and  C_8 
REMARK    2  A    between atoms: N_9  and  N_10 
REMARK       I    between atoms: N_10  and  C_11 
REMARK    3  A    between atoms: C_11  and  C_12 
REMARK    4  A    between atoms: C_12  and  N_13 
REMARK       I    between atoms: N_13  and  C_14 
REMARK    5  A    between atoms: C_14  and  C_15 
ROOT
HETATM    1  N   UNL     1      40.430 -14.138   2.994  1.00  0.00    -0.246 N 
HETATM    2  C   UNL     1      39.770 -13.120   3.666  1.00  0.00     0.255 C 
HETATM    3  O   UNL     1      39.705 -12.983   4.887  1.00  0.00    -0.270 OA
HETATM    4  H   UNL     1      40.490 -14.100   1.972  1.00  0.00     0.192 HD
ENDROOT
BRANCH   1   5
HETATM    5  N   UNL     1      41.030 -15.148   3.684  1.00  0.00    -0.184 NA
HETATM    6  C   UNL     1      42.274 -15.356   3.393  1.00  0.00     0.153 C 
BRANCH   6   7
HETATM    7  C   UNL     1      43.011 -16.425   4.044  1.00  0.00     0.018 A 
HETATM    8  C   UNL     1      43.645 -16.374   5.279  1.00  0.00     0.018 A 
HETATM    9  C   UNL     1      43.771 -15.272   6.271  1.00  0.00     0.069 C 
HETATM   10  N   UNL     1      44.207 -17.605   5.512  1.00  0.00    -0.358 N 
HETATM   11  H   UNL     1      44.731 -17.855   6.340  1.00  0.00     0.166 HD
HETATM   12  C   UNL     1      43.955 -18.459   4.467  1.00  0.00     0.043 A 
HETATM   13  C   UNL     1      43.208 -17.750   3.527  1.00  0.00     0.004 A 
HETATM   14  C   UNL     1      44.330 -19.797   4.291  1.00  0.00     0.030 A 
HETATM   15  C   UNL     1      42.816 -18.419   2.347  1.00  0.00     0.014 A 
HETATM   16  C   UNL     1      43.182 -19.756   2.153  1.00  0.00     0.001 A 
HETATM   17  C   UNL     1      43.928 -20.433   3.114  1.00  0.00     0.002 A 
ENDBRANCH   6   7
ENDBRANCH   1   5
BRANCH   2  18
HETATM   18  C   UNL     1      39.054 -12.160   2.716  1.00  0.00     0.227 C 
BRANCH  18  19
HETATM   19  N   UNL     1      38.734 -12.754   1.428  1.00  0.00    -0.348 N 
HETATM   20  C   UNL     1      39.251 -12.255   0.254  1.00  0.00     0.252 C 
HETATM   21  O   UNL     1      39.922 -11.228   0.212  1.00  0.00    -0.268 OA
HETATM   22  H   UNL     1      37.977 -13.426   1.399  1.00  0.00     0.163 HD
BRANCH  20  23
HETATM   23  C   UNL     1      38.902 -12.995  -0.987  1.00  0.00     0.032 A 
HETATM   24  C   UNL     1      37.713 -12.670  -1.653  1.00  0.00     0.020 A 
HETATM   25  C   UNL     1      37.368 -13.336  -2.830  1.00  0.00     0.043 A 
HETATM   26  C   UNL     1      38.218 -14.313  -3.340  1.00  0.00     0.116 A 
HETATM   27  F   UNL     1      37.890 -14.947  -4.473  1.00  0.00    -0.206 F 
HETATM   28  C   UNL     1      39.409 -14.634  -2.697  1.00  0.00     0.043 A 
HETATM   29  C   UNL     1      39.757 -13.974  -1.517  1.00  0.00     0.020 A 
ENDBRANCH  20  23
ENDBRANCH  18  19
ENDBRANCH   2  18
TORSDOF 5
ENDMDL
MODEL 2
REMARK VINA RESULT:      -8.3      3.004      8.021
REMARK  5 active torsions:
REMARK  status: ('A' for Active; 'I' for Inactive)
REMARK    1  A    between atoms: C_7  and  C_8 
REMARK    2  A    between atoms: N_9  and  N_10 
REMARK       I    between atoms: N_10  and  C_11 
REMARK    3  A    between atoms: C_11  and  C_12 
REMARK    4  A    between atoms: C_12  and  N_13 
REMARK       I    between atoms: N_13  and  C_14 
REMARK    5  A    between atoms: C_14  and  C_15 
ROOT
HETATM    1  N   UNL     1      40.363 -14.531   3.835  1.00  0.00    -0.246 N 
HETATM    2  C   UNL     1      40.898 -13.966   4.984  1.00  0.00     0.255 C 
HETATM    3  O   UNL     1      41.064 -12.765   5.188  1.00  0.00    -0.270 OA
HETATM    4  H   UNL     1      40.192 -15.541   3.813  1.00  0.00     0.192 HD
ENDROOT
BRANCH   1   5
HETATM    5  N   UNL     1      40.026 -13.749   2.771  1.00  0.00    -0.184 NA
HETATM    6  C   UNL     1      40.756 -13.907   1.714  1.00  0.00     0.153 C 
BRANCH   6   7
HETATM    7  C   UNL     1      40.509 -13.108   0.526  1.00  0.00     0.018 A 
HETATM    8  C   UNL     1      40.809 -11.763   0.344  1.00  0.00     0.018 A 
HETATM    9  C   UNL     1      41.436 -10.767   1.255  1.00  0.00     0.069 C 
HETATM   10  N   UNL     1      40.418 -11.415  -0.925  1.00  0.00    -0.358 N 
HETATM   11  H   UNL     1      40.519 -10.494  -1.330  1.00  0.00     0.166 HD
HETATM   12  C   UNL     1      39.875 -12.494  -1.579  1.00  0.00     0.043 A 
HETATM   13  C   UNL     1      39.915 -13.572  -0.696  1.00  0.00     0.004 A 
HETATM   14  C   UNL     1      39.360 -12.591  -2.877  1.00  0.00     0.030 A 
HETATM   15  C   UNL     1      39.411 -14.815  -1.138  1.00  0.00     0.014 A 
HETATM   16  C   UNL     1      38.891 -14.930  -2.433  1.00  0.00     0.001 A 
HETATM   17  C   UNL     1      38.868 -13.832  -3.289  1.00  0.00     0.002 A 
ENDBRANCH   6   7
ENDBRANCH   1   5
BRANCH   2  18
HETATM   18  C   UNL     1      41.330 -15.017   6.006  1.00  0.00     0.227 C 
BRANCH  18  19
HETATM   19  N   UNL     1      41.798 -16.254   5.400  1.00  0.00    -0.348 N 
HETATM   20  C   UNL     1      43.128 -16.605   5.412  1.00  0.00     0.252 C 
HETATM   21  O   UNL     1      44.005 -15.859   5.837  1.00  0.00    -0.268 OA
HETATM   22  H   UNL     1      41.149 -16.759   4.809  1.00  0.00     0.163 HD
BRANCH  20  23
HETATM   23  C   UNL     1      43.465 -17.927   4.822  1.00  0.00     0.032 A 
HETATM   24  C   UNL     1      43.725 -19.003   5.682  1.00  0.00     0.020 A 
HETATM   25  C   UNL     1      44.027 -20.260   5.156  1.00  0.00     0.043 A 
HETATM   26  C   UNL     1      44.057 -20.437   3.777  1.00  0.00     0.116 A 
HETATM   27  F   UNL     1      44.340 -21.646   3.274  1.00  0.00    -0.206 F 
HETATM   28  C   UNL     1      43.787 -19.383   2.912  1.00  0.00     0.043 A 
HETATM   29  C   UNL     1      43.487 -18.122   3.432  1.00  0.00     0.020 A 
ENDBRANCH  20  23
ENDBRANCH  18  19
ENDBRANCH   2  18
TORSDOF 5
ENDMDL
MODEL 3
REMARK VINA RESULT:      -8.2      4.820      8.241
REMARK  5 active torsions:
REMARK  status: ('A' for Active; 'I' for Inactive)
REMARK    1  A    between atoms: C_7  and  C_8 
REMARK    2  A    between atoms: N_9  and  N_10 
REMARK       I    between atoms: N_10  and  C_11 
REMARK    3  A    between atoms: C_11  and  C_12 
REMARK    4  A    between atoms: C_12  and  N_13 
REMARK       I    between atoms: N_13  and  C_14 
REMARK    5  A    between atoms: C_14  and  C_15 
ROOT
HETATM    1  N   UNL     1      41.523 -13.008   4.143  1.00  0.00    -0.246 N 
HETATM    2  C   UNL     1      41.795 -13.196   2.796  1.00  0.00     0.255 C 
HETATM    3  O   UNL     1      42.413 -12.421   2.069  1.00  0.00    -0.270 OA
HETATM    4  H   UNL     1      41.074 -13.765   4.669  1.00  0.00     0.192 HD
ENDROOT
BRANCH   1   5
HETATM    5  N   UNL     1      41.890 -11.855   4.770  1.00  0.00    -0.184 NA
HETATM    6  C   UNL     1      42.202 -11.978   6.020  1.00  0.00     0.153 C 
BRANCH   6   7
HETATM    7  C   UNL     1      42.581 -10.813   6.799  1.00  0.00     0.018 A 
HETATM    8  C   UNL     1      41.739  -9.822   7.289  1.00  0.00     0.018 A 
HETATM    9  C   UNL     1      40.266  -9.643   7.173  1.00  0.00     0.069 C 
HETATM   10  N   UNL     1      42.511  -8.919   7.977  1.00  0.00    -0.358 N 
HETATM   11  H   UNL     1      42.160  -8.094   8.443  1.00  0.00     0.166 HD
HETATM   12  C   UNL     1      43.832  -9.294   7.955  1.00  0.00     0.043 A 
HETATM   13  C   UNL     1      43.912 -10.477   7.223  1.00  0.00     0.004 A 
HETATM   14  C   UNL     1      44.950  -8.676   8.529  1.00  0.00     0.030 A 
HETATM   15  C   UNL     1      45.181 -11.074   7.056  1.00  0.00     0.014 A 
HETATM   16  C   UNL     1      46.310 -10.470   7.622  1.00  0.00     0.001 A 
HETATM   17  C   UNL     1      46.193  -9.288   8.349  1.00  0.00     0.002 A 
ENDBRANCH   6   7
ENDBRANCH   1   5
BRANCH   2  18
HETATM   18  C   UNL     1      41.190 -14.490   2.252  1.00  0.00     0.227 C 
BRANCH  18  19
HETATM   19  N   UNL     1      41.726 -15.688   2.880  1.00  0.00    -0.348 N 
HETATM   20  C   UNL     1      42.745 -16.410   2.303  1.00  0.00     0.252 C 
HETATM   21  O   UNL     1      43.189 -16.153   1.187  1.00  0.00    -0.268 OA
HETATM   22  H   UNL     1      41.209 -16.079   3.657  1.00  0.00     0.163 HD
BRANCH  20  23
HETATM   23  C   UNL     1      43.250 -17.573   3.079  1.00  0.00     0.032 A 
HETATM   24  C   UNL     1      43.487 -17.414   4.452  1.00  0.00     0.020 A 
HETATM   25  C   UNL     1      43.946 -18.492   5.210  1.00  0.00     0.043 A 
HETATM   26  C   UNL     1      44.152 -19.724   4.596  1.00  0.00     0.116 A 
HETATM   27  F   UNL     1      44.584 -20.760   5.326  1.00  0.00    -0.206 F 
HETATM   28  C   UNL     1      43.906 -19.900   3.239  1.00  0.00     0.043 A 
HETATM   29  C   UNL     1      43.451 -18.822   2.474  1.00  0.00     0.020 A 
ENDBRANCH  20  23
ENDBRANCH  18  19
ENDBRANCH   2  18
TORSDOF 5
ENDMDL
MODEL 4
REMARK VINA RESULT:      -8.2      6.845      9.960
REMARK  5 active torsions:
REMARK  status: ('A' for Active; 'I' for Inactive)
REMARK    1  A    between atoms: C_7  and  C_8 
REMARK    2  A    between atoms: N_9  and  N_10 
REMARK       I    between atoms: N_10  and  C_11 
REMARK    3  A    between atoms: C_11  and  C_12 
REMARK    4  A    between atoms: C_12  and  N_13 
REMARK       I    between atoms: N_13  and  C_14 
REMARK    5  A    between atoms: C_14  and  C_15 
ROOT
HETATM    1  N   UNL     1      44.065 -12.660   6.985  1.00  0.00    -0.246 N 
HETATM    2  C   UNL     1      43.838 -11.317   7.251  1.00  0.00     0.255 C 
HETATM    3  O   UNL     1      43.168 -10.548   6.565  1.00  0.00    -0.270 OA
HETATM    4  H   UNL     1      44.568 -13.225   7.677  1.00  0.00     0.192 HD
ENDROOT
BRANCH   1   5
HETATM    5  N   UNL     1      43.584 -13.231   5.845  1.00  0.00    -0.184 NA
HETATM    6  C   UNL     1      43.120 -14.432   5.979  1.00  0.00     0.153 C 
BRANCH   6   7
HETATM    7  C   UNL     1      42.607 -15.153   4.828  1.00  0.00     0.018 A 
HETATM    8  C   UNL     1      41.566 -14.765   3.992  1.00  0.00     0.018 A 
HETATM    9  C   UNL     1      40.691 -13.562   4.012  1.00  0.00     0.069 C 
HETATM   10  N   UNL     1      41.421 -15.732   3.029  1.00  0.00    -0.358 N 
HETATM   11  H   UNL     1      40.738 -15.710   2.284  1.00  0.00     0.166 HD
HETATM   12  C   UNL     1      42.340 -16.738   3.208  1.00  0.00     0.043 A 
HETATM   13  C   UNL     1      43.099 -16.407   4.329  1.00  0.00     0.004 A 
HETATM   14  C   UNL     1      42.551 -17.904   2.461  1.00  0.00     0.030 A 
HETATM   15  C   UNL     1      44.125 -17.292   4.724  1.00  0.00     0.014 A 
HETATM   16  C   UNL     1      44.351 -18.463   3.990  1.00  0.00     0.001 A 
HETATM   17  C   UNL     1      43.574 -18.761   2.875  1.00  0.00     0.002 A 
ENDBRANCH   6   7
ENDBRANCH   1   5
BRANCH   2  18
HETATM   18  C   UNL     1      44.567 -10.839   8.507  1.00  0.00     0.227 C 
BRANCH  18  19
HETATM   19  N   UNL     1      43.705 -10.135   9.443  1.00  0.00    -0.348 N 
HETATM   20  C   UNL     1      43.792 -10.343  10.800  1.00  0.00     0.252 C 
HETATM   21  O   UNL     1      44.521 -11.199  11.293  1.00  0.00    -0.268 OA
HETATM   22  H   UNL     1      42.916  -9.629   9.061  1.00  0.00     0.163 HD
BRANCH  20  23
HETATM   23  C   UNL     1      42.903  -9.510  11.653  1.00  0.00     0.032 A 
HETATM   24  C   UNL     1      43.454  -8.416  12.333  1.00  0.00     0.020 A 
HETATM   25  C   UNL     1      42.641  -7.606  13.127  1.00  0.00     0.043 A 
HETATM   26  C   UNL     1      41.282  -7.886  13.227  1.00  0.00     0.116 A 
HETATM   27  F   UNL     1      40.501  -7.104  13.983  1.00  0.00    -0.206 F 
HETATM   28  C   UNL     1      40.719  -8.960  12.545  1.00  0.00     0.043 A 
HETATM   29  C   UNL     1      41.529  -9.776  11.752  1.00  0.00     0.020 A 
ENDBRANCH  20  23
ENDBRANCH  18  19
ENDBRANCH   2  18
TORSDOF 5
ENDMDL
MODEL 5
REMARK VINA RESULT:      -8.0      6.558      9.306
REMARK  5 active torsions:
REMARK  status: ('A' for Active; 'I' for Inactive)
REMARK    1  A    between atoms: C_7  and  C_8 
REMARK    2  A    between atoms: N_9  and  N_10 
REMARK       I    between atoms: N_10  and  C_11 
REMARK    3  A    between atoms: C_11  and  C_12 
REMARK    4  A    between atoms: C_12  and  N_13 
REMARK       I    between atoms: N_13  and  C_14 
REMARK    5  A    between atoms: C_14  and  C_15 
ROOT
HETATM    1  N   UNL     1      42.726 -12.307   6.911  1.00  0.00    -0.246 N 
HETATM    2  C   UNL     1      42.931 -11.157   6.163  1.00  0.00     0.255 C 
HETATM    3  O   UNL     1      43.597 -11.075   5.132  1.00  0.00    -0.270 OA
HETATM    4  H   UNL     1      42.079 -12.273   7.705  1.00  0.00     0.192 HD
ENDROOT
BRANCH   1   5
HETATM    5  N   UNL     1      43.338 -13.475   6.567  1.00  0.00    -0.184 NA
HETATM    6  C   UNL     1      42.558 -14.386   6.080  1.00  0.00     0.153 C 
BRANCH   6   7
HETATM    7  C   UNL     1      43.092 -15.684   5.704  1.00  0.00     0.018 A 
HETATM    8  C   UNL     1      43.678 -16.624   6.543  1.00  0.00     0.018 A 
HETATM    9  C   UNL     1      43.936 -16.602   8.009  1.00  0.00     0.069 C 
HETATM   10  N   UNL     1      44.030 -17.707   5.777  1.00  0.00    -0.358 N 
HETATM   11  H   UNL     1      44.474 -18.544   6.128  1.00  0.00     0.166 HD
HETATM   12  C   UNL     1      43.687 -17.504   4.462  1.00  0.00     0.043 A 
HETATM   13  C   UNL     1      43.098 -16.243   4.381  1.00  0.00     0.004 A 
HETATM   14  C   UNL     1      43.853 -18.340   3.352  1.00  0.00     0.030 A 
HETATM   15  C   UNL     1      42.652 -15.796   3.118  1.00  0.00     0.014 A 
HETATM   16  C   UNL     1      42.810 -16.619   1.996  1.00  0.00     0.001 A 
HETATM   17  C   UNL     1      43.403 -17.873   2.115  1.00  0.00     0.002 A 
ENDBRANCH   6   7
ENDBRANCH   1   5
BRANCH   2  18
HETATM   18  C   UNL     1      42.267  -9.928   6.784  1.00  0.00     0.227 C 
BRANCH  18  19
HETATM   19  N   UNL     1      42.306  -9.923   8.238  1.00  0.00    -0.348 N 
HETATM   20  C   UNL     1      42.611  -8.785   8.948  1.00  0.00     0.252 C 
HETATM   21  O   UNL     1      42.966  -7.742   8.404  1.00  0.00    -0.268 OA
HETATM   22  H   UNL     1      42.286 -10.819   8.709  1.00  0.00     0.163 HD
BRANCH  20  23
HETATM   23  C   UNL     1      42.549  -8.895  10.429  1.00  0.00     0.032 A 
HETATM   24  C   UNL     1      41.581  -9.730  11.002  1.00  0.00     0.020 A 
HETATM   25  C   UNL     1      41.510  -9.866  12.389  1.00  0.00     0.043 A 
HETATM   26  C   UNL     1      42.413  -9.179  13.193  1.00  0.00     0.116 A 
HETATM   27  F   UNL     1      42.349  -9.316  14.524  1.00  0.00    -0.206 F 
HETATM   28  C   UNL     1      43.389  -8.359  12.637  1.00  0.00     0.043 A 
HETATM   29  C   UNL     1      43.462  -8.215  11.250  1.00  0.00     0.020 A 
ENDBRANCH  20  23
ENDBRANCH  18  19
ENDBRANCH   2  18
TORSDOF 5
ENDMDL
MODEL 6
REMARK VINA RESULT:      -8.0      3.401      4.015
REMARK  5 active torsions:
REMARK  status: ('A' for Active; 'I' for Inactive)
REMARK    1  A    between atoms: C_7  and  C_8 
REMARK    2  A    between atoms: N_9  and  N_10 
REMARK       I    between atoms: N_10  and  C_11 
REMARK    3  A    between atoms: C_11  and  C_12 
REMARK    4  A    between atoms: C_12  and  N_13 
REMARK       I    between atoms: N_13  and  C_14 
REMARK    5  A    between atoms: C_14  and  C_15 
ROOT
HETATM    1  N   UNL     1      41.140 -14.283   0.251  1.00  0.00    -0.246 N 
HETATM    2  C   UNL     1      39.946 -14.834  -0.190  1.00  0.00     0.255 C 
HETATM    3  O   UNL     1      39.471 -15.910   0.167  1.00  0.00    -0.270 OA
HETATM    4  H   UNL     1      41.393 -13.337  -0.052  1.00  0.00     0.192 HD
ENDROOT
BRANCH   1   5
HETATM    5  N   UNL     1      41.943 -14.970   1.112  1.00  0.00    -0.184 NA
HETATM    6  C   UNL     1      41.680 -14.802   2.369  1.00  0.00     0.153 C 
BRANCH   6   7
HETATM    7  C   UNL     1      42.486 -15.461   3.381  1.00  0.00     0.018 A 
HETATM    8  C   UNL     1      42.907 -14.928   4.594  1.00  0.00     0.018 A 
HETATM    9  C   UNL     1      42.685 -13.590   5.206  1.00  0.00     0.069 C 
HETATM   10  N   UNL     1      43.635 -15.893   5.244  1.00  0.00    -0.358 N 
HETATM   11  H   UNL     1      44.063 -15.782   6.153  1.00  0.00     0.166 HD
HETATM   12  C   UNL     1      43.699 -17.042   4.494  1.00  0.00     0.043 A 
HETATM   13  C   UNL     1      42.990 -16.804   3.317  1.00  0.00     0.004 A 
HETATM   14  C   UNL     1      44.326 -18.263   4.772  1.00  0.00     0.030 A 
HETATM   15  C   UNL     1      42.905 -17.846   2.368  1.00  0.00     0.014 A 
HETATM   16  C   UNL     1      43.526 -19.074   2.629  1.00  0.00     0.001 A 
HETATM   17  C   UNL     1      44.225 -19.276   3.816  1.00  0.00     0.002 A 
ENDBRANCH   6   7
ENDBRANCH   1   5
BRANCH   2  18
HETATM   18  C   UNL     1      39.259 -13.969  -1.248  1.00  0.00     0.227 C 
BRANCH  18  19
HETATM   19  N   UNL     1      39.826 -12.634  -1.359  1.00  0.00    -0.348 N 
HETATM   20  C   UNL     1      40.546 -12.246  -2.465  1.00  0.00     0.252 C 
HETATM   21  O   UNL     1      40.841 -13.023  -3.368  1.00  0.00    -0.268 OA
HETATM   22  H   UNL     1      39.834 -12.059  -0.525  1.00  0.00     0.163 HD
BRANCH  20  23
HETATM   23  C   UNL     1      41.011 -10.834  -2.486  1.00  0.00     0.032 A 
HETATM   24  C   UNL     1      41.704 -10.336  -1.375  1.00  0.00     0.020 A 
HETATM   25  C   UNL     1      42.167  -9.019  -1.373  1.00  0.00     0.043 A 
HETATM   26  C   UNL     1      41.946  -8.213  -2.486  1.00  0.00     0.116 A 
HETATM   27  F   UNL     1      42.397  -6.952  -2.487  1.00  0.00    -0.206 F 
HETATM   28  C   UNL     1      41.273  -8.699  -3.602  1.00  0.00     0.043 A 
HETATM   29  C   UNL     1      40.804 -10.015  -3.606  1.00  0.00     0.020 A 
ENDBRANCH  20  23
ENDBRANCH  18  19
ENDBRANCH   2  18
TORSDOF 5
ENDMDL
MODEL 7
REMARK VINA RESULT:      -7.9      1.866      2.257
REMARK  5 active torsions:
REMARK  status: ('A' for Active; 'I' for Inactive)
REMARK    1  A    between atoms: C_7  and  C_8 
REMARK    2  A    between atoms: N_9  and  N_10 
REMARK       I    between atoms: N_10  and  C_11 
REMARK    3  A    between atoms: C_11  and  C_12 
REMARK    4  A    between atoms: C_12  and  N_13 
REMARK       I    between atoms: N_13  and  C_14 
REMARK    5  A    between atoms: C_14  and  C_15 
ROOT
HETATM    1  N   UNL     1      41.821 -14.149   2.331  1.00  0.00    -0.246 N 
HETATM    2  C   UNL     1      40.928 -14.224   1.272  1.00  0.00     0.255 C 
HETATM    3  O   UNL     1      40.202 -15.180   1.006  1.00  0.00    -0.270 OA
HETATM    4  H   UNL     1      42.311 -13.266   2.506  1.00  0.00     0.192 HD
ENDROOT
BRANCH   1   5
HETATM    5  N   UNL     1      42.008 -15.217   3.157  1.00  0.00    -0.184 NA
HETATM    6  C   UNL     1      43.223 -15.658   3.226  1.00  0.00     0.153 C 
BRANCH   6   7
HETATM    7  C   UNL     1      43.539 -16.811   4.051  1.00  0.00     0.018 A 
HETATM    8  C   UNL     1      43.836 -16.813   5.408  1.00  0.00     0.018 A 
HETATM    9  C   UNL     1      43.927 -15.701   6.393  1.00  0.00     0.069 C 
HETATM   10  N   UNL     1      44.060 -18.114   5.785  1.00  0.00    -0.358 N 
HETATM   11  H   UNL     1      44.294 -18.413   6.722  1.00  0.00     0.166 HD
HETATM   12  C   UNL     1      43.913 -18.962   4.715  1.00  0.00     0.043 A 
HETATM   13  C   UNL     1      43.588 -18.177   3.610  1.00  0.00     0.004 A 
HETATM   14  C   UNL     1      44.042 -20.355   4.649  1.00  0.00     0.030 A 
HETATM   15  C   UNL     1      43.381 -18.823   2.371  1.00  0.00     0.014 A 
HETATM   16  C   UNL     1      43.506 -20.215   2.286  1.00  0.00     0.001 A 
HETATM   17  C   UNL     1      43.831 -20.968   3.411  1.00  0.00     0.002 A 
ENDBRANCH   6   7
ENDBRANCH   1   5
BRANCH   2  18
HETATM   18  C   UNL     1      40.959 -12.975   0.392  1.00  0.00     0.227 C 
BRANCH  18  19
HETATM   19  N   UNL     1      39.828 -12.879  -0.517  1.00  0.00    -0.348 N 
HETATM   20  C   UNL     1      38.885 -11.885  -0.393  1.00  0.00     0.252 C 
HETATM   21  O   UNL     1      38.883 -11.088   0.542  1.00  0.00    -0.268 OA
HETATM   22  H   UNL     1      39.650 -13.669  -1.125  1.00  0.00     0.163 HD
BRANCH  20  23
HETATM   23  C   UNL     1      37.817 -11.857  -1.427  1.00  0.00     0.032 A 
HETATM   24  C   UNL     1      37.552 -13.026  -2.153  1.00  0.00     0.020 A 
HETATM   25  C   UNL     1      36.544 -13.034  -3.118  1.00  0.00     0.043 A 
HETATM   26  C   UNL     1      35.799 -11.881  -3.342  1.00  0.00     0.116 A 
HETATM   27  F   UNL     1      34.827 -11.892  -4.263  1.00  0.00    -0.206 F 
HETATM   28  C   UNL     1      36.041 -10.719  -2.618  1.00  0.00     0.043 A 
HETATM   29  C   UNL     1      37.052 -10.703  -1.654  1.00  0.00     0.020 A 
ENDBRANCH  20  23
ENDBRANCH  18  19
ENDBRANCH   2  18
TORSDOF 5
ENDMDL
MODEL 8
REMARK VINA RESULT:      -7.7     15.164     17.067
REMARK  5 active torsions:
REMARK  status: ('A' for Active; 'I' for Inactive)
REMARK    1  A    between atoms: C_7  and  C_8 
REMARK    2  A    between atoms: N_9  and  N_10 
REMARK       I    between atoms: N_10  and  C_11 
REMARK    3  A    between atoms: C_11  and  C_12 
REMARK    4  A    between atoms: C_12  and  N_13 
REMARK       I    between atoms: N_13  and  C_14 
REMARK    5  A    between atoms: C_14  and  C_15 
ROOT
HETATM    1  N   UNL     1      43.445 -30.300   3.487  1.00  0.00    -0.246 N 
HETATM    2  C   UNL     1      42.100 -30.257   3.149  1.00  0.00     0.255 C 
HETATM    3  O   UNL     1      41.644 -30.139   2.013  1.00  0.00    -0.270 OA
HETATM    4  H   UNL     1      43.706 -30.489   4.460  1.00  0.00     0.192 HD
ENDROOT
BRANCH   1   5
HETATM    5  N   UNL     1      44.404 -30.141   2.532  1.00  0.00    -0.184 NA
HETATM    6  C   UNL     1      45.110 -29.061   2.630  1.00  0.00     0.153 C 
BRANCH   6   7
HETATM    7  C   UNL     1      46.143 -28.769   1.652  1.00  0.00     0.018 A 
HETATM    8  C   UNL     1      47.506 -28.637   1.888  1.00  0.00     0.018 A 
HETATM    9  C   UNL     1      48.297 -28.739   3.144  1.00  0.00     0.069 C 
HETATM   10  N   UNL     1      48.115 -28.373   0.686  1.00  0.00    -0.358 N 
HETATM   11  H   UNL     1      49.108 -28.232   0.559  1.00  0.00     0.166 HD
HETATM   12  C   UNL     1      47.191 -28.333  -0.329  1.00  0.00     0.043 A 
HETATM   13  C   UNL     1      45.942 -28.576   0.243  1.00  0.00     0.004 A 
HETATM   14  C   UNL     1      47.370 -28.104  -1.699  1.00  0.00     0.030 A 
HETATM   15  C   UNL     1      44.813 -28.590  -0.604  1.00  0.00     0.014 A 
HETATM   16  C   UNL     1      44.973 -28.362  -1.977  1.00  0.00     0.001 A 
HETATM   17  C   UNL     1      46.236 -28.124  -2.513  1.00  0.00     0.002 A 
ENDBRANCH   6   7
ENDBRANCH   1   5
BRANCH   2  18
HETATM   18  C   UNL     1      41.187 -30.323   4.373  1.00  0.00     0.227 C 
BRANCH  18  19
HETATM   19  N   UNL     1      40.142 -31.329   4.261  1.00  0.00    -0.348 N 
HETATM   20  C   UNL     1      39.689 -32.023   5.359  1.00  0.00     0.252 C 
HETATM   21  O   UNL     1      40.203 -31.913   6.469  1.00  0.00    -0.268 OA
HETATM   22  H   UNL     1      39.888 -31.636   3.331  1.00  0.00     0.163 HD
BRANCH  20  23
HETATM   23  C   UNL     1      38.571 -32.973   5.122  1.00  0.00     0.032 A 
HETATM   24  C   UNL     1      38.257 -33.329   3.803  1.00  0.00     0.020 A 
HETATM   25  C   UNL     1      37.223 -34.232   3.551  1.00  0.00     0.043 A 
HETATM   26  C   UNL     1      36.518 -34.783   4.617  1.00  0.00     0.116 A 
HETATM   27  F   UNL     1      35.531 -35.655   4.375  1.00  0.00    -0.206 F 
HETATM   28  C   UNL     1      36.829 -34.451   5.931  1.00  0.00     0.043 A 
HETATM   29  C   UNL     1      37.860 -33.544   6.189  1.00  0.00     0.020 A 
ENDBRANCH  20  23
ENDBRANCH  18  19
ENDBRANCH   2  18
TORSDOF 5
ENDMDL
MODEL 9
REMARK VINA RESULT:      -7.7      6.918     10.247
REMARK  5 active torsions:
REMARK  status: ('A' for Active; 'I' for Inactive)
REMARK    1  A    between atoms: C_7  and  C_8 
REMARK    2  A    between atoms: N_9  and  N_10 
REMARK       I    between atoms: N_10  and  C_11 
REMARK    3  A    between atoms: C_11  and  C_12 
REMARK    4  A    between atoms: C_12  and  N_13 
REMARK       I    between atoms: N_13  and  C_14 
REMARK    5  A    between atoms: C_14  and  C_15 
ROOT
HETATM    1  N   UNL     1      42.963 -10.950   6.567  1.00  0.00    -0.246 N 
HETATM    2  C   UNL     1      44.075 -11.243   7.344  1.00  0.00     0.255 C 
HETATM    3  O   UNL     1      44.533 -12.364   7.555  1.00  0.00    -0.270 OA
HETATM    4  H   UNL     1      42.726  -9.969   6.391  1.00  0.00     0.192 HD
ENDROOT
BRANCH   1   5
HETATM    5  N   UNL     1      42.226 -11.951   6.008  1.00  0.00    -0.184 NA
HETATM    6  C   UNL     1      42.045 -11.858   4.730  1.00  0.00     0.153 C 
BRANCH   6   7
HETATM    7  C   UNL     1      41.252 -12.852   4.027  1.00  0.00     0.018 A 
HETATM    8  C   UNL     1      39.944 -12.714   3.577  1.00  0.00     0.018 A 
HETATM    9  C   UNL     1      38.992 -11.574   3.669  1.00  0.00     0.069 C 
HETATM   10  N   UNL     1      39.589 -13.887   2.959  1.00  0.00    -0.358 N 
HETATM   11  H   UNL     1      38.690 -14.068   2.534  1.00  0.00     0.166 HD
HETATM   12  C   UNL     1      40.627 -14.786   2.989  1.00  0.00     0.043 A 
HETATM   13  C   UNL     1      41.686 -14.169   3.654  1.00  0.00     0.004 A 
HETATM   14  C   UNL     1      40.703 -16.087   2.477  1.00  0.00     0.030 A 
HETATM   15  C   UNL     1      42.886 -14.896   3.815  1.00  0.00     0.014 A 
HETATM   16  C   UNL     1      42.980 -16.198   3.310  1.00  0.00     0.001 A 
HETATM   17  C   UNL     1      41.902 -16.783   2.650  1.00  0.00     0.002 A 
ENDBRANCH   6   7
ENDBRANCH   1   5
BRANCH   2  18
HETATM   18  C   UNL     1      44.684  -9.996   7.985  1.00  0.00     0.227 C 
BRANCH  18  19
HETATM   19  N   UNL     1      44.278  -9.801   9.368  1.00  0.00    -0.348 N 
HETATM   20  C   UNL     1      43.098  -9.173   9.691  1.00  0.00     0.252 C 
HETATM   21  O   UNL     1      42.372  -8.653   8.848  1.00  0.00    -0.268 OA
HETATM   22  H   UNL     1      44.971  -9.972  10.086  1.00  0.00     0.163 HD
BRANCH  20  23
HETATM   23  C   UNL     1      42.765  -9.099  11.138  1.00  0.00     0.032 A 
HETATM   24  C   UNL     1      43.459  -8.184  11.943  1.00  0.00     0.020 A 
HETATM   25  C   UNL     1      43.156  -8.081  13.301  1.00  0.00     0.043 A 
HETATM   26  C   UNL     1      42.157  -8.881  13.845  1.00  0.00     0.116 A 
HETATM   27  F   UNL     1      41.862  -8.776  15.147  1.00  0.00    -0.206 F 
HETATM   28  C   UNL     1      41.450  -9.783  13.055  1.00  0.00     0.043 A 
HETATM   29  C   UNL     1      41.752  -9.893  11.696  1.00  0.00     0.020 A 
ENDBRANCH  20  23
ENDBRANCH  18  19
ENDBRANCH   2  18
TORSDOF 5
ENDMDL
MODEL 10
REMARK VINA RESULT:      -7.6      3.378      4.491
REMARK  5 active torsions:
REMARK  status: ('A' for Active; 'I' for Inactive)
REMARK    1  A    between atoms: C_7  and  C_8 
REMARK    2  A    between atoms: N_9  and  N_10 
REMARK       I    between atoms: N_10  and  C_11 
REMARK    3  A    between atoms: C_11  and  C_12 
REMARK    4  A    between atoms: C_12  and  N_13 
REMARK       I    between atoms: N_13  and  C_14 
REMARK    5  A    between atoms: C_14  and  C_15 
ROOT
HETATM    1  N   UNL     1      41.766 -14.900   0.754  1.00  0.00    -0.246 N 
HETATM    2  C   UNL     1      40.433 -14.664   0.449  1.00  0.00     0.255 C 
HETATM    3  O   UNL     1      39.476 -14.855   1.196  1.00  0.00    -0.270 OA
HETATM    4  H   UNL     1      42.487 -14.620   0.082  1.00  0.00     0.192 HD
ENDROOT
BRANCH   1   5
HETATM    5  N   UNL     1      42.115 -15.451   1.951  1.00  0.00    -0.184 NA
HETATM    6  C   UNL     1      42.841 -16.520   1.879  1.00  0.00     0.153 C 
BRANCH   6   7
HETATM    7  C   UNL     1      43.250 -17.212   3.088  1.00  0.00     0.018 A 
HETATM    8  C   UNL     1      43.610 -18.549   3.207  1.00  0.00     0.018 A 
HETATM    9  C   UNL     1      43.682 -19.638   2.195  1.00  0.00     0.069 C 
HETATM   10  N   UNL     1      43.935 -18.779   4.521  1.00  0.00    -0.358 N 
HETATM   11  H   UNL     1      44.238 -19.668   4.895  1.00  0.00     0.166 HD
HETATM   12  C   UNL     1      43.802 -17.631   5.263  1.00  0.00     0.043 A 
HETATM   13  C   UNL     1      43.372 -16.628   4.395  1.00  0.00     0.004 A 
HETATM   14  C   UNL     1      44.032 -17.411   6.627  1.00  0.00     0.030 A 
HETATM   15  C   UNL     1      43.161 -15.335   4.922  1.00  0.00     0.014 A 
HETATM   16  C   UNL     1      43.385 -15.097   6.283  1.00  0.00     0.001 A 
HETATM   17  C   UNL     1      43.816 -16.123   7.121  1.00  0.00     0.002 A 
ENDBRANCH   6   7
ENDBRANCH   1   5
BRANCH   2  18
HETATM   18  C   UNL     1      40.242 -14.167  -0.985  1.00  0.00     0.227 C 
BRANCH  18  19
HETATM   19  N   UNL     1      40.790 -12.840  -1.214  1.00  0.00    -0.348 N 
HETATM   20  C   UNL     1      40.427 -12.089  -2.308  1.00  0.00     0.252 C 
HETATM   21  O   UNL     1      39.707 -12.527  -3.202  1.00  0.00    -0.268 OA
HETATM   22  H   UNL     1      41.582 -12.558  -0.650  1.00  0.00     0.163 HD
BRANCH  20  23
HETATM   23  C   UNL     1      41.004 -10.721  -2.390  1.00  0.00     0.032 A 
HETATM   24  C   UNL     1      40.794  -9.970  -3.554  1.00  0.00     0.020 A 
HETATM   25  C   UNL     1      41.309  -8.676  -3.652  1.00  0.00     0.043 A 
HETATM   26  C   UNL     1      42.020  -8.138  -2.584  1.00  0.00     0.116 A 
HETATM   27  F   UNL     1      42.508  -6.894  -2.676  1.00  0.00    -0.206 F 
HETATM   28  C   UNL     1      42.223  -8.867  -1.417  1.00  0.00     0.043 A 
HETATM   29  C   UNL     1      41.713 -10.163  -1.315  1.00  0.00     0.020 A 
ENDBRANCH  20  23
ENDBRANCH  18  19
ENDBRANCH   2  18
TORSDOF 5
ENDMDL
