MODEL 1
REMARK VINA RESULT:      -8.6      0.000      0.000
REMARK  5 active torsions:
REMARK  status: ('A' for Active; 'I' for Inactive)
REMARK    1  A    between atoms: O_2  and  C_3 
REMARK    2  A    between atoms: C_4  and  O_5 
REMARK    3  A    between atoms: C_8  and  C_9 
REMARK    4  A    between atoms: N_10  and  N_11 
REMARK       I    between atoms: N_11  and  C_12 
REMARK    5  A    between atoms: C_12  and  C_13 
ROOT
HETATM    1  N   UNL     1      43.528 -12.686   7.472  1.00  0.00    -0.242 N 
HETATM    2  C   UNL     1      44.295 -11.536   7.352  1.00  0.00     0.292 C 
HETATM    3  O   UNL     1      44.869 -11.173   6.328  1.00  0.00    -0.264 OA
HETATM    4  H   UNL     1      43.098 -12.868   8.376  1.00  0.00     0.192 HD
ENDROOT
BRANCH   2   5
HETATM    5  C   UNL     1      44.354 -10.765   8.605  1.00  0.00     0.154 A 
HETATM    6  N   UNL     1      45.373 -10.896   9.488  1.00  0.00    -0.168 NA
HETATM    7  N   UNL     1      45.042 -10.063  10.501  1.00  0.00    -0.276 N 
HETATM    8  H   UNL     1      45.670  -9.995  11.294  1.00  0.00     0.189 HD
HETATM    9  C   UNL     1      43.867  -9.407  10.306  1.00  0.00     0.069 A 
HETATM   10  C   UNL     1      43.404  -9.824   9.078  1.00  0.00     0.007 A 
HETATM   11  C   UNL     1      43.178  -8.454  11.159  1.00  0.00    -0.001 A 
HETATM   12  C   UNL     1      42.113  -9.336   8.521  1.00  0.00     0.048 C 
HETATM   13  C   UNL     1      41.748  -7.951   9.104  1.00  0.00     0.044 C 
HETATM   14  C   UNL     1      42.082  -7.766  10.580  1.00  0.00    -0.045 A 
HETATM   15  C   UNL     1      41.363  -6.843  11.350  1.00  0.00     0.008 A 
HETATM   16  C   UNL     1      41.710  -6.624  12.683  1.00  0.00     0.001 A 
HETATM   17  C   UNL     1      42.782  -7.311  13.252  1.00  0.00     0.001 A 
HETATM   18  C   UNL     1      43.519  -8.224  12.494  1.00  0.00     0.014 A 
ENDBRANCH   2   5
BRANCH   1  19
HETATM   19  N   UNL     1      43.327 -13.497   6.398  1.00  0.00    -0.184 NA
HETATM   20  C   UNL     1      43.733 -14.719   6.518  1.00  0.00     0.150 C 
BRANCH  20  21
HETATM   21  C   UNL     1      43.552 -15.688   5.416  1.00  0.00    -0.014 A 
HETATM   22  C   UNL     1      42.750 -15.356   4.316  1.00  0.00     0.016 A 
HETATM   23  C   UNL     1      42.573 -16.275   3.285  1.00  0.00     0.040 A 
HETATM   24  C   UNL     1      43.205 -17.509   3.364  1.00  0.00     0.099 A 
HETATM   25  C   UNL     1      44.021 -17.852   4.450  1.00  0.00     0.102 A 
HETATM   26  C   UNL     1      44.189 -16.935   5.489  1.00  0.00     0.052 A 
BRANCH  24  27
HETATM   27  O   UNL     1      43.016 -18.395   2.337  1.00  0.00    -0.358 OA
HETATM   28  H   UNL     1      43.028 -17.853   1.526  1.00  0.00     0.218 HD
ENDBRANCH  24  27
BRANCH  25  29
HETATM   29  O   UNL     1      44.579 -19.103   4.376  1.00  0.00    -0.353 OA
HETATM   30  C   UNL     1      44.078 -20.083   5.278  1.00  0.00     0.210 C 
ENDBRANCH  25  29
ENDBRANCH  20  21
ENDBRANCH   1  19
TORSDOF 5
ENDMDL
MODEL 2
REMARK VINA RESULT:      -8.6      1.430      2.501
REMARK  5 active torsions:
REMARK  status: ('A' for Active; 'I' for Inactive)
REMARK    1  A    between atoms: O_2  and  C_3 
REMARK    2  A    between atoms: C_4  and  O_5 
REMARK    3  A    between atoms: C_8  and  C_9 
REMARK    4  A    between atoms: N_10  and  N_11 
REMARK       I    between atoms: N_11  and  C_12 
REMARK    5  A    between atoms: C_12  and  C_13 
ROOT
HETATM    1  N   UNL     1      43.556 -11.910   7.618  1.00  0.00    -0.242 N 
HETATM    2  C   UNL     1      44.510 -11.049   8.139  1.00  0.00     0.292 C 
HETATM    3  O   UNL     1      45.726 -11.190   8.031  1.00  0.00    -0.264 OA
HETATM    4  H   UNL     1      42.579 -11.673   7.773  1.00  0.00     0.192 HD
ENDROOT
BRANCH   2   5
HETATM    5  C   UNL     1      43.910  -9.909   8.853  1.00  0.00     0.154 A 
HETATM    6  N   UNL     1      43.542  -8.770   8.217  1.00  0.00    -0.168 NA
HETATM    7  N   UNL     1      43.080  -7.973   9.208  1.00  0.00    -0.276 N 
HETATM    8  H   UNL     1      42.743  -7.048   8.965  1.00  0.00     0.189 HD
HETATM    9  C   UNL     1      43.133  -8.548  10.439  1.00  0.00     0.069 A 
HETATM   10  C   UNL     1      43.649  -9.809  10.243  1.00  0.00     0.007 A 
HETATM   11  C   UNL     1      42.749  -8.014  11.735  1.00  0.00    -0.001 A 
HETATM   12  C   UNL     1      43.881 -10.745  11.377  1.00  0.00     0.048 C 
HETATM   13  C   UNL     1      42.941 -10.422  12.562  1.00  0.00     0.044 C 
HETATM   14  C   UNL     1      42.707  -8.936  12.810  1.00  0.00    -0.045 A 
HETATM   15  C   UNL     1      42.358  -8.487  14.090  1.00  0.00     0.008 A 
HETATM   16  C   UNL     1      42.079  -7.138  14.306  1.00  0.00     0.001 A 
HETATM   17  C   UNL     1      42.132  -6.232  13.247  1.00  0.00     0.001 A 
HETATM   18  C   UNL     1      42.463  -6.665  11.962  1.00  0.00     0.014 A 
ENDBRANCH   2   5
BRANCH   1  19
HETATM   19  N   UNL     1      43.932 -12.996   6.888  1.00  0.00    -0.184 NA
HETATM   20  C   UNL     1      43.047 -13.928   6.750  1.00  0.00     0.150 C 
BRANCH  20  21
HETATM   21  C   UNL     1      43.347 -15.145   5.965  1.00  0.00    -0.014 A 
HETATM   22  C   UNL     1      44.013 -16.220   6.566  1.00  0.00     0.016 A 
HETATM   23  C   UNL     1      44.304 -17.360   5.820  1.00  0.00     0.040 A 
HETATM   24  C   UNL     1      43.919 -17.412   4.487  1.00  0.00     0.099 A 
HETATM   25  C   UNL     1      43.241 -16.350   3.873  1.00  0.00     0.102 A 
HETATM   26  C   UNL     1      42.960 -15.204   4.618  1.00  0.00     0.052 A 
BRANCH  24  27
HETATM   27  O   UNL     1      44.216 -18.543   3.775  1.00  0.00    -0.358 OA
HETATM   28  H   UNL     1      45.146 -18.434   3.499  1.00  0.00     0.218 HD
ENDBRANCH  24  27
BRANCH  25  29
HETATM   29  O   UNL     1      42.924 -16.558   2.555  1.00  0.00    -0.353 OA
HETATM   30  C   UNL     1      43.411 -15.602   1.621  1.00  0.00     0.210 C 
ENDBRANCH  25  29
ENDBRANCH  20  21
ENDBRANCH   1  19
TORSDOF 5
ENDMDL
MODEL 3
REMARK VINA RESULT:      -8.5      3.221     10.437
REMARK  5 active torsions:
REMARK  status: ('A' for Active; 'I' for Inactive)
REMARK    1  A    between atoms: O_2  and  C_3 
REMARK    2  A    between atoms: C_4  and  O_5 
REMARK    3  A    between atoms: C_8  and  C_9 
REMARK    4  A    between atoms: N_10  and  N_11 
REMARK       I    between atoms: N_11  and  C_12 
REMARK    5  A    between atoms: C_12  and  C_13 
ROOT
HETATM    1  N   UNL     1      43.567 -12.957   4.737  1.00  0.00    -0.242 N 
HETATM    2  C   UNL     1      42.590 -13.374   3.846  1.00  0.00     0.292 C 
HETATM    3  O   UNL     1      41.576 -12.741   3.559  1.00  0.00    -0.264 OA
HETATM    4  H   UNL     1      44.363 -13.574   4.880  1.00  0.00     0.192 HD
ENDROOT
BRANCH   2   5
HETATM    5  C   UNL     1      42.893 -14.687   3.251  1.00  0.00     0.154 A 
HETATM    6  N   UNL     1      42.969 -14.874   1.911  1.00  0.00    -0.168 NA
HETATM    7  N   UNL     1      43.224 -16.195   1.775  1.00  0.00    -0.276 N 
HETATM    8  H   UNL     1      43.322 -16.574   0.840  1.00  0.00     0.189 HD
HETATM    9  C   UNL     1      43.316 -16.857   2.960  1.00  0.00     0.069 A 
HETATM   10  C   UNL     1      43.125 -15.906   3.937  1.00  0.00     0.007 A 
HETATM   11  C   UNL     1      43.561 -18.264   3.225  1.00  0.00    -0.001 A 
HETATM   12  C   UNL     1      43.133 -16.257   5.383  1.00  0.00     0.048 C 
HETATM   13  C   UNL     1      43.967 -17.534   5.638  1.00  0.00     0.044 C 
HETATM   14  C   UNL     1      43.829 -18.615   4.572  1.00  0.00    -0.045 A 
HETATM   15  C   UNL     1      44.061 -19.956   4.902  1.00  0.00     0.008 A 
HETATM   16  C   UNL     1      44.000 -20.940   3.915  1.00  0.00     0.001 A 
HETATM   17  C   UNL     1      43.725 -20.592   2.592  1.00  0.00     0.001 A 
HETATM   18  C   UNL     1      43.506 -19.257   2.244  1.00  0.00     0.014 A 
ENDBRANCH   2   5
BRANCH   1  19
HETATM   19  N   UNL     1      43.471 -11.744   5.348  1.00  0.00    -0.184 NA
HETATM   20  C   UNL     1      44.007 -11.649   6.521  1.00  0.00     0.150 C 
BRANCH  20  21
HETATM   21  C   UNL     1      43.971 -10.372   7.267  1.00  0.00    -0.014 A 
HETATM   22  C   UNL     1      45.114  -9.921   7.939  1.00  0.00     0.016 A 
HETATM   23  C   UNL     1      45.074  -8.724   8.649  1.00  0.00     0.040 A 
HETATM   24  C   UNL     1      43.895  -7.991   8.671  1.00  0.00     0.099 A 
HETATM   25  C   UNL     1      42.745  -8.421   7.994  1.00  0.00     0.102 A 
HETATM   26  C   UNL     1      42.783  -9.626   7.292  1.00  0.00     0.052 A 
BRANCH  24  27
HETATM   27  O   UNL     1      43.879  -6.817   9.376  1.00  0.00    -0.358 OA
HETATM   28  H   UNL     1      44.644  -6.872   9.980  1.00  0.00     0.218 HD
ENDBRANCH  24  27
BRANCH  25  29
HETATM   29  O   UNL     1      41.666  -7.583   8.106  1.00  0.00    -0.353 OA
HETATM   30  C   UNL     1      40.406  -8.102   7.697  1.00  0.00     0.210 C 
ENDBRANCH  25  29
ENDBRANCH  20  21
ENDBRANCH   1  19
TORSDOF 5
ENDMDL
MODEL 4
REMARK VINA RESULT:      -8.4      3.505     10.435
REMARK  5 active torsions:
REMARK  status: ('A' for Active; 'I' for Inactive)
REMARK    1  A    between atoms: O_2  and  C_3 
REMARK    2  A    between atoms: C_4  and  O_5 
REMARK    3  A    between atoms: C_8  and  C_9 
REMARK    4  A    between atoms: N_10  and  N_11 
REMARK       I    between atoms: N_11  and  C_12 
REMARK    5  A    between atoms: C_12  and  C_13 
ROOT
HETATM    1  N   UNL     1      41.657 -12.985   4.002  1.00  0.00    -0.242 N 
HETATM    2  C   UNL     1      42.883 -13.185   3.385  1.00  0.00     0.292 C 
HETATM    3  O   UNL     1      43.768 -12.340   3.279  1.00  0.00    -0.264 OA
HETATM    4  H   UNL     1      41.014 -13.772   4.030  1.00  0.00     0.192 HD
ENDROOT
BRANCH   2   5
HETATM    5  C   UNL     1      43.032 -14.552   2.858  1.00  0.00     0.154 A 
HETATM    6  N   UNL     1      42.901 -14.837   1.539  1.00  0.00    -0.168 NA
HETATM    7  N   UNL     1      43.068 -16.177   1.473  1.00  0.00    -0.276 N 
HETATM    8  H   UNL     1      43.010 -16.626   0.565  1.00  0.00     0.189 HD
HETATM    9  C   UNL     1      43.301 -16.759   2.680  1.00  0.00     0.069 A 
HETATM   10  C   UNL     1      43.302 -15.732   3.597  1.00  0.00     0.007 A 
HETATM   11  C   UNL     1      43.513 -18.156   3.017  1.00  0.00    -0.001 A 
HETATM   12  C   UNL     1      43.504 -15.980   5.050  1.00  0.00     0.048 C 
HETATM   13  C   UNL     1      44.303 -17.284   5.282  1.00  0.00     0.044 C 
HETATM   14  C   UNL     1      43.959 -18.427   4.335  1.00  0.00    -0.045 A 
HETATM   15  C   UNL     1      44.171 -19.753   4.732  1.00  0.00     0.008 A 
HETATM   16  C   UNL     1      43.918 -20.798   3.843  1.00  0.00     0.001 A 
HETATM   17  C   UNL     1      43.469 -20.528   2.551  1.00  0.00     0.001 A 
HETATM   18  C   UNL     1      43.267 -19.211   2.134  1.00  0.00     0.014 A 
ENDBRANCH   2   5
BRANCH   1  19
HETATM   19  N   UNL     1      41.365 -11.791   4.587  1.00  0.00    -0.184 NA
HETATM   20  C   UNL     1      41.592 -11.704   5.857  1.00  0.00     0.150 C 
BRANCH  20  21
HETATM   21  C   UNL     1      41.323 -10.447   6.589  1.00  0.00    -0.014 A 
HETATM   22  C   UNL     1      40.031 -10.167   7.049  1.00  0.00     0.016 A 
HETATM   23  C   UNL     1      39.778  -8.977   7.728  1.00  0.00     0.040 A 
HETATM   24  C   UNL     1      40.823  -8.088   7.943  1.00  0.00     0.099 A 
HETATM   25  C   UNL     1      42.125  -8.357   7.499  1.00  0.00     0.102 A 
HETATM   26  C   UNL     1      42.374  -9.544   6.809  1.00  0.00     0.052 A 
BRANCH  24  27
HETATM   27  O   UNL     1      40.550  -6.925   8.612  1.00  0.00    -0.358 OA
HETATM   28  H   UNL     1      40.985  -7.023   9.481  1.00  0.00     0.218 HD
ENDBRANCH  24  27
BRANCH  25  29
HETATM   29  O   UNL     1      43.044  -7.384   7.795  1.00  0.00    -0.353 OA
HETATM   30  C   UNL     1      43.930  -7.646   8.877  1.00  0.00     0.210 C 
ENDBRANCH  25  29
ENDBRANCH  20  21
ENDBRANCH   1  19
TORSDOF 5
ENDMDL
MODEL 5
REMARK VINA RESULT:      -8.3      0.838      1.881
REMARK  5 active torsions:
REMARK  status: ('A' for Active; 'I' for Inactive)
REMARK    1  A    between atoms: O_2  and  C_3 
REMARK    2  A    between atoms: C_4  and  O_5 
REMARK    3  A    between atoms: C_8  and  C_9 
REMARK    4  A    between atoms: N_10  and  N_11 
REMARK       I    between atoms: N_11  and  C_12 
REMARK    5  A    between atoms: C_12  and  C_13 
ROOT
HETATM    1  N   UNL     1      43.630 -12.497   7.476  1.00  0.00    -0.242 N 
HETATM    2  C   UNL     1      44.428 -11.364   7.429  1.00  0.00     0.292 C 
HETATM    3  O   UNL     1      45.057 -10.982   6.444  1.00  0.00    -0.264 OA
HETATM    4  H   UNL     1      43.156 -12.697   8.353  1.00  0.00     0.192 HD
ENDROOT
BRANCH   2   5
HETATM    5  C   UNL     1      44.448 -10.634   8.708  1.00  0.00     0.154 A 
HETATM    6  N   UNL     1      45.395 -10.855   9.652  1.00  0.00    -0.168 NA
HETATM    7  N   UNL     1      45.046 -10.033  10.668  1.00  0.00    -0.276 N 
HETATM    8  H   UNL     1      45.622 -10.027  11.502  1.00  0.00     0.189 HD
HETATM    9  C   UNL     1      43.928  -9.300  10.417  1.00  0.00     0.069 A 
HETATM   10  C   UNL     1      43.526  -9.651   9.148  1.00  0.00     0.007 A 
HETATM   11  C   UNL     1      43.241  -8.331  11.254  1.00  0.00    -0.001 A 
HETATM   12  C   UNL     1      42.308  -9.067   8.524  1.00  0.00     0.048 C 
HETATM   13  C   UNL     1      41.988  -7.680   9.127  1.00  0.00     0.044 C 
HETATM   14  C   UNL     1      42.231  -7.560  10.628  1.00  0.00    -0.045 A 
HETATM   15  C   UNL     1      41.518  -6.616  11.378  1.00  0.00     0.008 A 
HETATM   16  C   UNL     1      41.785  -6.459  12.738  1.00  0.00     0.001 A 
HETATM   17  C   UNL     1      42.773  -7.228  13.354  1.00  0.00     0.001 A 
HETATM   18  C   UNL     1      43.503  -8.162  12.616  1.00  0.00     0.014 A 
ENDBRANCH   2   5
BRANCH   1  19
HETATM   19  N   UNL     1      43.460 -13.268   6.367  1.00  0.00    -0.184 NA
HETATM   20  C   UNL     1      43.461 -14.548   6.553  1.00  0.00     0.150 C 
BRANCH  20  21
HETATM   21  C   UNL     1      43.271 -15.477   5.418  1.00  0.00    -0.014 A 
HETATM   22  C   UNL     1      43.915 -16.720   5.415  1.00  0.00     0.016 A 
HETATM   23  C   UNL     1      43.742 -17.588   4.339  1.00  0.00     0.040 A 
HETATM   24  C   UNL     1      42.923 -17.203   3.286  1.00  0.00     0.099 A 
HETATM   25  C   UNL     1      42.261 -15.968   3.279  1.00  0.00     0.102 A 
HETATM   26  C   UNL     1      42.443 -15.094   4.352  1.00  0.00     0.052 A 
BRANCH  24  27
HETATM   27  O   UNL     1      42.769 -18.073   2.240  1.00  0.00    -0.358 OA
HETATM   28  H   UNL     1      43.667 -18.203   1.881  1.00  0.00     0.218 HD
ENDBRANCH  24  27
BRANCH  25  29
HETATM   29  O   UNL     1      41.484 -15.740   2.172  1.00  0.00    -0.353 OA
HETATM   30  C   UNL     1      40.078 -15.666   2.381  1.00  0.00     0.210 C 
ENDBRANCH  25  29
ENDBRANCH  20  21
ENDBRANCH   1  19
TORSDOF 5
ENDMDL
MODEL 6
REMARK VINA RESULT:      -8.1      6.735     10.529
REMARK  5 active torsions:
REMARK  status: ('A' for Active; 'I' for Inactive)
REMARK    1  A    between atoms: O_2  and  C_3 
REMARK    2  A    between atoms: C_4  and  O_5 
REMARK    3  A    between atoms: C_8  and  C_9 
REMARK    4  A    between atoms: N_10  and  N_11 
REMARK       I    between atoms: N_11  and  C_12 
REMARK    5  A    between atoms: C_12  and  C_13 
ROOT
HETATM    1  N   UNL     1      41.779 -13.354   2.108  1.00  0.00    -0.242 N 
HETATM    2  C   UNL     1      42.911 -13.351   2.910  1.00  0.00     0.292 C 
HETATM    3  O   UNL     1      43.731 -12.438   2.973  1.00  0.00    -0.264 OA
HETATM    4  H   UNL     1      41.176 -14.171   2.155  1.00  0.00     0.192 HD
ENDROOT
BRANCH   2   5
HETATM    5  C   UNL     1      43.039 -14.582   3.708  1.00  0.00     0.154 A 
HETATM    6  N   UNL     1      43.009 -14.571   5.063  1.00  0.00    -0.168 NA
HETATM    7  N   UNL     1      43.193 -15.866   5.408  1.00  0.00    -0.276 N 
HETATM    8  H   UNL     1      43.208 -16.105   6.393  1.00  0.00     0.189 HD
HETATM    9  C   UNL     1      43.336 -16.699   4.342  1.00  0.00     0.069 A 
HETATM   10  C   UNL     1      43.223 -15.902   3.225  1.00  0.00     0.007 A 
HETATM   11  C   UNL     1      43.562 -18.134   4.303  1.00  0.00    -0.001 A 
HETATM   12  C   UNL     1      43.349 -16.458   1.851  1.00  0.00     0.048 C 
HETATM   13  C   UNL     1      42.975 -17.959   1.825  1.00  0.00     0.044 C 
HETATM   14  C   UNL     1      43.440 -18.758   3.037  1.00  0.00    -0.045 A 
HETATM   15  C   UNL     1      43.658 -20.137   2.924  1.00  0.00     0.008 A 
HETATM   16  C   UNL     1      44.019 -20.882   4.047  1.00  0.00     0.001 A 
HETATM   17  C   UNL     1      44.149 -20.262   5.289  1.00  0.00     0.001 A 
HETATM   18  C   UNL     1      43.920 -18.891   5.422  1.00  0.00     0.014 A 
ENDBRANCH   2   5
BRANCH   1  19
HETATM   19  N   UNL     1      41.478 -12.275   1.335  1.00  0.00    -0.184 NA
HETATM   20  C   UNL     1      40.993 -12.526   0.163  1.00  0.00     0.150 C 
BRANCH  20  21
HETATM   21  C   UNL     1      40.620 -11.427  -0.753  1.00  0.00    -0.014 A 
HETATM   22  C   UNL     1      39.300 -11.309  -1.206  1.00  0.00     0.016 A 
HETATM   23  C   UNL     1      38.954 -10.278  -2.076  1.00  0.00     0.040 A 
HETATM   24  C   UNL     1      39.931  -9.377  -2.476  1.00  0.00     0.099 A 
HETATM   25  C   UNL     1      41.254  -9.472  -2.024  1.00  0.00     0.102 A 
HETATM   26  C   UNL     1      41.602 -10.511  -1.160  1.00  0.00     0.052 A 
BRANCH  24  27
HETATM   27  O   UNL     1      39.567  -8.372  -3.333  1.00  0.00    -0.358 OA
HETATM   28  H   UNL     1      39.456  -7.583  -2.769  1.00  0.00     0.218 HD
ENDBRANCH  24  27
BRANCH  25  29
HETATM   29  O   UNL     1      42.096  -8.502  -2.504  1.00  0.00    -0.353 OA
HETATM   30  C   UNL     1      42.960  -7.879  -1.561  1.00  0.00     0.210 C 
ENDBRANCH  25  29
ENDBRANCH  20  21
ENDBRANCH   1  19
TORSDOF 5
ENDMDL
MODEL 7
REMARK VINA RESULT:      -8.0      7.155     10.672
REMARK  5 active torsions:
REMARK  status: ('A' for Active; 'I' for Inactive)
REMARK    1  A    between atoms: O_2  and  C_3 
REMARK    2  A    between atoms: C_4  and  O_5 
REMARK    3  A    between atoms: C_8  and  C_9 
REMARK    4  A    between atoms: N_10  and  N_11 
REMARK       I    between atoms: N_11  and  C_12 
REMARK    5  A    between atoms: C_12  and  C_13 
ROOT
HETATM    1  N   UNL     1      41.438 -14.280   1.364  1.00  0.00    -0.242 N 
HETATM    2  C   UNL     1      42.297 -13.901   2.384  1.00  0.00     0.292 C 
HETATM    3  O   UNL     1      42.869 -12.816   2.461  1.00  0.00    -0.264 OA
HETATM    4  H   UNL     1      41.023 -15.207   1.423  1.00  0.00     0.192 HD
ENDROOT
BRANCH   2   5
HETATM    5  C   UNL     1      42.462 -14.953   3.402  1.00  0.00     0.154 A 
HETATM    6  N   UNL     1      42.225 -14.729   4.717  1.00  0.00    -0.168 NA
HETATM    7  N   UNL     1      42.522 -15.908   5.311  1.00  0.00    -0.276 N 
HETATM    8  H   UNL     1      42.419 -15.981   6.317  1.00  0.00     0.189 HD
HETATM    9  C   UNL     1      42.932 -16.869   4.440  1.00  0.00     0.069 A 
HETATM   10  C   UNL     1      42.887 -16.289   3.193  1.00  0.00     0.007 A 
HETATM   11  C   UNL     1      43.347 -18.239   4.691  1.00  0.00    -0.001 A 
HETATM   12  C   UNL     1      43.292 -17.033   1.969  1.00  0.00     0.048 C 
HETATM   13  C   UNL     1      43.125 -18.557   2.168  1.00  0.00     0.044 C 
HETATM   14  C   UNL     1      43.501 -19.070   3.554  1.00  0.00    -0.045 A 
HETATM   15  C   UNL     1      43.911 -20.399   3.720  1.00  0.00     0.008 A 
HETATM   16  C   UNL     1      44.192 -20.889   4.996  1.00  0.00     0.001 A 
HETATM   17  C   UNL     1      44.050 -20.064   6.112  1.00  0.00     0.001 A 
HETATM   18  C   UNL     1      43.627 -18.742   5.965  1.00  0.00     0.014 A 
ENDBRANCH   2   5
BRANCH   1  19
HETATM   19  N   UNL     1      41.134 -13.413   0.359  1.00  0.00    -0.184 NA
HETATM   20  C   UNL     1      39.916 -13.440  -0.073  1.00  0.00     0.150 C 
BRANCH  20  21
HETATM   21  C   UNL     1      39.477 -12.530  -1.153  1.00  0.00    -0.014 A 
HETATM   22  C   UNL     1      40.403 -12.058  -2.092  1.00  0.00     0.016 A 
HETATM   23  C   UNL     1      39.989 -11.193  -3.101  1.00  0.00     0.040 A 
HETATM   24  C   UNL     1      38.653 -10.817  -3.162  1.00  0.00     0.099 A 
HETATM   25  C   UNL     1      37.711 -11.289  -2.238  1.00  0.00     0.102 A 
HETATM   26  C   UNL     1      38.129 -12.147  -1.221  1.00  0.00     0.052 A 
BRANCH  24  27
HETATM   27  O   UNL     1      38.270  -9.965  -4.163  1.00  0.00    -0.358 OA
HETATM   28  H   UNL     1      39.102  -9.604  -4.524  1.00  0.00     0.218 HD
ENDBRANCH  24  27
BRANCH  25  29
HETATM   29  O   UNL     1      36.433 -10.831  -2.438  1.00  0.00    -0.353 OA
HETATM   30  C   UNL     1      35.950  -9.860  -1.518  1.00  0.00     0.210 C 
ENDBRANCH  25  29
ENDBRANCH  20  21
ENDBRANCH   1  19
TORSDOF 5
ENDMDL
MODEL 8
REMARK VINA RESULT:      -8.0      3.014     10.546
REMARK  5 active torsions:
REMARK  status: ('A' for Active; 'I' for Inactive)
REMARK    1  A    between atoms: O_2  and  C_3 
REMARK    2  A    between atoms: C_4  and  O_5 
REMARK    3  A    between atoms: C_8  and  C_9 
REMARK    4  A    between atoms: N_10  and  N_11 
REMARK       I    between atoms: N_11  and  C_12 
REMARK    5  A    between atoms: C_12  and  C_13 
ROOT
HETATM    1  N   UNL     1      43.074 -10.396   8.138  1.00  0.00    -0.242 N 
HETATM    2  C   UNL     1      44.067 -11.203   7.605  1.00  0.00     0.292 C 
HETATM    3  O   UNL     1      45.163 -11.411   8.122  1.00  0.00    -0.264 OA
HETATM    4  H   UNL     1      42.207 -10.314   7.613  1.00  0.00     0.192 HD
ENDROOT
BRANCH   2   5
HETATM    5  C   UNL     1      43.671 -11.813   6.324  1.00  0.00     0.154 A 
HETATM    6  N   UNL     1      43.410 -11.072   5.221  1.00  0.00    -0.168 NA
HETATM    7  N   UNL     1      43.052 -11.983   4.288  1.00  0.00    -0.276 N 
HETATM    8  H   UNL     1      42.806 -11.653   3.361  1.00  0.00     0.189 HD
HETATM    9  C   UNL     1      43.075 -13.265   4.741  1.00  0.00     0.069 A 
HETATM   10  C   UNL     1      43.490 -13.192   6.052  1.00  0.00     0.007 A 
HETATM   11  C   UNL     1      42.747 -14.503   4.054  1.00  0.00    -0.001 A 
HETATM   12  C   UNL     1      43.617 -14.408   6.901  1.00  0.00     0.048 C 
HETATM   13  C   UNL     1      43.866 -15.664   6.034  1.00  0.00     0.044 C 
HETATM   14  C   UNL     1      43.088 -15.705   4.723  1.00  0.00    -0.045 A 
HETATM   15  C   UNL     1      42.789 -16.936   4.125  1.00  0.00     0.008 A 
HETATM   16  C   UNL     1      42.136 -16.974   2.893  1.00  0.00     0.001 A 
HETATM   17  C   UNL     1      41.792 -15.789   2.244  1.00  0.00     0.001 A 
HETATM   18  C   UNL     1      42.097 -14.553   2.818  1.00  0.00     0.014 A 
ENDBRANCH   2   5
BRANCH   1  19
HETATM   19  N   UNL     1      43.251  -9.786   9.343  1.00  0.00    -0.184 NA
HETATM   20  C   UNL     1      42.446  -8.812   9.617  1.00  0.00     0.150 C 
BRANCH  20  21
HETATM   21  C   UNL     1      42.544  -8.091  10.904  1.00  0.00    -0.014 A 
HETATM   22  C   UNL     1      43.127  -8.714  12.014  1.00  0.00     0.016 A 
HETATM   23  C   UNL     1      43.208  -8.035  13.228  1.00  0.00     0.040 A 
HETATM   24  C   UNL     1      42.711  -6.742  13.313  1.00  0.00     0.099 A 
HETATM   25  C   UNL     1      42.135  -6.099  12.209  1.00  0.00     0.102 A 
HETATM   26  C   UNL     1      42.045  -6.783  10.996  1.00  0.00     0.052 A 
BRANCH  24  27
HETATM   27  O   UNL     1      42.802  -6.095  14.516  1.00  0.00    -0.358 OA
HETATM   28  H   UNL     1      43.722  -5.774  14.565  1.00  0.00     0.218 HD
ENDBRANCH  24  27
BRANCH  25  29
HETATM   29  O   UNL     1      41.699  -4.821  12.452  1.00  0.00    -0.353 OA
HETATM   30  C   UNL     1      42.442  -3.766  11.855  1.00  0.00     0.210 C 
ENDBRANCH  25  29
ENDBRANCH  20  21
ENDBRANCH   1  19
TORSDOF 5
ENDMDL
MODEL 9
REMARK VINA RESULT:      -8.0      7.231      9.571
REMARK  5 active torsions:
REMARK  status: ('A' for Active; 'I' for Inactive)
REMARK    1  A    between atoms: O_2  and  C_3 
REMARK    2  A    between atoms: C_4  and  O_5 
REMARK    3  A    between atoms: C_8  and  C_9 
REMARK    4  A    between atoms: N_10  and  N_11 
REMARK       I    between atoms: N_11  and  C_12 
REMARK    5  A    between atoms: C_12  and  C_13 
ROOT
HETATM    1  N   UNL     1      41.816 -14.967   0.875  1.00  0.00    -0.242 N 
HETATM    2  C   UNL     1      40.620 -14.264   0.864  1.00  0.00     0.292 C 
HETATM    3  O   UNL     1      39.730 -14.370   1.704  1.00  0.00    -0.264 OA
HETATM    4  H   UNL     1      42.474 -14.781   0.122  1.00  0.00     0.192 HD
ENDROOT
BRANCH   2   5
HETATM    5  C   UNL     1      40.517 -13.345  -0.283  1.00  0.00     0.154 A 
HETATM    6  N   UNL     1      39.996 -13.731  -1.473  1.00  0.00    -0.168 NA
HETATM    7  N   UNL     1      40.113 -12.633  -2.255  1.00  0.00    -0.276 N 
HETATM    8  H   UNL     1      39.783 -12.686  -3.212  1.00  0.00     0.189 HD
HETATM    9  C   UNL     1      40.678 -11.570  -1.622  1.00  0.00     0.069 A 
HETATM   10  C   UNL     1      40.935 -11.992  -0.337  1.00  0.00     0.007 A 
HETATM   11  C   UNL     1      40.981 -10.240  -2.122  1.00  0.00    -0.001 A 
HETATM   12  C   UNL     1      41.581 -11.101   0.665  1.00  0.00     0.048 C 
HETATM   13  C   UNL     1      41.325  -9.613   0.329  1.00  0.00     0.044 C 
HETATM   14  C   UNL     1      41.360  -9.274  -1.157  1.00  0.00    -0.045 A 
HETATM   15  C   UNL     1      41.680  -7.974  -1.570  1.00  0.00     0.008 A 
HETATM   16  C   UNL     1      41.649  -7.644  -2.925  1.00  0.00     0.001 A 
HETATM   17  C   UNL     1      41.285  -8.601  -3.873  1.00  0.00     0.001 A 
HETATM   18  C   UNL     1      40.949  -9.897  -3.476  1.00  0.00     0.014 A 
ENDBRANCH   2   5
BRANCH   1  19
HETATM   19  N   UNL     1      42.100 -15.830   1.888  1.00  0.00    -0.184 NA
HETATM   20  C   UNL     1      42.904 -16.802   1.605  1.00  0.00     0.150 C 
BRANCH  20  21
HETATM   21  C   UNL     1      43.289 -17.789   2.637  1.00  0.00    -0.014 A 
HETATM   22  C   UNL     1      43.520 -19.123   2.280  1.00  0.00     0.016 A 
HETATM   23  C   UNL     1      43.872 -20.052   3.256  1.00  0.00     0.040 A 
HETATM   24  C   UNL     1      43.996 -19.632   4.574  1.00  0.00     0.099 A 
HETATM   25  C   UNL     1      43.781 -18.299   4.948  1.00  0.00     0.102 A 
HETATM   26  C   UNL     1      43.417 -17.371   3.970  1.00  0.00     0.052 A 
BRANCH  24  27
HETATM   27  O   UNL     1      44.343 -20.564   5.516  1.00  0.00    -0.358 OA
HETATM   28  H   UNL     1      45.316 -20.626   5.467  1.00  0.00     0.218 HD
ENDBRANCH  24  27
BRANCH  25  29
HETATM   29  O   UNL     1      43.949 -18.043   6.285  1.00  0.00    -0.353 OA
HETATM   30  C   UNL     1      43.211 -16.954   6.826  1.00  0.00     0.210 C 
ENDBRANCH  25  29
ENDBRANCH  20  21
ENDBRANCH   1  19
TORSDOF 5
ENDMDL
MODEL 10
REMARK VINA RESULT:      -7.9      1.991      2.579
REMARK  5 active torsions:
REMARK  status: ('A' for Active; 'I' for Inactive)
REMARK    1  A    between atoms: O_2  and  C_3 
REMARK    2  A    between atoms: C_4  and  O_5 
REMARK    3  A    between atoms: C_8  and  C_9 
REMARK    4  A    between atoms: N_10  and  N_11 
REMARK       I    between atoms: N_11  and  C_12 
REMARK    5  A    between atoms: C_12  and  C_13 
ROOT
HETATM    1  N   UNL     1      42.386 -11.521   7.064  1.00  0.00    -0.242 N 
HETATM    2  C   UNL     1      43.633 -10.955   7.285  1.00  0.00     0.292 C 
HETATM    3  O   UNL     1      44.536 -10.887   6.454  1.00  0.00    -0.264 OA
HETATM    4  H   UNL     1      41.724 -11.505   7.836  1.00  0.00     0.192 HD
ENDROOT
BRANCH   2   5
HETATM    5  C   UNL     1      43.776 -10.419   8.650  1.00  0.00     0.154 A 
HETATM    6  N   UNL     1      44.479 -11.066   9.610  1.00  0.00    -0.168 NA
HETATM    7  N   UNL     1      44.340 -10.284  10.705  1.00  0.00    -0.276 N 
HETATM    8  H   UNL     1      44.790 -10.574  11.566  1.00  0.00     0.189 HD
HETATM    9  C   UNL     1      43.586  -9.173  10.488  1.00  0.00     0.069 A 
HETATM   10  C   UNL     1      43.220  -9.220   9.162  1.00  0.00     0.007 A 
HETATM   11  C   UNL     1      43.202  -8.113  11.406  1.00  0.00    -0.001 A 
HETATM   12  C   UNL     1      42.359  -8.172   8.550  1.00  0.00     0.048 C 
HETATM   13  C   UNL     1      42.489  -6.834   9.314  1.00  0.00     0.044 C 
HETATM   14  C   UNL     1      42.601  -6.966  10.829  1.00  0.00    -0.045 A 
HETATM   15  C   UNL     1      42.193  -5.912  11.655  1.00  0.00     0.008 A 
HETATM   16  C   UNL     1      42.355  -6.004  13.038  1.00  0.00     0.001 A 
HETATM   17  C   UNL     1      42.937  -7.139  13.602  1.00  0.00     0.001 A 
HETATM   18  C   UNL     1      43.363  -8.193  12.791  1.00  0.00     0.014 A 
ENDBRANCH   2   5
BRANCH   1  19
HETATM   19  N   UNL     1      42.064 -12.026   5.842  1.00  0.00    -0.184 NA
HETATM   20  C   UNL     1      41.271 -13.047   5.835  1.00  0.00     0.150 C 
BRANCH  20  21
HETATM   21  C   UNL     1      40.847 -13.665   4.560  1.00  0.00    -0.014 A 
HETATM   22  C   UNL     1      39.914 -13.016   3.742  1.00  0.00     0.016 A 
HETATM   23  C   UNL     1      39.508 -13.606   2.547  1.00  0.00     0.040 A 
HETATM   24  C   UNL     1      40.047 -14.833   2.184  1.00  0.00     0.099 A 
HETATM   25  C   UNL     1      40.991 -15.492   2.984  1.00  0.00     0.102 A 
HETATM   26  C   UNL     1      41.388 -14.905   4.186  1.00  0.00     0.052 A 
BRANCH  24  27
HETATM   27  O   UNL     1      39.633 -15.394   1.005  1.00  0.00    -0.358 OA
HETATM   28  H   UNL     1      38.687 -15.166   0.933  1.00  0.00     0.218 HD
ENDBRANCH  24  27
BRANCH  25  29
HETATM   29  O   UNL     1      41.431 -16.690   2.483  1.00  0.00    -0.353 OA
HETATM   30  C   UNL     1      42.832 -16.930   2.537  1.00  0.00     0.210 C 
ENDBRANCH  25  29
ENDBRANCH  20  21
ENDBRANCH   1  19
TORSDOF 5
ENDMDL
