MODEL 1
REMARK VINA RESULT:      -9.0      0.000      0.000
REMARK  6 active torsions:
REMARK  status: ('A' for Active; 'I' for Inactive)
REMARK    1  A    between atoms: C_2  and  N_3 
REMARK    2  A    between atoms: C_2  and  C_16 
REMARK    3  A    between atoms: N_3  and  C_5 
REMARK    4  A    between atoms: C_5  and  C_6 
REMARK       I    between atoms: C_16  and  N_17 
REMARK    5  A    between atoms: N_17  and  C_18 
REMARK    6  A    between atoms: C_19  and  C_20 
ROOT
HETATM    1  C   UNL     1      43.052 -16.644   5.864  1.00  0.00     0.253 C 
HETATM    2  N   UNL     1      43.959 -17.146   4.961  1.00  0.00    -0.325 N 
HETATM    3  O   UNL     1      41.863 -16.956   5.947  1.00  0.00    -0.271 OA
HETATM    4  H   UNL     1      44.754 -16.575   4.694  1.00  0.00     0.169 HD
ENDROOT
BRANCH   1   5
HETATM    5  C   UNL     1      43.549 -15.493   6.763  1.00  0.00     0.275 C 
HETATM    6  C   UNL     1      43.116 -15.579   8.218  1.00  0.00     0.050 C 
BRANCH   5   7
HETATM    7  N   UNL     1      43.158 -14.136   6.113  1.00  0.00    -0.059 N 
HETATM    8  H   UNL     1      43.444 -14.282   5.128  1.00  0.00     0.280 HD
HETATM    9  C   UNL     1      43.984 -12.999   6.634  1.00  0.00     0.271 C 
BRANCH   7  10
HETATM   10  C   UNL     1      41.691 -13.769   6.027  1.00  0.00     0.274 C 
BRANCH  10  11
HETATM   11  C   UNL     1      41.262 -12.971   4.824  1.00  0.00    -0.030 A 
HETATM   12  C   UNL     1      42.199 -12.260   4.056  1.00  0.00     0.048 A 
HETATM   13  C   UNL     1      41.748 -11.536   2.970  1.00  0.00     0.105 A 
HETATM   14  C   UNL     1      40.416 -11.468   2.647  1.00  0.00     0.105 A 
HETATM   15  O   UNL     1      42.527 -10.825   2.115  1.00  0.00    -0.323 OA
HETATM   16  O   UNL     1      40.187 -10.704   1.548  1.00  0.00    -0.323 OA
HETATM   17  C   UNL     1      39.460 -12.116   3.394  1.00  0.00     0.040 A 
HETATM   18  C   UNL     1      41.532 -10.301   1.207  1.00  0.00     0.352 A 
HETATM   19  C   UNL     1      39.889 -12.870   4.493  1.00  0.00     0.012 A 
ENDBRANCH  10  11
ENDBRANCH   7  10
ENDBRANCH   5   7
ENDBRANCH   1   5
BRANCH   2  20
HETATM   20  C   UNL     1      43.798 -18.333   4.199  1.00  0.00     0.045 A 
HETATM   21  C   UNL     1      43.231 -18.247   2.904  1.00  0.00     0.001 A 
HETATM   22  C   UNL     1      43.161 -19.412   2.119  1.00  0.00     0.014 A 
HETATM   23  C   UNL     1      43.629 -20.634   2.599  1.00  0.00     0.001 A 
HETATM   24  C   UNL     1      44.171 -20.713   3.877  1.00  0.00     0.002 A 
HETATM   25  C   UNL     1      44.256 -19.571   4.674  1.00  0.00     0.030 A 
BRANCH  21  26
HETATM   26  C   UNL     1      42.650 -17.002   2.377  1.00  0.00    -0.024 A 
HETATM   27  C   UNL     1      41.269 -16.766   2.431  1.00  0.00     0.012 A 
HETATM   28  C   UNL     1      40.731 -15.575   1.936  1.00  0.00     0.001 A 
HETATM   29  C   UNL     1      41.567 -14.606   1.382  1.00  0.00     0.000 A 
HETATM   30  C   UNL     1      42.942 -14.824   1.325  1.00  0.00     0.001 A 
HETATM   31  C   UNL     1      43.479 -16.012   1.820  1.00  0.00     0.012 A 
ENDBRANCH  21  26
ENDBRANCH   2  20
TORSDOF 6
ENDMDL
MODEL 2
REMARK VINA RESULT:      -8.6      2.969      4.245
REMARK  6 active torsions:
REMARK  status: ('A' for Active; 'I' for Inactive)
REMARK    1  A    between atoms: C_2  and  N_3 
REMARK    2  A    between atoms: C_2  and  C_16 
REMARK    3  A    between atoms: N_3  and  C_5 
REMARK    4  A    between atoms: C_5  and  C_6 
REMARK       I    between atoms: C_16  and  N_17 
REMARK    5  A    between atoms: N_17  and  C_18 
REMARK    6  A    between atoms: C_19  and  C_20 
ROOT
HETATM    1  C   UNL     1      43.218 -15.518   6.075  1.00  0.00     0.253 C 
HETATM    2  N   UNL     1      42.465 -16.374   5.307  1.00  0.00    -0.325 N 
HETATM    3  O   UNL     1      44.389 -15.691   6.416  1.00  0.00    -0.271 OA
HETATM    4  H   UNL     1      41.456 -16.372   5.413  1.00  0.00     0.169 HD
ENDROOT
BRANCH   1   5
HETATM    5  C   UNL     1      42.479 -14.300   6.665  1.00  0.00     0.275 C 
HETATM    6  C   UNL     1      40.980 -14.269   6.407  1.00  0.00     0.050 C 
BRANCH   5   7
HETATM    7  N   UNL     1      43.183 -12.999   6.189  1.00  0.00    -0.059 N 
HETATM    8  H   UNL     1      42.548 -12.267   6.556  1.00  0.00     0.280 HD
HETATM    9  C   UNL     1      43.174 -12.861   4.697  1.00  0.00     0.271 C 
BRANCH   7  10
HETATM   10  C   UNL     1      44.535 -12.650   6.774  1.00  0.00     0.274 C 
BRANCH  10  11
HETATM   11  C   UNL     1      44.696 -11.259   7.328  1.00  0.00    -0.030 A 
HETATM   12  C   UNL     1      43.575 -10.465   7.626  1.00  0.00     0.048 A 
HETATM   13  C   UNL     1      43.782  -9.193   8.121  1.00  0.00     0.105 A 
HETATM   14  C   UNL     1      45.042  -8.678   8.294  1.00  0.00     0.105 A 
HETATM   15  O   UNL     1      42.808  -8.318   8.485  1.00  0.00    -0.323 OA
HETATM   16  O   UNL     1      45.022  -7.413   8.787  1.00  0.00    -0.323 OA
HETATM   17  C   UNL     1      46.166  -9.405   7.978  1.00  0.00     0.040 A 
HETATM   18  C   UNL     1      43.601  -7.189   8.915  1.00  0.00     0.352 A 
HETATM   19  C   UNL     1      45.989 -10.704   7.488  1.00  0.00     0.012 A 
ENDBRANCH  10  11
ENDBRANCH   7  10
ENDBRANCH   5   7
ENDBRANCH   1   5
BRANCH   2  20
HETATM   20  C   UNL     1      42.974 -17.421   4.493  1.00  0.00     0.045 A 
HETATM   21  C   UNL     1      42.848 -17.319   3.086  1.00  0.00     0.001 A 
HETATM   22  C   UNL     1      43.435 -18.313   2.282  1.00  0.00     0.014 A 
HETATM   23  C   UNL     1      44.124 -19.385   2.849  1.00  0.00     0.001 A 
HETATM   24  C   UNL     1      44.231 -19.484   4.231  1.00  0.00     0.002 A 
HETATM   25  C   UNL     1      43.660 -18.509   5.050  1.00  0.00     0.030 A 
BRANCH  21  26
HETATM   26  C   UNL     1      42.066 -16.254   2.437  1.00  0.00    -0.024 A 
HETATM   27  C   UNL     1      40.667 -16.322   2.363  1.00  0.00     0.012 A 
HETATM   28  C   UNL     1      39.937 -15.299   1.753  1.00  0.00     0.001 A 
HETATM   29  C   UNL     1      40.595 -14.197   1.210  1.00  0.00     0.000 A 
HETATM   30  C   UNL     1      41.984 -14.112   1.279  1.00  0.00     0.001 A 
HETATM   31  C   UNL     1      42.713 -15.133   1.889  1.00  0.00     0.012 A 
ENDBRANCH  21  26
ENDBRANCH   2  20
TORSDOF 6
ENDMDL
MODEL 3
REMARK VINA RESULT:      -8.5      2.219      4.499
REMARK  6 active torsions:
REMARK  status: ('A' for Active; 'I' for Inactive)
REMARK    1  A    between atoms: C_2  and  N_3 
REMARK    2  A    between atoms: C_2  and  C_16 
REMARK    3  A    between atoms: N_3  and  C_5 
REMARK    4  A    between atoms: C_5  and  C_6 
REMARK       I    between atoms: C_16  and  N_17 
REMARK    5  A    between atoms: N_17  and  C_18 
REMARK    6  A    between atoms: C_19  and  C_20 
ROOT
HETATM    1  C   UNL     1      42.073 -15.508   1.984  1.00  0.00     0.253 C 
HETATM    2  N   UNL     1      41.791 -16.590   2.783  1.00  0.00    -0.325 N 
HETATM    3  O   UNL     1      43.194 -15.150   1.616  1.00  0.00    -0.271 OA
HETATM    4  H   UNL     1      40.950 -16.576   3.351  1.00  0.00     0.169 HD
ENDROOT
BRANCH   1   5
HETATM    5  C   UNL     1      40.884 -14.591   1.630  1.00  0.00     0.275 C 
HETATM    6  C   UNL     1      40.924 -13.993   0.233  1.00  0.00     0.050 C 
BRANCH   5   7
HETATM    7  N   UNL     1      40.736 -13.503   2.731  1.00  0.00    -0.059 N 
HETATM    8  H   UNL     1      41.058 -14.010   3.575  1.00  0.00     0.280 HD
HETATM    9  C   UNL     1      39.305 -13.133   2.974  1.00  0.00     0.271 C 
BRANCH   7  10
HETATM   10  C   UNL     1      41.627 -12.281   2.666  1.00  0.00     0.274 C 
BRANCH  10  11
HETATM   11  C   UNL     1      42.314 -11.874   3.943  1.00  0.00    -0.030 A 
HETATM   12  C   UNL     1      43.715 -11.778   4.012  1.00  0.00     0.048 A 
HETATM   13  C   UNL     1      44.291 -11.413   5.212  1.00  0.00     0.105 A 
HETATM   14  C   UNL     1      43.540 -11.177   6.335  1.00  0.00     0.105 A 
HETATM   15  O   UNL     1      45.621 -11.246   5.432  1.00  0.00    -0.323 OA
HETATM   16  O   UNL     1      44.301 -10.833   7.406  1.00  0.00    -0.323 OA
HETATM   17  C   UNL     1      42.170 -11.297   6.324  1.00  0.00     0.040 A 
HETATM   18  C   UNL     1      45.624 -10.871   6.828  1.00  0.00     0.352 A 
HETATM   19  C   UNL     1      41.555 -11.652   5.118  1.00  0.00     0.012 A 
ENDBRANCH  10  11
ENDBRANCH   7  10
ENDBRANCH   5   7
ENDBRANCH   1   5
BRANCH   2  20
HETATM   20  C   UNL     1      42.668 -17.675   3.048  1.00  0.00     0.045 A 
HETATM   21  C   UNL     1      43.241 -17.795   4.337  1.00  0.00     0.001 A 
HETATM   22  C   UNL     1      44.034 -18.921   4.622  1.00  0.00     0.014 A 
HETATM   23  C   UNL     1      44.266 -19.902   3.658  1.00  0.00     0.001 A 
HETATM   24  C   UNL     1      43.712 -19.769   2.390  1.00  0.00     0.002 A 
HETATM   25  C   UNL     1      42.917 -18.663   2.084  1.00  0.00     0.030 A 
BRANCH  21  26
HETATM   26  C   UNL     1      43.096 -16.754   5.367  1.00  0.00    -0.024 A 
HETATM   27  C   UNL     1      44.076 -15.766   5.545  1.00  0.00     0.012 A 
HETATM   28  C   UNL     1      43.921 -14.777   6.520  1.00  0.00     0.001 A 
HETATM   29  C   UNL     1      42.785 -14.763   7.328  1.00  0.00     0.000 A 
HETATM   30  C   UNL     1      41.800 -15.734   7.161  1.00  0.00     0.001 A 
HETATM   31  C   UNL     1      41.954 -16.721   6.187  1.00  0.00     0.012 A 
ENDBRANCH  21  26
ENDBRANCH   2  20
TORSDOF 6
ENDMDL
MODEL 4
REMARK VINA RESULT:      -8.1      2.490      4.495
REMARK  6 active torsions:
REMARK  status: ('A' for Active; 'I' for Inactive)
REMARK    1  A    between atoms: C_2  and  N_3 
REMARK    2  A    between atoms: C_2  and  C_16 
REMARK    3  A    between atoms: N_3  and  C_5 
REMARK    4  A    between atoms: C_5  and  C_6 
REMARK       I    between atoms: C_16  and  N_17 
REMARK    5  A    between atoms: N_17  and  C_18 
REMARK    6  A    between atoms: C_19  and  C_20 
ROOT
HETATM    1  C   UNL     1      41.887 -15.861   1.811  1.00  0.00     0.253 C 
HETATM    2  N   UNL     1      41.744 -16.805   2.800  1.00  0.00    -0.325 N 
HETATM    3  O   UNL     1      42.931 -15.590   1.213  1.00  0.00    -0.271 OA
HETATM    4  H   UNL     1      41.011 -16.685   3.491  1.00  0.00     0.169 HD
ENDROOT
BRANCH   1   5
HETATM    5  C   UNL     1      40.656 -14.977   1.526  1.00  0.00     0.275 C 
HETATM    6  C   UNL     1      40.445 -14.619   0.063  1.00  0.00     0.050 C 
BRANCH   5   7
HETATM    7  N   UNL     1      40.711 -13.719   2.437  1.00  0.00    -0.059 N 
HETATM    8  H   UNL     1      39.740 -13.674   2.796  1.00  0.00     0.280 HD
HETATM    9  C   UNL     1      40.935 -12.461   1.653  1.00  0.00     0.271 C 
BRANCH   7  10
HETATM   10  C   UNL     1      41.570 -13.762   3.683  1.00  0.00     0.274 C 
BRANCH  10  11
HETATM   11  C   UNL     1      41.322 -12.693   4.714  1.00  0.00    -0.030 A 
HETATM   12  C   UNL     1      40.079 -12.586   5.360  1.00  0.00     0.048 A 
HETATM   13  C   UNL     1      39.904 -11.579   6.289  1.00  0.00     0.105 A 
HETATM   14  C   UNL     1      40.893 -10.671   6.568  1.00  0.00     0.105 A 
HETATM   15  O   UNL     1      38.778 -11.363   7.018  1.00  0.00    -0.323 OA
HETATM   16  O   UNL     1      40.516  -9.765   7.507  1.00  0.00    -0.323 OA
HETATM   17  C   UNL     1      42.112 -10.715   5.932  1.00  0.00     0.040 A 
HETATM   18  C   UNL     1      39.173 -10.211   7.797  1.00  0.00     0.352 A 
HETATM   19  C   UNL     1      42.324 -11.733   4.996  1.00  0.00     0.012 A 
ENDBRANCH  10  11
ENDBRANCH   7  10
ENDBRANCH   5   7
ENDBRANCH   1   5
BRANCH   2  20
HETATM   20  C   UNL     1      42.653 -17.859   3.076  1.00  0.00     0.045 A 
HETATM   21  C   UNL     1      43.258 -17.927   4.355  1.00  0.00     0.001 A 
HETATM   22  C   UNL     1      44.085 -19.025   4.654  1.00  0.00     0.014 A 
HETATM   23  C   UNL     1      44.319 -20.028   3.715  1.00  0.00     0.001 A 
HETATM   24  C   UNL     1      43.733 -19.947   2.457  1.00  0.00     0.002 A 
HETATM   25  C   UNL     1      42.905 -18.870   2.137  1.00  0.00     0.030 A 
BRANCH  21  26
HETATM   26  C   UNL     1      43.111 -16.858   5.357  1.00  0.00    -0.024 A 
HETATM   27  C   UNL     1      44.111 -15.893   5.540  1.00  0.00     0.012 A 
HETATM   28  C   UNL     1      43.954 -14.878   6.488  1.00  0.00     0.001 A 
HETATM   29  C   UNL     1      42.796 -14.815   7.262  1.00  0.00     0.000 A 
HETATM   30  C   UNL     1      41.791 -15.765   7.089  1.00  0.00     0.001 A 
HETATM   31  C   UNL     1      41.948 -16.778   6.142  1.00  0.00     0.012 A 
ENDBRANCH  21  26
ENDBRANCH   2  20
TORSDOF 6
ENDMDL
MODEL 5
REMARK VINA RESULT:      -8.1      3.037      4.407
REMARK  6 active torsions:
REMARK  status: ('A' for Active; 'I' for Inactive)
REMARK    1  A    between atoms: C_2  and  N_3 
REMARK    2  A    between atoms: C_2  and  C_16 
REMARK    3  A    between atoms: N_3  and  C_5 
REMARK    4  A    between atoms: C_5  and  C_6 
REMARK       I    between atoms: C_16  and  N_17 
REMARK    5  A    between atoms: N_17  and  C_18 
REMARK    6  A    between atoms: C_19  and  C_20 
ROOT
HETATM    1  C   UNL     1      42.595 -14.665   5.747  1.00  0.00     0.253 C 
HETATM    2  N   UNL     1      42.051 -15.851   5.313  1.00  0.00    -0.325 N 
HETATM    3  O   UNL     1      43.787 -14.457   5.980  1.00  0.00    -0.271 OA
HETATM    4  H   UNL     1      41.083 -16.058   5.534  1.00  0.00     0.169 HD
ENDROOT
BRANCH   1   5
HETATM    5  C   UNL     1      41.596 -13.544   6.098  1.00  0.00     0.275 C 
HETATM    6  C   UNL     1      40.146 -13.986   6.217  1.00  0.00     0.050 C 
BRANCH   5   7
HETATM    7  N   UNL     1      41.772 -12.373   5.090  1.00  0.00    -0.059 N 
HETATM    8  H   UNL     1      40.986 -11.750   5.349  1.00  0.00     0.280 HD
HETATM    9  C   UNL     1      41.529 -12.802   3.675  1.00  0.00     0.271 C 
BRANCH   7  10
HETATM   10  C   UNL     1      43.000 -11.495   5.206  1.00  0.00     0.274 C 
BRANCH  10  11
HETATM   11  C   UNL     1      43.241 -10.839   6.540  1.00  0.00    -0.030 A 
HETATM   12  C   UNL     1      44.309 -11.239   7.361  1.00  0.00     0.048 A 
HETATM   13  C   UNL     1      44.474 -10.610   8.579  1.00  0.00     0.105 A 
HETATM   14  C   UNL     1      43.611  -9.638   9.016  1.00  0.00     0.105 A 
HETATM   15  O   UNL     1      45.471 -10.859   9.468  1.00  0.00    -0.323 OA
HETATM   16  O   UNL     1      43.952  -9.153  10.238  1.00  0.00    -0.323 OA
HETATM   17  C   UNL     1      42.530  -9.243   8.263  1.00  0.00     0.040 A 
HETATM   18  C   UNL     1      45.139  -9.926  10.520  1.00  0.00     0.352 A 
HETATM   19  C   UNL     1      42.344  -9.852   7.017  1.00  0.00     0.012 A 
ENDBRANCH  10  11
ENDBRANCH   7  10
ENDBRANCH   5   7
ENDBRANCH   1   5
BRANCH   2  20
HETATM   20  C   UNL     1      42.771 -16.928   4.732  1.00  0.00     0.045 A 
HETATM   21  C   UNL     1      42.749 -17.088   3.325  1.00  0.00     0.001 A 
HETATM   22  C   UNL     1      43.539 -18.100   2.748  1.00  0.00     0.014 A 
HETATM   23  C   UNL     1      44.325 -18.939   3.538  1.00  0.00     0.001 A 
HETATM   24  C   UNL     1      44.330 -18.783   4.919  1.00  0.00     0.002 A 
HETATM   25  C   UNL     1      43.558 -17.784   5.515  1.00  0.00     0.030 A 
BRANCH  21  26
HETATM   26  C   UNL     1      41.879 -16.285   2.451  1.00  0.00    -0.024 A 
HETATM   27  C   UNL     1      42.413 -15.501   1.418  1.00  0.00     0.012 A 
HETATM   28  C   UNL     1      41.575 -14.751   0.589  1.00  0.00     0.001 A 
HETATM   29  C   UNL     1      40.194 -14.777   0.781  1.00  0.00     0.000 A 
HETATM   30  C   UNL     1      39.648 -15.555   1.800  1.00  0.00     0.001 A 
HETATM   31  C   UNL     1      40.485 -16.304   2.627  1.00  0.00     0.012 A 
ENDBRANCH  21  26
ENDBRANCH   2  20
TORSDOF 6
ENDMDL
MODEL 6
REMARK VINA RESULT:      -8.0      1.477      2.090
REMARK  6 active torsions:
REMARK  status: ('A' for Active; 'I' for Inactive)
REMARK    1  A    between atoms: C_2  and  N_3 
REMARK    2  A    between atoms: C_2  and  C_16 
REMARK    3  A    between atoms: N_3  and  C_5 
REMARK    4  A    between atoms: C_5  and  C_6 
REMARK       I    between atoms: C_16  and  N_17 
REMARK    5  A    between atoms: N_17  and  C_18 
REMARK    6  A    between atoms: C_19  and  C_20 
ROOT
HETATM    1  C   UNL     1      42.707 -14.919   5.869  1.00  0.00     0.253 C 
HETATM    2  N   UNL     1      42.122 -16.037   5.322  1.00  0.00    -0.325 N 
HETATM    3  O   UNL     1      43.904 -14.783   6.133  1.00  0.00    -0.271 OA
HETATM    4  H   UNL     1      41.144 -16.223   5.514  1.00  0.00     0.169 HD
ENDROOT
BRANCH   1   5
HETATM    5  C   UNL     1      41.750 -13.793   6.309  1.00  0.00     0.275 C 
HETATM    6  C   UNL     1      40.272 -14.145   6.255  1.00  0.00     0.050 C 
BRANCH   5   7
HETATM    7  N   UNL     1      42.077 -12.505   5.502  1.00  0.00    -0.059 N 
HETATM    8  H   UNL     1      42.331 -12.893   4.576  1.00  0.00     0.280 HD
HETATM    9  C   UNL     1      43.296 -11.804   6.020  1.00  0.00     0.271 C 
BRANCH   7  10
HETATM   10  C   UNL     1      40.956 -11.531   5.205  1.00  0.00     0.274 C 
BRANCH  10  11
HETATM   11  C   UNL     1      40.652 -11.270   3.752  1.00  0.00    -0.030 A 
HETATM   12  C   UNL     1      41.622 -10.717   2.899  1.00  0.00     0.048 A 
HETATM   13  C   UNL     1      41.285 -10.488   1.580  1.00  0.00     0.105 A 
HETATM   14  C   UNL     1      40.029 -10.753   1.096  1.00  0.00     0.105 A 
HETATM   15  O   UNL     1      42.115  -9.991   0.627  1.00  0.00    -0.323 OA
HETATM   16  O   UNL     1      39.908 -10.455  -0.223  1.00  0.00    -0.323 OA
HETATM   17  C   UNL     1      39.038 -11.258   1.905  1.00  0.00     0.040 A 
HETATM   18  C   UNL     1      41.238  -9.976  -0.521  1.00  0.00     0.352 A 
HETATM   19  C   UNL     1      39.354 -11.515   3.244  1.00  0.00     0.012 A 
ENDBRANCH  10  11
ENDBRANCH   7  10
ENDBRANCH   5   7
ENDBRANCH   1   5
BRANCH   2  20
HETATM   20  C   UNL     1      42.806 -17.086   4.654  1.00  0.00     0.045 A 
HETATM   21  C   UNL     1      42.838 -17.093   3.239  1.00  0.00     0.001 A 
HETATM   22  C   UNL     1      43.595 -18.082   2.584  1.00  0.00     0.014 A 
HETATM   23  C   UNL     1      44.297 -19.047   3.306  1.00  0.00     0.001 A 
HETATM   24  C   UNL     1      44.249 -19.042   4.695  1.00  0.00     0.002 A 
HETATM   25  C   UNL     1      43.509 -18.068   5.368  1.00  0.00     0.030 A 
BRANCH  21  26
HETATM   26  C   UNL     1      42.054 -16.149   2.426  1.00  0.00    -0.024 A 
HETATM   27  C   UNL     1      42.608 -14.941   1.980  1.00  0.00     0.012 A 
HETATM   28  C   UNL     1      41.855 -14.058   1.200  1.00  0.00     0.001 A 
HETATM   29  C   UNL     1      40.541 -14.374   0.856  1.00  0.00     0.000 A 
HETATM   30  C   UNL     1      39.978 -15.573   1.287  1.00  0.00     0.001 A 
HETATM   31  C   UNL     1      40.730 -16.454   2.065  1.00  0.00     0.012 A 
ENDBRANCH  21  26
ENDBRANCH   2  20
TORSDOF 6
ENDMDL
MODEL 7
REMARK VINA RESULT:      -8.0      2.965      7.502
REMARK  6 active torsions:
REMARK  status: ('A' for Active; 'I' for Inactive)
REMARK    1  A    between atoms: C_2  and  N_3 
REMARK    2  A    between atoms: C_2  and  C_16 
REMARK    3  A    between atoms: N_3  and  C_5 
REMARK    4  A    between atoms: C_5  and  C_6 
REMARK       I    between atoms: C_16  and  N_17 
REMARK    5  A    between atoms: N_17  and  C_18 
REMARK    6  A    between atoms: C_19  and  C_20 
ROOT
HETATM    1  C   UNL     1      40.380 -13.211   1.917  1.00  0.00     0.253 C 
HETATM    2  N   UNL     1      40.885 -13.270   0.641  1.00  0.00    -0.325 N 
HETATM    3  O   UNL     1      39.203 -13.007   2.223  1.00  0.00    -0.271 OA
HETATM    4  H   UNL     1      41.860 -13.034   0.486  1.00  0.00     0.169 HD
ENDROOT
BRANCH   1   5
HETATM    5  C   UNL     1      41.410 -13.277   3.064  1.00  0.00     0.275 C 
HETATM    6  C   UNL     1      42.710 -12.531   2.805  1.00  0.00     0.050 C 
BRANCH   5   7
HETATM    7  N   UNL     1      41.652 -14.764   3.445  1.00  0.00    -0.059 N 
HETATM    8  H   UNL     1      41.218 -15.261   2.646  1.00  0.00     0.280 HD
HETATM    9  C   UNL     1      40.885 -15.168   4.667  1.00  0.00     0.271 C 
BRANCH   7  10
HETATM   10  C   UNL     1      43.074 -15.282   3.480  1.00  0.00     0.274 C 
BRANCH  10  11
HETATM   11  C   UNL     1      43.253 -16.777   3.440  1.00  0.00    -0.030 A 
HETATM   12  C   UNL     1      43.711 -17.482   4.566  1.00  0.00     0.048 A 
HETATM   13  C   UNL     1      43.867 -18.850   4.468  1.00  0.00     0.105 A 
HETATM   14  C   UNL     1      43.620 -19.526   3.300  1.00  0.00     0.105 A 
HETATM   15  O   UNL     1      44.268 -19.673   5.471  1.00  0.00    -0.323 OA
HETATM   16  O   UNL     1      43.837 -20.861   3.418  1.00  0.00    -0.323 OA
HETATM   17  C   UNL     1      43.208 -18.871   2.162  1.00  0.00     0.040 A 
HETATM   18  C   UNL     1      44.243 -20.954   4.801  1.00  0.00     0.352 A 
HETATM   19  C   UNL     1      43.027 -17.485   2.234  1.00  0.00     0.012 A 
ENDBRANCH  10  11
ENDBRANCH   7  10
ENDBRANCH   5   7
ENDBRANCH   1   5
BRANCH   2  20
HETATM   20  C   UNL     1      40.123 -13.448  -0.544  1.00  0.00     0.045 A 
HETATM   21  C   UNL     1      39.939 -12.346  -1.414  1.00  0.00     0.001 A 
HETATM   22  C   UNL     1      39.263 -12.552  -2.631  1.00  0.00     0.014 A 
HETATM   23  C   UNL     1      38.774 -13.810  -2.980  1.00  0.00     0.001 A 
HETATM   24  C   UNL     1      38.947 -14.883  -2.114  1.00  0.00     0.002 A 
HETATM   25  C   UNL     1      39.618 -14.706  -0.903  1.00  0.00     0.030 A 
BRANCH  21  26
HETATM   26  C   UNL     1      40.363 -10.981  -1.062  1.00  0.00    -0.024 A 
HETATM   27  C   UNL     1      41.589 -10.465  -1.506  1.00  0.00     0.012 A 
HETATM   28  C   UNL     1      41.975  -9.164  -1.173  1.00  0.00     0.001 A 
HETATM   29  C   UNL     1      41.140  -8.364  -0.395  1.00  0.00     0.000 A 
HETATM   30  C   UNL     1      39.917  -8.860   0.050  1.00  0.00     0.001 A 
HETATM   31  C   UNL     1      39.531 -10.159  -0.282  1.00  0.00     0.012 A 
ENDBRANCH  21  26
ENDBRANCH   2  20
TORSDOF 6
ENDMDL
MODEL 8
REMARK VINA RESULT:      -7.9      2.256      7.591
REMARK  6 active torsions:
REMARK  status: ('A' for Active; 'I' for Inactive)
REMARK    1  A    between atoms: C_2  and  N_3 
REMARK    2  A    between atoms: C_2  and  C_16 
REMARK    3  A    between atoms: N_3  and  C_5 
REMARK    4  A    between atoms: C_5  and  C_6 
REMARK       I    between atoms: C_16  and  N_17 
REMARK    5  A    between atoms: N_17  and  C_18 
REMARK    6  A    between atoms: C_19  and  C_20 
ROOT
HETATM    1  C   UNL     1      40.592 -13.177   2.294  1.00  0.00     0.253 C 
HETATM    2  N   UNL     1      41.597 -12.634   3.057  1.00  0.00    -0.325 N 
HETATM    3  O   UNL     1      39.382 -13.024   2.472  1.00  0.00    -0.271 OA
HETATM    4  H   UNL     1      42.491 -13.111   3.106  1.00  0.00     0.169 HD
ENDROOT
BRANCH   1   5
HETATM    5  C   UNL     1      41.028 -14.171   1.197  1.00  0.00     0.275 C 
HETATM    6  C   UNL     1      40.000 -14.415   0.104  1.00  0.00     0.050 C 
BRANCH   5   7
HETATM    7  N   UNL     1      41.499 -15.492   1.867  1.00  0.00    -0.059 N 
HETATM    8  H   UNL     1      41.398 -16.171   1.091  1.00  0.00     0.280 HD
HETATM    9  C   UNL     1      40.567 -15.942   2.951  1.00  0.00     0.271 C 
BRANCH   7  10
HETATM   10  C   UNL     1      42.948 -15.616   2.287  1.00  0.00     0.274 C 
BRANCH  10  11
HETATM   11  C   UNL     1      43.354 -16.908   2.947  1.00  0.00    -0.030 A 
HETATM   12  C   UNL     1      43.201 -18.137   2.285  1.00  0.00     0.048 A 
HETATM   13  C   UNL     1      43.579 -19.291   2.942  1.00  0.00     0.105 A 
HETATM   14  C   UNL     1      44.065 -19.268   4.225  1.00  0.00     0.105 A 
HETATM   15  O   UNL     1      43.524 -20.548   2.429  1.00  0.00    -0.323 OA
HETATM   16  O   UNL     1      44.374 -20.508   4.684  1.00  0.00    -0.323 OA
HETATM   17  C   UNL     1      44.194 -18.092   4.925  1.00  0.00     0.040 A 
HETATM   18  C   UNL     1      44.036 -21.320   3.538  1.00  0.00     0.352 A 
HETATM   19  C   UNL     1      43.832 -16.904   4.280  1.00  0.00     0.012 A 
ENDBRANCH  10  11
ENDBRANCH   7  10
ENDBRANCH   5   7
ENDBRANCH   1   5
BRANCH   2  20
HETATM   20  C   UNL     1      41.456 -11.547   3.960  1.00  0.00     0.045 A 
HETATM   21  C   UNL     1      41.485 -11.803   5.353  1.00  0.00     0.001 A 
HETATM   22  C   UNL     1      41.439 -10.713   6.241  1.00  0.00     0.014 A 
HETATM   23  C   UNL     1      41.357  -9.403   5.770  1.00  0.00     0.001 A 
HETATM   24  C   UNL     1      41.315  -9.161   4.402  1.00  0.00     0.002 A 
HETATM   25  C   UNL     1      41.364 -10.225   3.500  1.00  0.00     0.030 A 
BRANCH  21  26
HETATM   26  C   UNL     1      41.491 -13.167   5.906  1.00  0.00    -0.024 A 
HETATM   27  C   UNL     1      40.316 -13.930   5.968  1.00  0.00     0.012 A 
HETATM   28  C   UNL     1      40.337 -15.228   6.487  1.00  0.00     0.001 A 
HETATM   29  C   UNL     1      41.533 -15.777   6.948  1.00  0.00     0.000 A 
HETATM   30  C   UNL     1      42.709 -15.034   6.890  1.00  0.00     0.001 A 
HETATM   31  C   UNL     1      42.688 -13.739   6.371  1.00  0.00     0.012 A 
ENDBRANCH  21  26
ENDBRANCH   2  20
TORSDOF 6
ENDMDL
MODEL 9
REMARK VINA RESULT:      -7.9      2.399      6.144
REMARK  6 active torsions:
REMARK  status: ('A' for Active; 'I' for Inactive)
REMARK    1  A    between atoms: C_2  and  N_3 
REMARK    2  A    between atoms: C_2  and  C_16 
REMARK    3  A    between atoms: N_3  and  C_5 
REMARK    4  A    between atoms: C_5  and  C_6 
REMARK       I    between atoms: C_16  and  N_17 
REMARK    5  A    between atoms: N_17  and  C_18 
REMARK    6  A    between atoms: C_19  and  C_20 
ROOT
HETATM    1  C   UNL     1      39.973 -11.334   2.607  1.00  0.00     0.253 C 
HETATM    2  N   UNL     1      39.574 -12.566   2.150  1.00  0.00    -0.325 N 
HETATM    3  O   UNL     1      40.534 -10.460   1.942  1.00  0.00    -0.271 OA
HETATM    4  H   UNL     1      39.509 -13.337   2.807  1.00  0.00     0.169 HD
ENDROOT
BRANCH   1   5
HETATM    5  C   UNL     1      39.818 -11.083   4.121  1.00  0.00     0.275 C 
HETATM    6  C   UNL     1      39.047  -9.826   4.490  1.00  0.00     0.050 C 
BRANCH   5   7
HETATM    7  N   UNL     1      41.220 -11.130   4.790  1.00  0.00    -0.059 N 
HETATM    8  H   UNL     1      40.985 -11.422   5.756  1.00  0.00     0.280 HD
HETATM    9  C   UNL     1      41.844  -9.771   4.895  1.00  0.00     0.271 C 
BRANCH   7  10
HETATM   10  C   UNL     1      42.216 -12.167   4.316  1.00  0.00     0.274 C 
BRANCH  10  11
HETATM   11  C   UNL     1      42.239 -13.475   5.063  1.00  0.00    -0.030 A 
HETATM   12  C   UNL     1      43.448 -14.030   5.513  1.00  0.00     0.048 A 
HETATM   13  C   UNL     1      43.411 -15.238   6.182  1.00  0.00     0.105 A 
HETATM   14  C   UNL     1      42.237 -15.917   6.385  1.00  0.00     0.105 A 
HETATM   15  O   UNL     1      44.484 -15.886   6.705  1.00  0.00    -0.323 OA
HETATM   16  O   UNL     1      42.421 -17.081   7.060  1.00  0.00    -0.323 OA
HETATM   17  C   UNL     1      41.034 -15.431   5.927  1.00  0.00     0.040 A 
HETATM   18  C   UNL     1      43.850 -17.056   7.268  1.00  0.00     0.352 A 
HETATM   19  C   UNL     1      41.039 -14.202   5.258  1.00  0.00     0.012 A 
ENDBRANCH  10  11
ENDBRANCH   7  10
ENDBRANCH   5   7
ENDBRANCH   1   5
BRANCH   2  20
HETATM   20  C   UNL     1      39.418 -12.934   0.787  1.00  0.00     0.045 A 
HETATM   21  C   UNL     1      40.066 -14.100   0.312  1.00  0.00     0.001 A 
HETATM   22  C   UNL     1      39.833 -14.510  -1.013  1.00  0.00     0.014 A 
HETATM   23  C   UNL     1      38.989 -13.785  -1.854  1.00  0.00     0.001 A 
HETATM   24  C   UNL     1      38.368 -12.634  -1.384  1.00  0.00     0.002 A 
HETATM   25  C   UNL     1      38.580 -12.208  -0.072  1.00  0.00     0.030 A 
BRANCH  21  26
HETATM   26  C   UNL     1      41.027 -14.859   1.129  1.00  0.00    -0.024 A 
HETATM   27  C   UNL     1      40.637 -16.010   1.827  1.00  0.00     0.012 A 
HETATM   28  C   UNL     1      41.562 -16.727   2.590  1.00  0.00     0.001 A 
HETATM   29  C   UNL     1      42.888 -16.302   2.664  1.00  0.00     0.000 A 
HETATM   30  C   UNL     1      43.293 -15.162   1.973  1.00  0.00     0.001 A 
HETATM   31  C   UNL     1      42.369 -14.447   1.210  1.00  0.00     0.012 A 
ENDBRANCH  21  26
ENDBRANCH   2  20
TORSDOF 6
ENDMDL
MODEL 10
REMARK VINA RESULT:      -7.8      2.229      3.765
REMARK  6 active torsions:
REMARK  status: ('A' for Active; 'I' for Inactive)
REMARK    1  A    between atoms: C_2  and  N_3 
REMARK    2  A    between atoms: C_2  and  C_16 
REMARK    3  A    between atoms: N_3  and  C_5 
REMARK    4  A    between atoms: C_5  and  C_6 
REMARK       I    between atoms: C_16  and  N_17 
REMARK    5  A    between atoms: N_17  and  C_18 
REMARK    6  A    between atoms: C_19  and  C_20 
ROOT
HETATM    1  C   UNL     1      41.572 -12.955   5.713  1.00  0.00     0.253 C 
HETATM    2  N   UNL     1      42.593 -13.540   5.004  1.00  0.00    -0.325 N 
HETATM    3  O   UNL     1      40.760 -13.542   6.432  1.00  0.00    -0.271 OA
HETATM    4  H   UNL     1      42.931 -13.084   4.162  1.00  0.00     0.169 HD
ENDROOT
BRANCH   1   5
HETATM    5  C   UNL     1      41.351 -11.447   5.477  1.00  0.00     0.275 C 
HETATM    6  C   UNL     1      41.558 -10.567   6.699  1.00  0.00     0.050 C 
BRANCH   5   7
HETATM    7  N   UNL     1      39.954 -11.234   4.829  1.00  0.00    -0.059 N 
HETATM    8  H   UNL     1      40.113 -10.385   4.257  1.00  0.00     0.280 HD
HETATM    9  C   UNL     1      38.908 -10.877   5.841  1.00  0.00     0.271 C 
BRANCH   7  10
HETATM   10  C   UNL     1      39.448 -12.263   3.840  1.00  0.00     0.274 C 
BRANCH  10  11
HETATM   11  C   UNL     1      39.622 -11.941   2.379  1.00  0.00    -0.030 A 
HETATM   12  C   UNL     1      38.534 -11.993   1.492  1.00  0.00     0.048 A 
HETATM   13  C   UNL     1      38.754 -11.700   0.161  1.00  0.00     0.105 A 
HETATM   14  C   UNL     1      40.003 -11.396  -0.317  1.00  0.00     0.105 A 
HETATM   15  O   UNL     1      37.805 -11.675  -0.811  1.00  0.00    -0.323 OA
HETATM   16  O   UNL     1      40.001 -11.143  -1.651  1.00  0.00    -0.323 OA
HETATM   17  C   UNL     1      41.104 -11.372   0.508  1.00  0.00     0.040 A 
HETATM   18  C   UNL     1      38.601 -11.314  -1.962  1.00  0.00     0.352 A 
HETATM   19  C   UNL     1      40.910 -11.650   1.866  1.00  0.00     0.012 A 
ENDBRANCH  10  11
ENDBRANCH   7  10
ENDBRANCH   5   7
ENDBRANCH   1   5
BRANCH   2  20
HETATM   20  C   UNL     1      43.115 -14.842   5.223  1.00  0.00     0.045 A 
HETATM   21  C   UNL     1      42.852 -15.856   4.270  1.00  0.00     0.001 A 
HETATM   22  C   UNL     1      43.449 -17.119   4.445  1.00  0.00     0.014 A 
HETATM   23  C   UNL     1      44.277 -17.379   5.536  1.00  0.00     0.001 A 
HETATM   24  C   UNL     1      44.518 -16.382   6.475  1.00  0.00     0.002 A 
HETATM   25  C   UNL     1      43.942 -15.120   6.321  1.00  0.00     0.030 A 
BRANCH  21  26
HETATM   26  C   UNL     1      41.925 -15.662   3.144  1.00  0.00    -0.024 A 
HETATM   27  C   UNL     1      40.546 -15.871   3.295  1.00  0.00     0.012 A 
HETATM   28  C   UNL     1      39.675 -15.673   2.220  1.00  0.00     0.001 A 
HETATM   29  C   UNL     1      40.171 -15.264   0.983  1.00  0.00     0.000 A 
HETATM   30  C   UNL     1      41.538 -15.048   0.818  1.00  0.00     0.001 A 
HETATM   31  C   UNL     1      42.407 -15.245   1.892  1.00  0.00     0.012 A 
ENDBRANCH  21  26
ENDBRANCH   2  20
TORSDOF 6
ENDMDL
