MODEL 1
REMARK VINA RESULT:      -9.1      0.000      0.000
REMARK  2 active torsions:
REMARK  status: ('A' for Active; 'I' for Inactive)
REMARK    1  A    between atoms: C_2  and  C_3 
REMARK    2  A    between atoms: N_9  and  C_10 
ROOT
HETATM    1  C   UNL     1      43.099 -14.567   4.468  1.00  0.00     0.047 A 
HETATM    2  N   UNL     1      43.434 -14.267   5.775  1.00  0.00    -0.344 N 
HETATM    3  C   UNL     1      43.352 -12.989   6.261  1.00  0.00     0.119 A 
HETATM    4  C   UNL     1      42.862 -11.990   5.508  1.00  0.00     0.123 A 
HETATM    5  C   UNL     1      42.830 -10.788   6.355  1.00  0.00     0.280 A 
HETATM    6  O   UNL     1      42.426  -9.695   6.004  1.00  0.00    -0.265 OA
HETATM    7  N   UNL     1      43.342 -11.199   7.596  1.00  0.00    -0.236 N 
HETATM    8  N   UNL     1      43.700 -12.563   7.529  1.00  0.00    -0.179 NA
HETATM    9  C   UNL     1      42.426 -12.239   4.132  1.00  0.00     0.193 A 
HETATM   10  O   UNL     1      41.950 -11.383   3.399  1.00  0.00    -0.287 OA
HETATM   11  C   UNL     1      42.595 -13.638   3.634  1.00  0.00     0.086 A 
HETATM   12  H   UNL     1      44.014 -14.926   6.283  1.00  0.00     0.167 HD
HETATM   13  H   UNL     1      43.223 -13.124   8.235  1.00  0.00     0.155 HD
ENDROOT
BRANCH   1  14
HETATM   14  C   UNL     1      43.288 -15.959   4.014  1.00  0.00    -0.009 A 
HETATM   15  C   UNL     1      43.865 -16.924   4.854  1.00  0.00     0.015 A 
HETATM   16  C   UNL     1      44.031 -18.241   4.415  1.00  0.00     0.024 A 
HETATM   17  C   UNL     1      43.619 -18.602   3.135  1.00  0.00     0.034 A 
HETATM   18  C   UNL     1      43.039 -17.659   2.289  1.00  0.00     0.024 A 
HETATM   19 CL   UNL     1      43.822 -20.222   2.595  1.00  0.00    -0.084 Cl
HETATM   20  C   UNL     1      42.875 -16.341   2.729  1.00  0.00     0.015 A 
ENDBRANCH   1  14
BRANCH   7  21
HETATM   21  C   UNL     1      43.557 -10.454   8.776  1.00  0.00     0.055 A 
HETATM   22  C   UNL     1      42.508  -9.760   9.400  1.00  0.00     0.034 A 
HETATM   23  C   UNL     1      42.725  -9.035  10.577  1.00  0.00     0.044 A 
HETATM   24  C   UNL     1      43.994  -8.996  11.135  1.00  0.00     0.116 A 
HETATM   25  F   UNL     1      44.202  -8.304  12.262  1.00  0.00    -0.206 F 
HETATM   26  C   UNL     1      45.052  -9.666  10.538  1.00  0.00     0.044 A 
HETATM   27  C   UNL     1      44.833 -10.391   9.361  1.00  0.00     0.034 A 
ENDBRANCH   7  21
TORSDOF 2
ENDMDL
MODEL 2
REMARK VINA RESULT:      -8.9      6.265      8.461
REMARK  2 active torsions:
REMARK  status: ('A' for Active; 'I' for Inactive)
REMARK    1  A    between atoms: C_2  and  C_3 
REMARK    2  A    between atoms: N_9  and  C_10 
ROOT
HETATM    1  C   UNL     1      42.633 -15.869   2.769  1.00  0.00     0.047 A 
HETATM    2  N   UNL     1      41.601 -15.937   1.852  1.00  0.00    -0.344 N 
HETATM    3  C   UNL     1      41.054 -14.808   1.302  1.00  0.00     0.119 A 
HETATM    4  C   UNL     1      41.556 -13.592   1.571  1.00  0.00     0.123 A 
HETATM    5  C   UNL     1      40.803 -12.625   0.758  1.00  0.00     0.280 A 
HETATM    6  O   UNL     1      41.001 -11.424   0.735  1.00  0.00    -0.265 OA
HETATM    7  N   UNL     1      39.863 -13.392   0.050  1.00  0.00    -0.236 N 
HETATM    8  N   UNL     1      39.995 -14.750   0.415  1.00  0.00    -0.179 NA
HETATM    9  C   UNL     1      42.691 -13.440   2.484  1.00  0.00     0.193 A 
HETATM   10  O   UNL     1      43.212 -12.366   2.756  1.00  0.00    -0.287 OA
HETATM   11  C   UNL     1      43.208 -14.698   3.102  1.00  0.00     0.086 A 
HETATM   12  H   UNL     1      41.056 -16.792   1.809  1.00  0.00     0.167 HD
HETATM   13  H   UNL     1      40.174 -15.352  -0.389  1.00  0.00     0.155 HD
ENDROOT
BRANCH   1  14
HETATM   14  C   UNL     1      43.110 -17.134   3.360  1.00  0.00    -0.009 A 
HETATM   15  C   UNL     1      43.269 -18.288   2.576  1.00  0.00     0.015 A 
HETATM   16  C   UNL     1      43.728 -19.478   3.148  1.00  0.00     0.024 A 
HETATM   17  C   UNL     1      44.036 -19.522   4.505  1.00  0.00     0.034 A 
HETATM   18  C   UNL     1      43.889 -18.386   5.298  1.00  0.00     0.024 A 
HETATM   19 CL   UNL     1      44.602 -20.986   5.208  1.00  0.00    -0.084 Cl
HETATM   20  C   UNL     1      43.428 -17.196   4.726  1.00  0.00     0.015 A 
ENDBRANCH   1  14
BRANCH   7  21
HETATM   21  C   UNL     1      38.868 -12.984  -0.863  1.00  0.00     0.055 A 
HETATM   22  C   UNL     1      38.514 -13.786  -1.959  1.00  0.00     0.034 A 
HETATM   23  C   UNL     1      37.516 -13.382  -2.854  1.00  0.00     0.044 A 
HETATM   24  C   UNL     1      36.868 -12.172  -2.658  1.00  0.00     0.116 A 
HETATM   25  F   UNL     1      35.912 -11.785  -3.513  1.00  0.00    -0.206 F 
HETATM   26  C   UNL     1      37.202 -11.354  -1.588  1.00  0.00     0.044 A 
HETATM   27  C   UNL     1      38.199 -11.759  -0.694  1.00  0.00     0.034 A 
ENDBRANCH   7  21
TORSDOF 2
ENDMDL
MODEL 3
REMARK VINA RESULT:      -8.6      4.406      8.552
REMARK  2 active torsions:
REMARK  status: ('A' for Active; 'I' for Inactive)
REMARK    1  A    between atoms: C_2  and  C_3 
REMARK    2  A    between atoms: N_9  and  C_10 
ROOT
HETATM    1  C   UNL     1      43.133 -10.969   7.157  1.00  0.00     0.047 A 
HETATM    2  N   UNL     1      43.367 -12.332   7.138  1.00  0.00    -0.344 N 
HETATM    3  C   UNL     1      43.214 -13.070   5.995  1.00  0.00     0.119 A 
HETATM    4  C   UNL     1      42.913 -12.483   4.825  1.00  0.00     0.123 A 
HETATM    5  C   UNL     1      42.914 -13.539   3.801  1.00  0.00     0.280 A 
HETATM    6  O   UNL     1      42.697 -13.365   2.615  1.00  0.00    -0.265 OA
HETATM    7  N   UNL     1      43.221 -14.722   4.492  1.00  0.00    -0.236 N 
HETATM    8  N   UNL     1      43.374 -14.437   5.866  1.00  0.00    -0.179 NA
HETATM    9  C   UNL     1      42.712 -11.034   4.748  1.00  0.00     0.193 A 
HETATM   10  O   UNL     1      42.458 -10.433   3.713  1.00  0.00    -0.287 OA
HETATM   11  C   UNL     1      42.830 -10.287   6.036  1.00  0.00     0.086 A 
HETATM   12  H   UNL     1      43.362 -12.829   8.023  1.00  0.00     0.167 HD
HETATM   13  H   UNL     1      44.287 -14.722   6.222  1.00  0.00     0.155 HD
ENDROOT
BRANCH   1  14
HETATM   14  C   UNL     1      43.254 -10.270   8.451  1.00  0.00    -0.009 A 
HETATM   15  C   UNL     1      42.266  -9.372   8.886  1.00  0.00     0.015 A 
HETATM   16  C   UNL     1      42.388  -8.723  10.118  1.00  0.00     0.024 A 
HETATM   17  C   UNL     1      43.496  -8.970  10.925  1.00  0.00     0.034 A 
HETATM   18  C   UNL     1      44.483  -9.862  10.512  1.00  0.00     0.024 A 
HETATM   19 CL   UNL     1      43.647  -8.172  12.440  1.00  0.00    -0.084 Cl
HETATM   20  C   UNL     1      44.361 -10.510   9.279  1.00  0.00     0.015 A 
ENDBRANCH   1  14
BRANCH   7  21
HETATM   21  C   UNL     1      43.336 -16.044   4.012  1.00  0.00     0.055 A 
HETATM   22  C   UNL     1      42.804 -16.417   2.768  1.00  0.00     0.034 A 
HETATM   23  C   UNL     1      42.934 -17.726   2.292  1.00  0.00     0.044 A 
HETATM   24  C   UNL     1      43.596 -18.672   3.059  1.00  0.00     0.116 A 
HETATM   25  F   UNL     1      43.723 -19.925   2.603  1.00  0.00    -0.206 F 
HETATM   26  C   UNL     1      44.127 -18.337   4.296  1.00  0.00     0.044 A 
HETATM   27  C   UNL     1      43.997 -17.027   4.771  1.00  0.00     0.034 A 
ENDBRANCH   7  21
TORSDOF 2
ENDMDL
MODEL 4
REMARK VINA RESULT:      -8.5      5.713      8.004
REMARK  2 active torsions:
REMARK  status: ('A' for Active; 'I' for Inactive)
REMARK    1  A    between atoms: C_2  and  C_3 
REMARK    2  A    between atoms: N_9  and  C_10 
ROOT
HETATM    1  C   UNL     1      42.797 -15.325   2.957  1.00  0.00     0.047 A 
HETATM    2  N   UNL     1      42.243 -15.161   1.701  1.00  0.00    -0.344 N 
HETATM    3  C   UNL     1      41.783 -13.944   1.274  1.00  0.00     0.119 A 
HETATM    4  C   UNL     1      41.928 -12.842   2.029  1.00  0.00     0.123 A 
HETATM    5  C   UNL     1      41.413 -11.711   1.243  1.00  0.00     0.280 A 
HETATM    6  O   UNL     1      41.404 -10.550   1.610  1.00  0.00    -0.265 OA
HETATM    7  N   UNL     1      40.974 -12.272   0.033  1.00  0.00    -0.236 N 
HETATM    8  N   UNL     1      41.172 -13.670   0.064  1.00  0.00    -0.179 NA
HETATM    9  C   UNL     1      42.563 -12.921   3.346  1.00  0.00     0.193 A 
HETATM   10  O   UNL     1      42.748 -11.956   4.075  1.00  0.00    -0.287 OA
HETATM   11  C   UNL     1      42.990 -14.282   3.788  1.00  0.00     0.086 A 
HETATM   12  H   UNL     1      41.910 -15.987   1.215  1.00  0.00     0.167 HD
HETATM   13  H   UNL     1      41.753 -13.997  -0.708  1.00  0.00     0.155 HD
ENDROOT
BRANCH   1  14
HETATM   14  C   UNL     1      43.200 -16.687   3.357  1.00  0.00    -0.009 A 
HETATM   15  C   UNL     1      43.634 -16.963   4.663  1.00  0.00     0.015 A 
HETATM   16  C   UNL     1      44.005 -18.260   5.030  1.00  0.00     0.024 A 
HETATM   17  C   UNL     1      43.940 -19.290   4.096  1.00  0.00     0.034 A 
HETATM   18  C   UNL     1      43.507 -19.037   2.797  1.00  0.00     0.024 A 
HETATM   19 CL   UNL     1      44.396 -20.885   4.548  1.00  0.00    -0.084 Cl
HETATM   20  C   UNL     1      43.137 -17.739   2.429  1.00  0.00     0.015 A 
ENDBRANCH   1  14
BRANCH   7  21
HETATM   21  C   UNL     1      40.374 -11.653  -1.085  1.00  0.00     0.055 A 
HETATM   22  C   UNL     1      41.117 -10.839  -1.953  1.00  0.00     0.034 A 
HETATM   23  C   UNL     1      40.519 -10.240  -3.067  1.00  0.00     0.044 A 
HETATM   24  C   UNL     1      39.171 -10.450  -3.318  1.00  0.00     0.116 A 
HETATM   25  F   UNL     1      38.598  -9.878  -4.385  1.00  0.00    -0.206 F 
HETATM   26  C   UNL     1      38.408 -11.243  -2.474  1.00  0.00     0.044 A 
HETATM   27  C   UNL     1      39.008 -11.842  -1.361  1.00  0.00     0.034 A 
ENDBRANCH   7  21
TORSDOF 2
ENDMDL
MODEL 5
REMARK VINA RESULT:      -8.4      4.731      8.728
REMARK  2 active torsions:
REMARK  status: ('A' for Active; 'I' for Inactive)
REMARK    1  A    between atoms: C_2  and  C_3 
REMARK    2  A    between atoms: N_9  and  C_10 
ROOT
HETATM    1  C   UNL     1      42.543 -12.222   5.938  1.00  0.00     0.047 A 
HETATM    2  N   UNL     1      43.328 -13.358   5.867  1.00  0.00    -0.344 N 
HETATM    3  C   UNL     1      42.898 -14.488   5.224  1.00  0.00     0.119 A 
HETATM    4  C   UNL     1      41.728 -14.508   4.564  1.00  0.00     0.123 A 
HETATM    5  C   UNL     1      41.619 -15.827   3.921  1.00  0.00     0.280 A 
HETATM    6  O   UNL     1      40.691 -16.191   3.223  1.00  0.00    -0.265 OA
HETATM    7  N   UNL     1      42.789 -16.513   4.286  1.00  0.00    -0.236 N 
HETATM    8  N   UNL     1      43.571 -15.692   5.128  1.00  0.00    -0.179 NA
HETATM    9  C   UNL     1      40.867 -13.324   4.537  1.00  0.00     0.193 A 
HETATM   10  O   UNL     1      39.802 -13.265   3.938  1.00  0.00    -0.287 OA
HETATM   11  C   UNL     1      41.357 -12.141   5.306  1.00  0.00     0.086 A 
HETATM   12  H   UNL     1      44.087 -13.457   6.534  1.00  0.00     0.167 HD
HETATM   13  H   UNL     1      44.511 -15.543   4.759  1.00  0.00     0.155 HD
ENDROOT
BRANCH   1  14
HETATM   14  C   UNL     1      43.061 -11.079   6.713  1.00  0.00    -0.009 A 
HETATM   15  C   UNL     1      42.270  -9.944   6.950  1.00  0.00     0.015 A 
HETATM   16  C   UNL     1      42.770  -8.870   7.693  1.00  0.00     0.024 A 
HETATM   17  C   UNL     1      44.063  -8.926   8.207  1.00  0.00     0.034 A 
HETATM   18  C   UNL     1      44.861 -10.046   7.987  1.00  0.00     0.024 A 
HETATM   19 CL   UNL     1      44.678  -7.606   9.122  1.00  0.00    -0.084 Cl
HETATM   20  C   UNL     1      44.360 -11.119   7.242  1.00  0.00     0.015 A 
ENDBRANCH   1  14
BRANCH   7  21
HETATM   21  C   UNL     1      43.203 -17.824   3.969  1.00  0.00     0.055 A 
HETATM   22  C   UNL     1      43.730 -18.678   4.951  1.00  0.00     0.034 A 
HETATM   23  C   UNL     1      44.126 -19.982   4.632  1.00  0.00     0.044 A 
HETATM   24  C   UNL     1      44.000 -20.439   3.329  1.00  0.00     0.116 A 
HETATM   25  F   UNL     1      44.377 -21.687   3.025  1.00  0.00    -0.206 F 
HETATM   26  C   UNL     1      43.490 -19.616   2.336  1.00  0.00     0.044 A 
HETATM   27  C   UNL     1      43.094 -18.313   2.655  1.00  0.00     0.034 A 
ENDBRANCH   7  21
TORSDOF 2
ENDMDL
MODEL 6
REMARK VINA RESULT:      -8.4      6.400      8.786
REMARK  2 active torsions:
REMARK  status: ('A' for Active; 'I' for Inactive)
REMARK    1  A    between atoms: C_2  and  C_3 
REMARK    2  A    between atoms: N_9  and  C_10 
ROOT
HETATM    1  C   UNL     1      39.496 -12.478  -0.264  1.00  0.00     0.047 A 
HETATM    2  N   UNL     1      39.712 -13.773   0.170  1.00  0.00    -0.344 N 
HETATM    3  C   UNL     1      40.777 -14.094   0.968  1.00  0.00     0.119 A 
HETATM    4  C   UNL     1      41.609 -13.145   1.430  1.00  0.00     0.123 A 
HETATM    5  C   UNL     1      42.573 -13.814   2.318  1.00  0.00     0.280 A 
HETATM    6  O   UNL     1      43.466 -13.256   2.929  1.00  0.00    -0.265 OA
HETATM    7  N   UNL     1      42.216 -15.172   2.294  1.00  0.00    -0.236 N 
HETATM    8  N   UNL     1      41.118 -15.354   1.425  1.00  0.00    -0.179 NA
HETATM    9  C   UNL     1      41.411 -11.740   1.068  1.00  0.00     0.193 A 
HETATM   10  O   UNL     1      42.116 -10.824   1.470  1.00  0.00    -0.287 OA
HETATM   11  C   UNL     1      40.271 -11.456   0.146  1.00  0.00     0.086 A 
HETATM   12  H   UNL     1      39.259 -14.527  -0.336  1.00  0.00     0.167 HD
HETATM   13  H   UNL     1      40.322 -15.788   1.892  1.00  0.00     0.155 HD
ENDROOT
BRANCH   1  14
HETATM   14  C   UNL     1      38.364 -12.241  -1.180  1.00  0.00    -0.009 A 
HETATM   15  C   UNL     1      37.722 -10.993  -1.235  1.00  0.00     0.015 A 
HETATM   16  C   UNL     1      36.656 -10.780  -2.113  1.00  0.00     0.024 A 
HETATM   17  C   UNL     1      36.225 -11.811  -2.944  1.00  0.00     0.034 A 
HETATM   18  C   UNL     1      36.853 -13.054  -2.907  1.00  0.00     0.024 A 
HETATM   19 CL   UNL     1      34.913 -11.549  -4.024  1.00  0.00    -0.084 Cl
HETATM   20  C   UNL     1      37.919 -13.267  -2.028  1.00  0.00     0.015 A 
ENDBRANCH   1  14
BRANCH   7  21
HETATM   21  C   UNL     1      42.810 -16.273   2.946  1.00  0.00     0.055 A 
HETATM   22  C   UNL     1      43.187 -17.423   2.236  1.00  0.00     0.034 A 
HETATM   23  C   UNL     1      43.788 -18.506   2.887  1.00  0.00     0.044 A 
HETATM   24  C   UNL     1      44.013 -18.447   4.254  1.00  0.00     0.116 A 
HETATM   25  F   UNL     1      44.590 -19.482   4.877  1.00  0.00    -0.206 F 
HETATM   26  C   UNL     1      43.645 -17.326   4.985  1.00  0.00     0.044 A 
HETATM   27  C   UNL     1      43.045 -16.244   4.332  1.00  0.00     0.034 A 
ENDBRANCH   7  21
TORSDOF 2
ENDMDL
MODEL 7
REMARK VINA RESULT:      -7.9      1.428      1.803
REMARK  2 active torsions:
REMARK  status: ('A' for Active; 'I' for Inactive)
REMARK    1  A    between atoms: C_2  and  C_3 
REMARK    2  A    between atoms: N_9  and  C_10 
ROOT
HETATM    1  C   UNL     1      42.841 -14.706   3.676  1.00  0.00     0.047 A 
HETATM    2  N   UNL     1      43.190 -14.133   4.885  1.00  0.00    -0.344 N 
HETATM    3  C   UNL     1      43.068 -12.787   5.103  1.00  0.00     0.119 A 
HETATM    4  C   UNL     1      42.524 -11.980   4.177  1.00  0.00     0.123 A 
HETATM    5  C   UNL     1      42.463 -10.632   4.762  1.00  0.00     0.280 A 
HETATM    6  O   UNL     1      42.009  -9.648   4.208  1.00  0.00    -0.265 OA
HETATM    7  N   UNL     1      43.016 -10.762   6.046  1.00  0.00    -0.236 N 
HETATM    8  N   UNL     1      43.426 -12.099   6.248  1.00  0.00    -0.179 NA
HETATM    9  C   UNL     1      42.071 -12.520   2.893  1.00  0.00     0.193 A 
HETATM   10  O   UNL     1      41.547 -11.848   2.015  1.00  0.00    -0.287 OA
HETATM   11  C   UNL     1      42.284 -13.983   2.685  1.00  0.00     0.086 A 
HETATM   12  H   UNL     1      43.807 -14.655   5.500  1.00  0.00     0.167 HD
HETATM   13  H   UNL     1      42.986 -12.520   7.066  1.00  0.00     0.155 HD
ENDROOT
BRANCH   1  14
HETATM   14  C   UNL     1      43.075 -16.153   3.510  1.00  0.00    -0.009 A 
HETATM   15  C   UNL     1      43.714 -16.905   4.509  1.00  0.00     0.015 A 
HETATM   16  C   UNL     1      43.922 -18.277   4.342  1.00  0.00     0.024 A 
HETATM   17  C   UNL     1      43.490 -18.908   3.178  1.00  0.00     0.034 A 
HETATM   18  C   UNL     1      42.849 -18.179   2.179  1.00  0.00     0.024 A 
HETATM   19 CL   UNL     1      43.746 -20.596   2.973  1.00  0.00    -0.084 Cl
HETATM   20  C   UNL     1      42.643 -16.806   2.345  1.00  0.00     0.015 A 
ENDBRANCH   1  14
BRANCH   7  21
HETATM   21  C   UNL     1      43.225  -9.786   7.043  1.00  0.00     0.055 A 
HETATM   22  C   UNL     1      44.396  -9.775   7.817  1.00  0.00     0.034 A 
HETATM   23  C   UNL     1      44.604  -8.795   8.793  1.00  0.00     0.044 A 
HETATM   24  C   UNL     1      43.641  -7.820   9.004  1.00  0.00     0.116 A 
HETATM   25  F   UNL     1      43.840  -6.881   9.938  1.00  0.00    -0.206 F 
HETATM   26  C   UNL     1      42.470  -7.809   8.261  1.00  0.00     0.044 A 
HETATM   27  C   UNL     1      42.263  -8.789   7.284  1.00  0.00     0.034 A 
ENDBRANCH   7  21
TORSDOF 2
ENDMDL
MODEL 8
REMARK VINA RESULT:      -7.9      1.484      2.158
REMARK  2 active torsions:
REMARK  status: ('A' for Active; 'I' for Inactive)
REMARK    1  A    between atoms: C_2  and  C_3 
REMARK    2  A    between atoms: N_9  and  C_10 
ROOT
HETATM    1  C   UNL     1      42.674 -12.641   4.682  1.00  0.00     0.047 A 
HETATM    2  N   UNL     1      42.929 -12.565   6.039  1.00  0.00    -0.344 N 
HETATM    3  C   UNL     1      42.864 -11.376   6.715  1.00  0.00     0.119 A 
HETATM    4  C   UNL     1      42.467 -10.248   6.101  1.00  0.00     0.123 A 
HETATM    5  C   UNL     1      42.425  -9.193   7.125  1.00  0.00     0.280 A 
HETATM    6  O   UNL     1      42.089  -8.039   6.927  1.00  0.00    -0.265 OA
HETATM    7  N   UNL     1      42.833  -9.817   8.314  1.00  0.00    -0.236 N 
HETATM    8  N   UNL     1      43.142 -11.170   8.054  1.00  0.00    -0.179 NA
HETATM    9  C   UNL     1      42.117 -10.258   4.679  1.00  0.00     0.193 A 
HETATM   10  O   UNL     1      41.727  -9.275   4.063  1.00  0.00    -0.287 OA
HETATM   11  C   UNL     1      42.265 -11.568   3.977  1.00  0.00     0.086 A 
HETATM   12  H   UNL     1      43.447 -13.323   6.470  1.00  0.00     0.167 HD
HETATM   13  H   UNL     1      42.595 -11.810   8.630  1.00  0.00     0.155 HD
ENDROOT
BRANCH   1  14
HETATM   14  C   UNL     1      42.838 -13.952   4.026  1.00  0.00    -0.009 A 
HETATM   15  C   UNL     1      43.133 -14.047   2.656  1.00  0.00     0.015 A 
HETATM   16  C   UNL     1      43.294 -15.296   2.049  1.00  0.00     0.024 A 
HETATM   17  C   UNL     1      43.166 -16.458   2.806  1.00  0.00     0.034 A 
HETATM   18  C   UNL     1      42.879 -16.382   4.168  1.00  0.00     0.024 A 
HETATM   19 CL   UNL     1      43.365 -17.993   2.060  1.00  0.00    -0.084 Cl
HETATM   20  C   UNL     1      42.717 -15.133   4.774  1.00  0.00     0.015 A 
ENDBRANCH   1  14
BRANCH   7  21
HETATM   21  C   UNL     1      42.996  -9.276   9.608  1.00  0.00     0.055 A 
HETATM   22  C   UNL     1      42.868  -7.898   9.842  1.00  0.00     0.034 A 
HETATM   23  C   UNL     1      43.017  -7.371  11.130  1.00  0.00     0.044 A 
HETATM   24  C   UNL     1      43.297  -8.218  12.191  1.00  0.00     0.116 A 
HETATM   25  F   UNL     1      43.438  -7.714  13.423  1.00  0.00    -0.206 F 
HETATM   26  C   UNL     1      43.437  -9.583  11.989  1.00  0.00     0.044 A 
HETATM   27  C   UNL     1      43.288 -10.110  10.702  1.00  0.00     0.034 A 
ENDBRANCH   7  21
TORSDOF 2
ENDMDL
MODEL 9
REMARK VINA RESULT:      -7.6     17.920     19.407
REMARK  2 active torsions:
REMARK  status: ('A' for Active; 'I' for Inactive)
REMARK    1  A    between atoms: C_2  and  C_3 
REMARK    2  A    between atoms: N_9  and  C_10 
ROOT
HETATM    1  C   UNL     1      45.870 -30.059  -3.149  1.00  0.00     0.047 A 
HETATM    2  N   UNL     1      46.792 -30.669  -2.319  1.00  0.00    -0.344 N 
HETATM    3  C   UNL     1      47.147 -30.119  -1.116  1.00  0.00     0.119 A 
HETATM    4  C   UNL     1      46.549 -29.007  -0.657  1.00  0.00     0.123 A 
HETATM    5  C   UNL     1      47.095 -28.746   0.684  1.00  0.00     0.280 A 
HETATM    6  O   UNL     1      46.765 -27.824   1.407  1.00  0.00    -0.265 OA
HETATM    7  N   UNL     1      48.025 -29.773   0.909  1.00  0.00    -0.236 N 
HETATM    8  N   UNL     1      48.085 -30.610  -0.227  1.00  0.00    -0.179 NA
HETATM    9  C   UNL     1      45.515 -28.336  -1.449  1.00  0.00     0.193 A 
HETATM   10  O   UNL     1      44.915 -27.335  -1.083  1.00  0.00    -0.287 OA
HETATM   11  C   UNL     1      45.213 -28.944  -2.780  1.00  0.00     0.086 A 
HETATM   12  H   UNL     1      47.419 -31.357  -2.724  1.00  0.00     0.167 HD
HETATM   13  H   UNL     1      47.882 -31.585  -0.001  1.00  0.00     0.155 HD
ENDROOT
BRANCH   1  14
HETATM   14  C   UNL     1      45.605 -30.688  -4.458  1.00  0.00    -0.009 A 
HETATM   15  C   UNL     1      46.481 -31.645  -4.994  1.00  0.00     0.015 A 
HETATM   16  C   UNL     1      46.214 -32.240  -6.231  1.00  0.00     0.024 A 
HETATM   17  C   UNL     1      45.068 -31.884  -6.938  1.00  0.00     0.034 A 
HETATM   18  C   UNL     1      44.185 -30.940  -6.419  1.00  0.00     0.024 A 
HETATM   19 CL   UNL     1      44.740 -32.615  -8.459  1.00  0.00    -0.084 Cl
HETATM   20  C   UNL     1      44.453 -30.345  -5.182  1.00  0.00     0.015 A 
ENDBRANCH   1  14
BRANCH   7  21
HETATM   21  C   UNL     1      48.859 -30.008   2.023  1.00  0.00     0.055 A 
HETATM   22  C   UNL     1      50.254 -30.081   1.885  1.00  0.00     0.034 A 
HETATM   23  C   UNL     1      51.076 -30.300   2.996  1.00  0.00     0.044 A 
HETATM   24  C   UNL     1      50.508 -30.450   4.252  1.00  0.00     0.116 A 
HETATM   25  F   UNL     1      51.295 -30.658   5.315  1.00  0.00    -0.206 F 
HETATM   26  C   UNL     1      49.132 -30.390   4.419  1.00  0.00     0.044 A 
HETATM   27  C   UNL     1      48.311 -30.170   3.307  1.00  0.00     0.034 A 
ENDBRANCH   7  21
TORSDOF 2
ENDMDL
MODEL 10
REMARK VINA RESULT:      -7.5      2.060      2.788
REMARK  2 active torsions:
REMARK  status: ('A' for Active; 'I' for Inactive)
REMARK    1  A    between atoms: C_2  and  C_3 
REMARK    2  A    between atoms: N_9  and  C_10 
ROOT
HETATM    1  C   UNL     1      42.779 -13.924   4.184  1.00  0.00     0.047 A 
HETATM    2  N   UNL     1      42.307 -13.465   5.400  1.00  0.00    -0.344 N 
HETATM    3  C   UNL     1      42.062 -12.135   5.619  1.00  0.00     0.119 A 
HETATM    4  C   UNL     1      42.193 -11.234   4.631  1.00  0.00     0.123 A 
HETATM    5  C   UNL     1      41.771  -9.934   5.176  1.00  0.00     0.280 A 
HETATM    6  O   UNL     1      41.742  -8.889   4.553  1.00  0.00    -0.265 OA
HETATM    7  N   UNL     1      41.420 -10.191   6.512  1.00  0.00    -0.236 N 
HETATM    8  N   UNL     1      41.635 -11.557   6.799  1.00  0.00    -0.179 NA
HETATM    9  C   UNL     1      42.628 -11.649   3.296  1.00  0.00     0.193 A 
HETATM   10  O   UNL     1      42.746 -10.886   2.347  1.00  0.00    -0.287 OA
HETATM   11  C   UNL     1      42.940 -13.100   3.131  1.00  0.00     0.086 A 
HETATM   12  H   UNL     1      42.422 -14.062   6.213  1.00  0.00     0.167 HD
HETATM   13  H   UNL     1      40.789 -12.020   7.135  1.00  0.00     0.155 HD
ENDROOT
BRANCH   1  14
HETATM   14  C   UNL     1      43.082 -15.363   4.065  1.00  0.00    -0.009 A 
HETATM   15  C   UNL     1      42.866 -16.053   2.862  1.00  0.00     0.015 A 
HETATM   16  C   UNL     1      43.164 -17.415   2.760  1.00  0.00     0.024 A 
HETATM   17  C   UNL     1      43.684 -18.095   3.859  1.00  0.00     0.034 A 
HETATM   18  C   UNL     1      43.910 -17.425   5.059  1.00  0.00     0.024 A 
HETATM   19 CL   UNL     1      44.051 -19.770   3.734  1.00  0.00    -0.084 Cl
HETATM   20  C   UNL     1      43.610 -16.063   5.160  1.00  0.00     0.015 A 
ENDBRANCH   1  14
BRANCH   7  21
HETATM   21  C   UNL     1      40.963  -9.306   7.512  1.00  0.00     0.055 A 
HETATM   22  C   UNL     1      41.755  -9.002   8.630  1.00  0.00     0.034 A 
HETATM   23  C   UNL     1      41.302  -8.112   9.611  1.00  0.00     0.044 A 
HETATM   24  C   UNL     1      40.053  -7.524   9.481  1.00  0.00     0.116 A 
HETATM   25  F   UNL     1      39.620  -6.672  10.419  1.00  0.00    -0.206 F 
HETATM   26  C   UNL     1      39.245  -7.812   8.391  1.00  0.00     0.044 A 
HETATM   27  C   UNL     1      39.699  -8.701   7.410  1.00  0.00     0.034 A 
ENDBRANCH   7  21
TORSDOF 2
ENDMDL
