MODEL 1
REMARK VINA RESULT:      -9.4      0.000      0.000
REMARK  6 active torsions:
REMARK  status: ('A' for Active; 'I' for Inactive)
REMARK    1  A    between atoms: O_2  and  C_3 
REMARK    2  A    between atoms: C_6  and  C_7 
REMARK    3  A    between atoms: N_9  and  C_10 
REMARK    4  A    between atoms: C_17  and  C_18 
REMARK       I    between atoms: C_18  and  N_19 
REMARK    5  A    between atoms: N_19  and  N_20 
REMARK       I    between atoms: N_20  and  C_21 
REMARK    6  A    between atoms: C_21  and  C_22 
ROOT
HETATM    1  C   UNL     1      41.817 -15.279   2.493  1.00  0.00     0.105 A 
HETATM    2  N   UNL     1      41.434 -15.335   1.202  1.00  0.00    -0.166 NA
HETATM    3  N   UNL     1      40.861 -14.151   0.912  1.00  0.00    -0.244 N 
HETATM    4  C   UNL     1      40.869 -13.321   2.000  1.00  0.00     0.138 A 
HETATM    5  C   UNL     1      41.469 -14.006   3.045  1.00  0.00     0.082 A 
ENDROOT
BRANCH   5   6
HETATM    6  C   UNL     1      41.639 -13.450   4.374  1.00  0.00     0.274 C 
HETATM    7  N   UNL     1      42.915 -12.975   4.609  1.00  0.00    -0.263 N 
HETATM    8  H   UNL     1      43.684 -13.096   3.952  1.00  0.00     0.190 HD
HETATM    9  O   UNL     1      40.750 -13.390   5.217  1.00  0.00    -0.266 OA
BRANCH   7  10
HETATM   10  N   UNL     1      43.247 -12.469   5.869  1.00  0.00    -0.262 N 
HETATM   11  C   UNL     1      44.295 -11.577   5.959  1.00  0.00     0.286 C 
HETATM   12  O   UNL     1      44.944 -11.247   4.966  1.00  0.00    -0.264 OA
HETATM   13  H   UNL     1      42.655 -12.732   6.651  1.00  0.00     0.190 HD
BRANCH  11  14
HETATM   14  C   UNL     1      44.573 -11.059   7.278  1.00  0.00     0.102 A 
HETATM   15  N   UNL     1      43.593 -11.016   8.250  1.00  0.00    -0.361 N 
HETATM   16  H   UNL     1      42.643 -11.336   8.103  1.00  0.00     0.165 HD
HETATM   17  C   UNL     1      44.096 -10.489   9.409  1.00  0.00     0.088 A 
HETATM   18  C   UNL     1      45.417 -10.179   9.192  1.00  0.00     0.019 A 
HETATM   19  C   UNL     1      45.720 -10.534   7.854  1.00  0.00     0.036 A 
ENDBRANCH  11  14
ENDBRANCH   7  10
ENDBRANCH   5   6
BRANCH   1  20
HETATM   20  C   UNL     1      42.534 -16.441   3.063  1.00  0.00    -0.004 A 
HETATM   21  C   UNL     1      42.872 -17.525   2.228  1.00  0.00     0.016 A 
HETATM   22  C   UNL     1      43.594 -18.630   2.700  1.00  0.00     0.037 A 
HETATM   23  C   UNL     1      43.996 -18.681   4.030  1.00  0.00     0.068 A 
HETATM   24  C   UNL     1      43.653 -17.628   4.876  1.00  0.00     0.037 A 
HETATM   25  C   UNL     1      42.946 -16.515   4.397  1.00  0.00     0.016 A 
BRANCH  23  26
HETATM   26  O   UNL     1      44.708 -19.688   4.618  1.00  0.00    -0.356 OA
HETATM   27  C   UNL     1      43.968 -20.612   5.405  1.00  0.00     0.210 C 
ENDBRANCH  23  26
ENDBRANCH   1  20
BRANCH   3  28
HETATM   28  C   UNL     1      40.359 -13.881  -0.392  1.00  0.00     0.058 A 
HETATM   29  C   UNL     1      40.710 -12.682  -1.031  1.00  0.00     0.031 A 
HETATM   30  C   UNL     1      40.219 -12.392  -2.307  1.00  0.00     0.002 A 
HETATM   31  C   UNL     1      39.376 -13.295  -2.952  1.00  0.00     0.000 A 
HETATM   32  C   UNL     1      39.024 -14.488  -2.326  1.00  0.00     0.002 A 
HETATM   33  C   UNL     1      39.512 -14.786  -1.049  1.00  0.00     0.031 A 
ENDBRANCH   3  28
TORSDOF 6
ENDMDL
MODEL 2
REMARK VINA RESULT:      -9.2      2.261      5.951
REMARK  6 active torsions:
REMARK  status: ('A' for Active; 'I' for Inactive)
REMARK    1  A    between atoms: O_2  and  C_3 
REMARK    2  A    between atoms: C_6  and  C_7 
REMARK    3  A    between atoms: N_9  and  C_10 
REMARK    4  A    between atoms: C_17  and  C_18 
REMARK       I    between atoms: C_18  and  N_19 
REMARK    5  A    between atoms: N_19  and  N_20 
REMARK       I    between atoms: N_20  and  C_21 
REMARK    6  A    between atoms: C_21  and  C_22 
ROOT
HETATM    1  C   UNL     1      42.425 -14.606   3.344  1.00  0.00     0.105 A 
HETATM    2  N   UNL     1      42.701 -15.806   2.796  1.00  0.00    -0.166 NA
HETATM    3  N   UNL     1      43.007 -16.639   3.810  1.00  0.00    -0.244 N 
HETATM    4  C   UNL     1      42.931 -15.994   5.015  1.00  0.00     0.138 A 
HETATM    5  C   UNL     1      42.566 -14.681   4.766  1.00  0.00     0.082 A 
ENDROOT
BRANCH   5   6
HETATM    6  C   UNL     1      42.404 -13.682   5.807  1.00  0.00     0.274 C 
HETATM    7  N   UNL     1      43.543 -13.494   6.564  1.00  0.00    -0.263 N 
HETATM    8  H   UNL     1      44.378 -14.070   6.468  1.00  0.00     0.190 HD
HETATM    9  O   UNL     1      41.371 -13.052   6.004  1.00  0.00    -0.266 OA
BRANCH   7  10
HETATM   10  N   UNL     1      43.519 -12.609   7.647  1.00  0.00    -0.262 N 
HETATM   11  C   UNL     1      44.427 -11.571   7.661  1.00  0.00     0.286 C 
HETATM   12  O   UNL     1      45.257 -11.431   6.763  1.00  0.00    -0.264 OA
HETATM   13  H   UNL     1      42.787 -12.735   8.339  1.00  0.00     0.190 HD
BRANCH  11  14
HETATM   14  C   UNL     1      44.335 -10.667   8.784  1.00  0.00     0.102 A 
HETATM   15  N   UNL     1      43.111 -10.294   9.303  1.00  0.00    -0.361 N 
HETATM   16  H   UNL     1      42.224 -10.622   8.940  1.00  0.00     0.165 HD
HETATM   17  C   UNL     1      43.282  -9.439  10.358  1.00  0.00     0.088 A 
HETATM   18  C   UNL     1      44.632  -9.245  10.527  1.00  0.00     0.019 A 
HETATM   19  C   UNL     1      45.297 -10.014   9.540  1.00  0.00     0.036 A 
ENDBRANCH  11  14
ENDBRANCH   7  10
ENDBRANCH   5   6
BRANCH   1  20
HETATM   20  C   UNL     1      41.998 -13.508   2.448  1.00  0.00    -0.004 A 
HETATM   21  C   UNL     1      42.343 -12.180   2.768  1.00  0.00     0.016 A 
HETATM   22  C   UNL     1      42.010 -11.105   1.933  1.00  0.00     0.037 A 
HETATM   23  C   UNL     1      41.314 -11.332   0.750  1.00  0.00     0.068 A 
HETATM   24  C   UNL     1      40.946 -12.637   0.428  1.00  0.00     0.037 A 
HETATM   25  C   UNL     1      41.297 -13.714   1.257  1.00  0.00     0.016 A 
BRANCH  23  26
HETATM   26  O   UNL     1      40.934 -10.382  -0.156  1.00  0.00    -0.356 OA
HETATM   27  C   UNL     1      41.452 -10.519  -1.473  1.00  0.00     0.210 C 
ENDBRANCH  23  26
ENDBRANCH   1  20
BRANCH   3  28
HETATM   28  C   UNL     1      43.335 -18.002   3.565  1.00  0.00     0.058 A 
HETATM   29  C   UNL     1      43.072 -18.558   2.304  1.00  0.00     0.031 A 
HETATM   30  C   UNL     1      43.377 -19.897   2.046  1.00  0.00     0.002 A 
HETATM   31  C   UNL     1      43.945 -20.688   3.042  1.00  0.00     0.000 A 
HETATM   32  C   UNL     1      44.212 -20.143   4.296  1.00  0.00     0.002 A 
HETATM   33  C   UNL     1      43.910 -18.804   4.562  1.00  0.00     0.031 A 
ENDBRANCH   3  28
TORSDOF 6
ENDMDL
MODEL 3
REMARK VINA RESULT:      -9.1      2.455      8.073
REMARK  6 active torsions:
REMARK  status: ('A' for Active; 'I' for Inactive)
REMARK    1  A    between atoms: O_2  and  C_3 
REMARK    2  A    between atoms: C_6  and  C_7 
REMARK    3  A    between atoms: N_9  and  C_10 
REMARK    4  A    between atoms: C_17  and  C_18 
REMARK       I    between atoms: C_18  and  N_19 
REMARK    5  A    between atoms: N_19  and  N_20 
REMARK       I    between atoms: N_20  and  C_21 
REMARK    6  A    between atoms: C_21  and  C_22 
ROOT
HETATM    1  C   UNL     1      42.913 -14.835   3.995  1.00  0.00     0.105 A 
HETATM    2  N   UNL     1      43.407 -16.045   4.325  1.00  0.00    -0.166 NA
HETATM    3  N   UNL     1      42.990 -16.910   3.381  1.00  0.00    -0.244 N 
HETATM    4  C   UNL     1      42.229 -16.277   2.435  1.00  0.00     0.138 A 
HETATM    5  C   UNL     1      42.146 -14.940   2.791  1.00  0.00     0.082 A 
ENDROOT
BRANCH   5   6
HETATM    6  C   UNL     1      41.399 -13.954   2.032  1.00  0.00     0.274 C 
HETATM    7  N   UNL     1      41.620 -14.029   0.671  1.00  0.00    -0.263 N 
HETATM    8  H   UNL     1      42.315 -14.647   0.253  1.00  0.00     0.190 HD
HETATM    9  O   UNL     1      40.636 -13.133   2.530  1.00  0.00    -0.266 OA
BRANCH   7  10
HETATM   10  N   UNL     1      41.019 -13.100  -0.184  1.00  0.00    -0.262 N 
HETATM   11  C   UNL     1      39.924 -13.503  -0.919  1.00  0.00     0.286 C 
HETATM   12  O   UNL     1      39.493 -14.654  -0.852  1.00  0.00    -0.264 OA
HETATM   13  H   UNL     1      41.378 -12.150  -0.171  1.00  0.00     0.190 HD
BRANCH  11  14
HETATM   14  C   UNL     1      39.321 -12.494  -1.758  1.00  0.00     0.102 A 
HETATM   15  N   UNL     1      37.953 -12.315  -1.791  1.00  0.00    -0.361 N 
HETATM   16  H   UNL     1      37.302 -12.865  -1.243  1.00  0.00     0.165 HD
HETATM   17  C   UNL     1      37.625 -11.305  -2.654  1.00  0.00     0.088 A 
HETATM   18  C   UNL     1      38.791 -10.821  -3.197  1.00  0.00     0.019 A 
HETATM   19  C   UNL     1      39.859 -11.566  -2.638  1.00  0.00     0.036 A 
ENDBRANCH  11  14
ENDBRANCH   7  10
ENDBRANCH   5   6
BRANCH   1  20
HETATM   20  C   UNL     1      43.269 -13.676   4.842  1.00  0.00    -0.004 A 
HETATM   21  C   UNL     1      43.410 -13.852   6.233  1.00  0.00     0.016 A 
HETATM   22  C   UNL     1      43.795 -12.803   7.079  1.00  0.00     0.037 A 
HETATM   23  C   UNL     1      44.045 -11.541   6.552  1.00  0.00     0.068 A 
HETATM   24  C   UNL     1      43.891 -11.343   5.182  1.00  0.00     0.037 A 
HETATM   25  C   UNL     1      43.524 -12.399   4.334  1.00  0.00     0.016 A 
BRANCH  23  26
HETATM   26  O   UNL     1      44.433 -10.436   7.258  1.00  0.00    -0.356 OA
HETATM   27  C   UNL     1      45.815 -10.343   7.580  1.00  0.00     0.210 C 
ENDBRANCH  23  26
ENDBRANCH   1  20
BRANCH   3  28
HETATM   28  C   UNL     1      43.360 -18.283   3.431  1.00  0.00     0.058 A 
HETATM   29  C   UNL     1      43.209 -19.080   2.286  1.00  0.00     0.031 A 
HETATM   30  C   UNL     1      43.555 -20.433   2.318  1.00  0.00     0.002 A 
HETATM   31  C   UNL     1      44.053 -21.000   3.489  1.00  0.00     0.000 A 
HETATM   32  C   UNL     1      44.208 -20.215   4.630  1.00  0.00     0.002 A 
HETATM   33  C   UNL     1      43.864 -18.860   4.607  1.00  0.00     0.031 A 
ENDBRANCH   3  28
TORSDOF 6
ENDMDL
MODEL 4
REMARK VINA RESULT:      -8.4      1.218      1.660
REMARK  6 active torsions:
REMARK  status: ('A' for Active; 'I' for Inactive)
REMARK    1  A    between atoms: O_2  and  C_3 
REMARK    2  A    between atoms: C_6  and  C_7 
REMARK    3  A    between atoms: N_9  and  C_10 
REMARK    4  A    between atoms: C_17  and  C_18 
REMARK       I    between atoms: C_18  and  N_19 
REMARK    5  A    between atoms: N_19  and  N_20 
REMARK       I    between atoms: N_20  and  C_21 
REMARK    6  A    between atoms: C_21  and  C_22 
ROOT
HETATM    1  C   UNL     1      41.675 -15.155   2.524  1.00  0.00     0.105 A 
HETATM    2  N   UNL     1      41.401 -15.165   1.205  1.00  0.00    -0.166 NA
HETATM    3  N   UNL     1      40.740 -14.023   0.934  1.00  0.00    -0.244 N 
HETATM    4  C   UNL     1      40.581 -13.267   2.064  1.00  0.00     0.138 A 
HETATM    5  C   UNL     1      41.162 -13.957   3.115  1.00  0.00     0.082 A 
ENDROOT
BRANCH   5   6
HETATM    6  C   UNL     1      41.173 -13.473   4.483  1.00  0.00     0.274 C 
HETATM    7  N   UNL     1      41.990 -12.376   4.668  1.00  0.00    -0.263 N 
HETATM    8  H   UNL     1      42.601 -12.008   3.941  1.00  0.00     0.190 HD
HETATM    9  O   UNL     1      40.521 -13.970   5.396  1.00  0.00    -0.266 OA
BRANCH   7  10
HETATM   10  N   UNL     1      42.153 -11.838   5.948  1.00  0.00    -0.262 N 
HETATM   11  C   UNL     1      42.194 -10.465   6.080  1.00  0.00     0.286 C 
HETATM   12  O   UNL     1      42.116  -9.724   5.100  1.00  0.00    -0.264 OA
HETATM   13  H   UNL     1      42.165 -12.485   6.731  1.00  0.00     0.190 HD
BRANCH  11  14
HETATM   14  C   UNL     1      42.328  -9.964   7.427  1.00  0.00     0.102 A 
HETATM   15  N   UNL     1      43.222 -10.528   8.315  1.00  0.00    -0.361 N 
HETATM   16  H   UNL     1      43.825 -11.309   8.084  1.00  0.00     0.165 HD
HETATM   17  C   UNL     1      43.168  -9.883   9.521  1.00  0.00     0.088 A 
HETATM   18  C   UNL     1      42.223  -8.889   9.423  1.00  0.00     0.019 A 
HETATM   19  C   UNL     1      41.692  -8.937   8.110  1.00  0.00     0.036 A 
ENDBRANCH  11  14
ENDBRANCH   7  10
ENDBRANCH   5   6
BRANCH   1  20
HETATM   20  C   UNL     1      42.455 -16.280   3.087  1.00  0.00    -0.004 A 
HETATM   21  C   UNL     1      42.547 -17.488   2.368  1.00  0.00     0.016 A 
HETATM   22  C   UNL     1      43.313 -18.569   2.826  1.00  0.00     0.037 A 
HETATM   23  C   UNL     1      44.007 -18.470   4.027  1.00  0.00     0.068 A 
HETATM   24  C   UNL     1      43.911 -17.290   4.761  1.00  0.00     0.037 A 
HETATM   25  C   UNL     1      43.160 -16.202   4.292  1.00  0.00     0.016 A 
BRANCH  23  26
HETATM   26  O   UNL     1      44.793 -19.439   4.584  1.00  0.00    -0.356 OA
HETATM   27  C   UNL     1      44.117 -20.527   5.202  1.00  0.00     0.210 C 
ENDBRANCH  23  26
ENDBRANCH   1  20
BRANCH   3  28
HETATM   28  C   UNL     1      40.317 -13.718  -0.391  1.00  0.00     0.058 A 
HETATM   29  C   UNL     1      39.497 -14.626  -1.078  1.00  0.00     0.031 A 
HETATM   30  C   UNL     1      39.079 -14.351  -2.382  1.00  0.00     0.002 A 
HETATM   31  C   UNL     1      39.476 -13.172  -3.009  1.00  0.00     0.000 A 
HETATM   32  C   UNL     1      40.289 -12.264  -2.333  1.00  0.00     0.002 A 
HETATM   33  C   UNL     1      40.711 -12.532  -1.027  1.00  0.00     0.031 A 
ENDBRANCH   3  28
TORSDOF 6
ENDMDL
MODEL 5
REMARK VINA RESULT:      -8.0      3.030      7.539
REMARK  6 active torsions:
REMARK  status: ('A' for Active; 'I' for Inactive)
REMARK    1  A    between atoms: O_2  and  C_3 
REMARK    2  A    between atoms: C_6  and  C_7 
REMARK    3  A    between atoms: N_9  and  C_10 
REMARK    4  A    between atoms: C_17  and  C_18 
REMARK       I    between atoms: C_18  and  N_19 
REMARK    5  A    between atoms: N_19  and  N_20 
REMARK       I    between atoms: N_20  and  C_21 
REMARK    6  A    between atoms: C_21  and  C_22 
ROOT
HETATM    1  C   UNL     1      42.536 -14.878   3.599  1.00  0.00     0.105 A 
HETATM    2  N   UNL     1      43.105 -16.033   3.998  1.00  0.00    -0.166 NA
HETATM    3  N   UNL     1      42.766 -16.970   3.092  1.00  0.00    -0.244 N 
HETATM    4  C   UNL     1      41.982 -16.438   2.104  1.00  0.00     0.138 A 
HETATM    5  C   UNL     1      41.801 -15.094   2.390  1.00  0.00     0.082 A 
ENDROOT
BRANCH   5   6
HETATM    6  C   UNL     1      41.004 -14.201   1.571  1.00  0.00     0.274 C 
HETATM    7  N   UNL     1      41.753 -13.473   0.667  1.00  0.00    -0.263 N 
HETATM    8  H   UNL     1      42.772 -13.488   0.649  1.00  0.00     0.190 HD
HETATM    9  O   UNL     1      39.785 -14.094   1.651  1.00  0.00    -0.266 OA
BRANCH   7  10
HETATM   10  N   UNL     1      41.130 -12.522  -0.147  1.00  0.00    -0.262 N 
HETATM   11  C   UNL     1      41.315 -11.188   0.149  1.00  0.00     0.286 C 
HETATM   12  O   UNL     1      41.989 -10.832   1.116  1.00  0.00    -0.264 OA
HETATM   13  H   UNL     1      40.624 -12.861  -0.960  1.00  0.00     0.190 HD
BRANCH  11  14
HETATM   14  C   UNL     1      40.678 -10.249  -0.745  1.00  0.00     0.102 A 
HETATM   15  N   UNL     1      39.321 -10.307  -0.994  1.00  0.00    -0.361 N 
HETATM   16  H   UNL     1      38.703 -10.993  -0.577  1.00  0.00     0.165 HD
HETATM   17  C   UNL     1      38.954  -9.318  -1.866  1.00  0.00     0.088 A 
HETATM   18  C   UNL     1      40.085  -8.609  -2.196  1.00  0.00     0.019 A 
HETATM   19  C   UNL     1      41.169  -9.191  -1.495  1.00  0.00     0.036 A 
ENDBRANCH  11  14
ENDBRANCH   7  10
ENDBRANCH   5   6
BRANCH   1  20
HETATM   20  C   UNL     1      42.797 -13.656   4.392  1.00  0.00    -0.004 A 
HETATM   21  C   UNL     1      43.400 -12.544   3.773  1.00  0.00     0.016 A 
HETATM   22  C   UNL     1      43.626 -11.343   4.460  1.00  0.00     0.037 A 
HETATM   23  C   UNL     1      43.255 -11.226   5.795  1.00  0.00     0.068 A 
HETATM   24  C   UNL     1      42.676 -12.322   6.430  1.00  0.00     0.037 A 
HETATM   25  C   UNL     1      42.434 -13.517   5.735  1.00  0.00     0.016 A 
BRANCH  23  26
HETATM   26  O   UNL     1      43.409 -10.116   6.579  1.00  0.00    -0.356 OA
HETATM   27  C   UNL     1      42.216  -9.457   6.984  1.00  0.00     0.210 C 
ENDBRANCH  23  26
ENDBRANCH   1  20
BRANCH   3  28
HETATM   28  C   UNL     1      43.226 -18.311   3.218  1.00  0.00     0.058 A 
HETATM   29  C   UNL     1      43.793 -18.733   4.430  1.00  0.00     0.031 A 
HETATM   30  C   UNL     1      44.261 -20.042   4.572  1.00  0.00     0.002 A 
HETATM   31  C   UNL     1      44.167 -20.936   3.508  1.00  0.00     0.000 A 
HETATM   32  C   UNL     1      43.603 -20.526   2.302  1.00  0.00     0.002 A 
HETATM   33  C   UNL     1      43.132 -19.217   2.152  1.00  0.00     0.031 A 
ENDBRANCH   3  28
TORSDOF 6
ENDMDL
MODEL 6
REMARK VINA RESULT:      -8.0      2.845      8.342
REMARK  6 active torsions:
REMARK  status: ('A' for Active; 'I' for Inactive)
REMARK    1  A    between atoms: O_2  and  C_3 
REMARK    2  A    between atoms: C_6  and  C_7 
REMARK    3  A    between atoms: N_9  and  C_10 
REMARK    4  A    between atoms: C_17  and  C_18 
REMARK       I    between atoms: C_18  and  N_19 
REMARK    5  A    between atoms: N_19  and  N_20 
REMARK       I    between atoms: N_20  and  C_21 
REMARK    6  A    between atoms: C_21  and  C_22 
ROOT
HETATM    1  C   UNL     1      42.273 -13.903   3.739  1.00  0.00     0.105 A 
HETATM    2  N   UNL     1      42.826 -15.078   4.097  1.00  0.00    -0.166 NA
HETATM    3  N   UNL     1      42.609 -15.939   3.084  1.00  0.00    -0.244 N 
HETATM    4  C   UNL     1      41.919 -15.336   2.066  1.00  0.00     0.138 A 
HETATM    5  C   UNL     1      41.675 -14.026   2.444  1.00  0.00     0.082 A 
ENDROOT
BRANCH   5   6
HETATM    6  C   UNL     1      40.945 -13.078   1.623  1.00  0.00     0.274 C 
HETATM    7  N   UNL     1      39.648 -13.471   1.355  1.00  0.00    -0.263 N 
HETATM    8  H   UNL     1      39.277 -14.381   1.622  1.00  0.00     0.190 HD
HETATM    9  O   UNL     1      41.412 -12.023   1.205  1.00  0.00    -0.266 OA
BRANCH   7  10
HETATM   10  N   UNL     1      38.843 -12.689   0.522  1.00  0.00    -0.262 N 
HETATM   11  C   UNL     1      38.786 -13.009  -0.818  1.00  0.00     0.286 C 
HETATM   12  O   UNL     1      39.442 -13.941  -1.285  1.00  0.00    -0.264 OA
HETATM   13  H   UNL     1      38.284 -11.962   0.958  1.00  0.00     0.190 HD
BRANCH  11  14
HETATM   14  C   UNL     1      37.912 -12.191  -1.626  1.00  0.00     0.102 A 
HETATM   15  N   UNL     1      37.847 -10.824  -1.450  1.00  0.00    -0.361 N 
HETATM   16  H   UNL     1      38.394 -10.320  -0.762  1.00  0.00     0.165 HD
HETATM   17  C   UNL     1      36.955 -10.272  -2.329  1.00  0.00     0.088 A 
HETATM   18  C   UNL     1      36.425 -11.291  -3.084  1.00  0.00     0.019 A 
HETATM   19  C   UNL     1      37.022 -12.498  -2.645  1.00  0.00     0.036 A 
ENDBRANCH  11  14
ENDBRANCH   7  10
ENDBRANCH   5   6
BRANCH   1  20
HETATM   20  C   UNL     1      42.417 -12.751   4.656  1.00  0.00    -0.004 A 
HETATM   21  C   UNL     1      41.271 -12.205   5.268  1.00  0.00     0.016 A 
HETATM   22  C   UNL     1      41.351 -11.147   6.185  1.00  0.00     0.037 A 
HETATM   23  C   UNL     1      42.588 -10.600   6.509  1.00  0.00     0.068 A 
HETATM   24  C   UNL     1      43.730 -11.113   5.897  1.00  0.00     0.037 A 
HETATM   25  C   UNL     1      43.649 -12.185   4.995  1.00  0.00     0.016 A 
BRANCH  23  26
HETATM   26  O   UNL     1      42.810  -9.577   7.387  1.00  0.00    -0.356 OA
HETATM   27  C   UNL     1      42.054  -8.391   7.183  1.00  0.00     0.210 C 
ENDBRANCH  23  26
ENDBRANCH   1  20
BRANCH   3  28
HETATM   28  C   UNL     1      43.088 -17.277   3.145  1.00  0.00     0.058 A 
HETATM   29  C   UNL     1      42.692 -18.196   2.161  1.00  0.00     0.031 A 
HETATM   30  C   UNL     1      43.142 -19.518   2.208  1.00  0.00     0.002 A 
HETATM   31  C   UNL     1      43.989 -19.931   3.235  1.00  0.00     0.000 A 
HETATM   32  C   UNL     1      44.388 -19.025   4.215  1.00  0.00     0.002 A 
HETATM   33  C   UNL     1      43.942 -17.700   4.174  1.00  0.00     0.031 A 
ENDBRANCH   3  28
TORSDOF 6
ENDMDL
MODEL 7
REMARK VINA RESULT:      -7.9      3.039      7.870
REMARK  6 active torsions:
REMARK  status: ('A' for Active; 'I' for Inactive)
REMARK    1  A    between atoms: O_2  and  C_3 
REMARK    2  A    between atoms: C_6  and  C_7 
REMARK    3  A    between atoms: N_9  and  C_10 
REMARK    4  A    between atoms: C_17  and  C_18 
REMARK       I    between atoms: C_18  and  N_19 
REMARK    5  A    between atoms: N_19  and  N_20 
REMARK       I    between atoms: N_20  and  C_21 
REMARK    6  A    between atoms: C_21  and  C_22 
ROOT
HETATM    1  C   UNL     1      42.133 -14.389   3.536  1.00  0.00     0.105 A 
HETATM    2  N   UNL     1      42.705 -15.529   3.970  1.00  0.00    -0.166 NA
HETATM    3  N   UNL     1      42.535 -16.447   3.000  1.00  0.00    -0.244 N 
HETATM    4  C   UNL     1      41.858 -15.917   1.935  1.00  0.00     0.138 A 
HETATM    5  C   UNL     1      41.572 -14.595   2.236  1.00  0.00     0.082 A 
ENDROOT
BRANCH   5   6
HETATM    6  C   UNL     1      40.841 -13.710   1.347  1.00  0.00     0.274 C 
HETATM    7  N   UNL     1      39.512 -13.565   1.692  1.00  0.00    -0.263 N 
HETATM    8  H   UNL     1      39.067 -14.105   2.433  1.00  0.00     0.190 HD
HETATM    9  O   UNL     1      41.338 -13.132   0.386  1.00  0.00    -0.266 OA
BRANCH   7  10
HETATM   10  N   UNL     1      38.666 -12.794   0.890  1.00  0.00    -0.262 N 
HETATM   11  C   UNL     1      38.202 -11.596   1.392  1.00  0.00     0.286 C 
HETATM   12  O   UNL     1      38.498 -11.218   2.526  1.00  0.00    -0.264 OA
HETATM   13  H   UNL     1      38.487 -13.123  -0.055  1.00  0.00     0.190 HD
BRANCH  11  14
HETATM   14  C   UNL     1      37.360 -10.824   0.508  1.00  0.00     0.102 A 
HETATM   15  N   UNL     1      37.726 -10.588  -0.802  1.00  0.00    -0.361 N 
HETATM   16  H   UNL     1      38.584 -10.933  -1.216  1.00  0.00     0.165 HD
HETATM   17  C   UNL     1      36.771  -9.839  -1.435  1.00  0.00     0.088 A 
HETATM   18  C   UNL     1      35.773  -9.577  -0.527  1.00  0.00     0.019 A 
HETATM   19  C   UNL     1      36.140 -10.192   0.695  1.00  0.00     0.036 A 
ENDBRANCH  11  14
ENDBRANCH   7  10
ENDBRANCH   5   6
BRANCH   1  20
HETATM   20  C   UNL     1      42.225 -13.186   4.394  1.00  0.00    -0.004 A 
HETATM   21  C   UNL     1      43.392 -12.398   4.358  1.00  0.00     0.016 A 
HETATM   22  C   UNL     1      43.517 -11.221   5.110  1.00  0.00     0.037 A 
HETATM   23  C   UNL     1      42.471 -10.804   5.926  1.00  0.00     0.068 A 
HETATM   24  C   UNL     1      41.317 -11.582   5.990  1.00  0.00     0.037 A 
HETATM   25  C   UNL     1      41.187 -12.749   5.223  1.00  0.00     0.016 A 
BRANCH  23  26
HETATM   26  O   UNL     1      42.456  -9.679   6.702  1.00  0.00    -0.356 OA
HETATM   27  C   UNL     1      43.213  -9.727   7.904  1.00  0.00     0.210 C 
ENDBRANCH  23  26
ENDBRANCH   1  20
BRANCH   3  28
HETATM   28  C   UNL     1      43.044 -17.768   3.144  1.00  0.00     0.058 A 
HETATM   29  C   UNL     1      43.739 -18.115   4.312  1.00  0.00     0.031 A 
HETATM   30  C   UNL     1      44.256 -19.403   4.469  1.00  0.00     0.002 A 
HETATM   31  C   UNL     1      44.085 -20.352   3.464  1.00  0.00     0.000 A 
HETATM   32  C   UNL     1      43.394 -20.017   2.301  1.00  0.00     0.002 A 
HETATM   33  C   UNL     1      42.873 -18.729   2.137  1.00  0.00     0.031 A 
ENDBRANCH   3  28
TORSDOF 6
ENDMDL
MODEL 8
REMARK VINA RESULT:      -7.8      3.239      7.519
REMARK  6 active torsions:
REMARK  status: ('A' for Active; 'I' for Inactive)
REMARK    1  A    between atoms: O_2  and  C_3 
REMARK    2  A    between atoms: C_6  and  C_7 
REMARK    3  A    between atoms: N_9  and  C_10 
REMARK    4  A    between atoms: C_17  and  C_18 
REMARK       I    between atoms: C_18  and  N_19 
REMARK    5  A    between atoms: N_19  and  N_20 
REMARK       I    between atoms: N_20  and  C_21 
REMARK    6  A    between atoms: C_21  and  C_22 
ROOT
HETATM    1  C   UNL     1      42.940 -13.239   4.857  1.00  0.00     0.105 A 
HETATM    2  N   UNL     1      43.380 -14.509   4.964  1.00  0.00    -0.166 NA
HETATM    3  N   UNL     1      42.943 -15.168   3.874  1.00  0.00    -0.244 N 
HETATM    4  C   UNL     1      42.223 -14.340   3.055  1.00  0.00     0.138 A 
HETATM    5  C   UNL     1      42.188 -13.089   3.649  1.00  0.00     0.082 A 
ENDROOT
BRANCH   5   6
HETATM    6  C   UNL     1      41.494 -11.950   3.078  1.00  0.00     0.274 C 
HETATM    7  N   UNL     1      42.329 -11.086   2.396  1.00  0.00    -0.263 N 
HETATM    8  H   UNL     1      43.343 -11.187   2.383  1.00  0.00     0.190 HD
HETATM    9  O   UNL     1      40.286 -11.759   3.173  1.00  0.00    -0.266 OA
BRANCH   7  10
HETATM   10  N   UNL     1      41.813  -9.909   1.847  1.00  0.00    -0.262 N 
HETATM   11  C   UNL     1      41.441  -9.916   0.519  1.00  0.00     0.286 C 
HETATM   12  O   UNL     1      41.578 -10.920  -0.181  1.00  0.00    -0.264 OA
HETATM   13  H   UNL     1      41.673  -9.121   2.473  1.00  0.00     0.190 HD
BRANCH  11  14
HETATM   14  C   UNL     1      40.882  -8.684   0.013  1.00  0.00     0.102 A 
HETATM   15  N   UNL     1      41.431  -7.462   0.343  1.00  0.00    -0.361 N 
HETATM   16  H   UNL     1      42.240  -7.353   0.944  1.00  0.00     0.165 HD
HETATM   17  C   UNL     1      40.732  -6.449  -0.256  1.00  0.00     0.088 A 
HETATM   18  C   UNL     1      39.710  -7.014  -0.980  1.00  0.00     0.019 A 
HETATM   19  C   UNL     1      39.800  -8.419  -0.813  1.00  0.00     0.036 A 
ENDBRANCH  11  14
ENDBRANCH   7  10
ENDBRANCH   5   6
BRANCH   1  20
HETATM   20  C   UNL     1      43.330 -12.271   5.906  1.00  0.00    -0.004 A 
HETATM   21  C   UNL     1      44.607 -12.363   6.493  1.00  0.00     0.016 A 
HETATM   22  C   UNL     1      45.052 -11.444   7.454  1.00  0.00     0.037 A 
HETATM   23  C   UNL     1      44.220 -10.405   7.859  1.00  0.00     0.068 A 
HETATM   24  C   UNL     1      42.946 -10.310   7.304  1.00  0.00     0.037 A 
HETATM   25  C   UNL     1      42.510 -11.220   6.329  1.00  0.00     0.016 A 
BRANCH  23  26
HETATM   26  O   UNL     1      44.527  -9.439   8.776  1.00  0.00    -0.356 OA
HETATM   27  C   UNL     1      43.733  -8.260   8.744  1.00  0.00     0.210 C 
ENDBRANCH  23  26
ENDBRANCH   1  20
BRANCH   3  28
HETATM   28  C   UNL     1      43.255 -16.542   3.675  1.00  0.00     0.058 A 
HETATM   29  C   UNL     1      42.837 -17.180   2.498  1.00  0.00     0.031 A 
HETATM   30  C   UNL     1      43.123 -18.531   2.288  1.00  0.00     0.002 A 
HETATM   31  C   UNL     1      43.827 -19.254   3.248  1.00  0.00     0.000 A 
HETATM   32  C   UNL     1      44.248 -18.627   4.420  1.00  0.00     0.002 A 
HETATM   33  C   UNL     1      43.966 -17.275   4.637  1.00  0.00     0.031 A 
ENDBRANCH   3  28
TORSDOF 6
ENDMDL
MODEL 9
REMARK VINA RESULT:      -7.8      2.700      6.224
REMARK  6 active torsions:
REMARK  status: ('A' for Active; 'I' for Inactive)
REMARK    1  A    between atoms: O_2  and  C_3 
REMARK    2  A    between atoms: C_6  and  C_7 
REMARK    3  A    between atoms: N_9  and  C_10 
REMARK    4  A    between atoms: C_17  and  C_18 
REMARK       I    between atoms: C_18  and  N_19 
REMARK    5  A    between atoms: N_19  and  N_20 
REMARK       I    between atoms: N_20  and  C_21 
REMARK    6  A    between atoms: C_21  and  C_22 
ROOT
HETATM    1  C   UNL     1      41.041 -14.165   3.392  1.00  0.00     0.105 A 
HETATM    2  N   UNL     1      41.575 -15.277   2.849  1.00  0.00    -0.166 NA
HETATM    3  N   UNL     1      42.163 -15.959   3.852  1.00  0.00    -0.244 N 
HETATM    4  C   UNL     1      42.017 -15.303   5.044  1.00  0.00     0.138 A 
HETATM    5  C   UNL     1      41.306 -14.139   4.798  1.00  0.00     0.082 A 
ENDROOT
BRANCH   5   6
HETATM    6  C   UNL     1      40.973 -13.170   5.826  1.00  0.00     0.274 C 
HETATM    7  N   UNL     1      41.980 -12.255   6.062  1.00  0.00    -0.263 N 
HETATM    8  H   UNL     1      42.901 -12.318   5.630  1.00  0.00     0.190 HD
HETATM    9  O   UNL     1      39.906 -13.144   6.430  1.00  0.00    -0.266 OA
BRANCH   7  10
HETATM   10  N   UNL     1      41.829 -11.300   7.071  1.00  0.00    -0.262 N 
HETATM   11  C   UNL     1      41.995  -9.971   6.742  1.00  0.00     0.286 C 
HETATM   12  O   UNL     1      42.292  -9.624   5.598  1.00  0.00    -0.264 OA
HETATM   13  H   UNL     1      41.537 -11.627   7.987  1.00  0.00     0.190 HD
BRANCH  11  14
HETATM   14  C   UNL     1      41.793  -9.025   7.814  1.00  0.00     0.102 A 
HETATM   15  N   UNL     1      41.401  -9.441   9.071  1.00  0.00    -0.361 N 
HETATM   16  H   UNL     1      41.235 -10.411   9.314  1.00  0.00     0.165 HD
HETATM   17  C   UNL     1      41.279  -8.368   9.912  1.00  0.00     0.088 A 
HETATM   18  C   UNL     1      41.587  -7.236   9.196  1.00  0.00     0.019 A 
HETATM   19  C   UNL     1      41.909  -7.644   7.877  1.00  0.00     0.036 A 
ENDBRANCH  11  14
ENDBRANCH   7  10
ENDBRANCH   5   6
BRANCH   1  20
HETATM   20  C   UNL     1      40.277 -13.253   2.512  1.00  0.00    -0.004 A 
HETATM   21  C   UNL     1      40.774 -12.949   1.230  1.00  0.00     0.016 A 
HETATM   22  C   UNL     1      40.070 -12.133   0.334  1.00  0.00     0.037 A 
HETATM   23  C   UNL     1      38.844 -11.591   0.704  1.00  0.00     0.068 A 
HETATM   24  C   UNL     1      38.346 -11.865   1.976  1.00  0.00     0.037 A 
HETATM   25  C   UNL     1      39.044 -12.697   2.864  1.00  0.00     0.016 A 
BRANCH  23  26
HETATM   26  O   UNL     1      38.052 -10.790  -0.070  1.00  0.00    -0.356 OA
HETATM   27  C   UNL     1      36.775 -10.459   0.461  1.00  0.00     0.210 C 
ENDBRANCH  23  26
ENDBRANCH   1  20
BRANCH   3  28
HETATM   28  C   UNL     1      42.812 -17.202   3.610  1.00  0.00     0.058 A 
HETATM   29  C   UNL     1      42.555 -17.893   2.416  1.00  0.00     0.031 A 
HETATM   30  C   UNL     1      43.174 -19.120   2.164  1.00  0.00     0.002 A 
HETATM   31  C   UNL     1      44.052 -19.664   3.099  1.00  0.00     0.000 A 
HETATM   32  C   UNL     1      44.314 -18.984   4.286  1.00  0.00     0.002 A 
HETATM   33  C   UNL     1      43.699 -17.755   4.545  1.00  0.00     0.031 A 
ENDBRANCH   3  28
TORSDOF 6
ENDMDL
MODEL 10
REMARK VINA RESULT:      -7.8      2.752      3.310
REMARK  6 active torsions:
REMARK  status: ('A' for Active; 'I' for Inactive)
REMARK    1  A    between atoms: O_2  and  C_3 
REMARK    2  A    between atoms: C_6  and  C_7 
REMARK    3  A    between atoms: N_9  and  C_10 
REMARK    4  A    between atoms: C_17  and  C_18 
REMARK       I    between atoms: C_18  and  N_19 
REMARK    5  A    between atoms: N_19  and  N_20 
REMARK       I    between atoms: N_20  and  C_21 
REMARK    6  A    between atoms: C_21  and  C_22 
ROOT
HETATM    1  C   UNL     1      40.835 -14.057   2.973  1.00  0.00     0.105 A 
HETATM    2  N   UNL     1      40.379 -14.415   1.756  1.00  0.00    -0.166 NA
HETATM    3  N   UNL     1      39.895 -13.301   1.176  1.00  0.00    -0.244 N 
HETATM    4  C   UNL     1      40.032 -12.217   2.001  1.00  0.00     0.138 A 
HETATM    5  C   UNL     1      40.627 -12.655   3.173  1.00  0.00     0.082 A 
ENDROOT
BRANCH   5   6
HETATM    6  C   UNL     1      40.916 -11.787   4.299  1.00  0.00     0.274 C 
HETATM    7  N   UNL     1      40.212 -12.119   5.440  1.00  0.00    -0.263 N 
HETATM    8  H   UNL     1      39.489 -12.836   5.459  1.00  0.00     0.190 HD
HETATM    9  O   UNL     1      41.708 -10.851   4.264  1.00  0.00    -0.266 OA
BRANCH   7  10
HETATM   10  N   UNL     1      40.338 -11.331   6.588  1.00  0.00    -0.262 N 
HETATM   11  C   UNL     1      39.236 -10.622   7.018  1.00  0.00     0.286 C 
HETATM   12  O   UNL     1      38.171 -10.655   6.401  1.00  0.00    -0.264 OA
HETATM   13  H   UNL     1      41.220 -11.373   7.091  1.00  0.00     0.190 HD
BRANCH  11  14
HETATM   14  C   UNL     1      39.411  -9.854   8.228  1.00  0.00     0.102 A 
HETATM   15  N   UNL     1      40.167  -8.699   8.238  1.00  0.00    -0.361 N 
HETATM   16  H   UNL     1      40.634  -8.326   7.419  1.00  0.00     0.165 HD
HETATM   17  C   UNL     1      40.183  -8.151   9.492  1.00  0.00     0.088 A 
HETATM   18  C   UNL     1      39.436  -8.960  10.314  1.00  0.00     0.019 A 
HETATM   19  C   UNL     1      38.950 -10.032   9.524  1.00  0.00     0.036 A 
ENDBRANCH  11  14
ENDBRANCH   7  10
ENDBRANCH   5   6
BRANCH   1  20
HETATM   20  C   UNL     1      41.479 -15.091   3.813  1.00  0.00    -0.004 A 
HETATM   21  C   UNL     1      42.778 -15.533   3.494  1.00  0.00     0.016 A 
HETATM   22  C   UNL     1      43.458 -16.472   4.282  1.00  0.00     0.037 A 
HETATM   23  C   UNL     1      42.848 -17.001   5.414  1.00  0.00     0.068 A 
HETATM   24  C   UNL     1      41.555 -16.591   5.734  1.00  0.00     0.037 A 
HETATM   25  C   UNL     1      40.884 -15.637   4.955  1.00  0.00     0.016 A 
BRANCH  23  26
HETATM   26  O   UNL     1      43.396 -17.913   6.272  1.00  0.00    -0.356 OA
HETATM   27  C   UNL     1      43.753 -19.172   5.715  1.00  0.00     0.210 C 
ENDBRANCH  23  26
ENDBRANCH   1  20
BRANCH   3  28
HETATM   28  C   UNL     1      39.348 -13.337  -0.138  1.00  0.00     0.058 A 
HETATM   29  C   UNL     1      38.546 -12.274  -0.580  1.00  0.00     0.031 A 
HETATM   30  C   UNL     1      37.991 -12.296  -1.862  1.00  0.00     0.002 A 
HETATM   31  C   UNL     1      38.231 -13.375  -2.709  1.00  0.00     0.000 A 
HETATM   32  C   UNL     1      39.028 -14.434  -2.279  1.00  0.00     0.002 A 
HETATM   33  C   UNL     1      39.588 -14.419  -0.997  1.00  0.00     0.031 A 
ENDBRANCH   3  28
TORSDOF 6
ENDMDL
