MODEL 1
REMARK VINA RESULT:     -10.0      0.000      0.000
REMARK  6 active torsions:
REMARK  status: ('A' for Active; 'I' for Inactive)
REMARK    1  A    between atoms: C_4  and  C_5 
REMARK    2  A    between atoms: C_8  and  C_9 
REMARK    3  A    between atoms: C_9  and  C_10 
REMARK       I    between atoms: C_10  and  N_11 
REMARK    4  A    between atoms: N_11  and  C_12 
REMARK    5  A    between atoms: N_13  and  C_14 
REMARK    6  A    between atoms: C_25  and  C_26 
ROOT
HETATM    1  C   UNL     1      41.973 -10.496   4.588  1.00  0.00     0.152 A 
HETATM    2  N   UNL     1      42.007 -11.205   5.781  1.00  0.00    -0.044 N 
HETATM    3  N   UNL     1      41.916 -10.390   6.876  1.00  0.00    -0.148 NA
HETATM    4  C   UNL     1      41.821  -9.160   6.354  1.00  0.00     0.115 A 
HETATM    5  C   UNL     1      41.885  -9.170   4.947  1.00  0.00     0.087 A 
ENDROOT
BRANCH   1   6
HETATM    6  N   UNL     1      41.994 -11.120   3.348  1.00  0.00    -0.311 N 
HETATM    7  C   UNL     1      40.997 -11.980   2.922  1.00  0.00     0.227 C 
HETATM    8  O   UNL     1      39.909 -12.144   3.472  1.00  0.00    -0.273 OA
HETATM    9  H   UNL     1      42.806 -10.952   2.753  1.00  0.00     0.170 HD
BRANCH   7  10
HETATM   10  C   UNL     1      41.389 -12.789   1.694  1.00  0.00     0.141 C 
BRANCH  10  11
HETATM   11  C   UNL     1      41.850 -14.185   2.045  1.00  0.00    -0.049 A 
HETATM   12  C   UNL     1      43.202 -14.542   1.953  1.00  0.00     0.008 A 
HETATM   13  C   UNL     1      43.625 -15.836   2.265  1.00  0.00     0.013 A 
HETATM   14  C   UNL     1      42.718 -16.814   2.704  1.00  0.00    -0.026 A 
HETATM   15  C   UNL     1      41.370 -16.437   2.829  1.00  0.00     0.013 A 
HETATM   16  C   UNL     1      40.941 -15.142   2.507  1.00  0.00     0.008 A 
BRANCH  14  17
HETATM   17  C   UNL     1      43.172 -18.184   3.013  1.00  0.00    -0.026 A 
HETATM   18  C   UNL     1      43.866 -18.471   4.202  1.00  0.00     0.012 A 
HETATM   19  C   UNL     1      44.321 -19.763   4.485  1.00  0.00     0.001 A 
HETATM   20  C   UNL     1      44.083 -20.797   3.584  1.00  0.00     0.000 A 
HETATM   21  C   UNL     1      43.393 -20.539   2.403  1.00  0.00     0.001 A 
HETATM   22  C   UNL     1      42.943 -19.246   2.122  1.00  0.00     0.012 A 
ENDBRANCH  14  17
ENDBRANCH  10  11
ENDBRANCH   7  10
ENDBRANCH   1   6
BRANCH   2  23
HETATM   23  C   UNL     1      42.129 -12.597   5.960  1.00  0.00     0.732 A 
HETATM   24  N   UNL     1      43.267 -13.226   5.936  1.00  0.00    -0.067 NA
HETATM   25  C   UNL     1      43.162 -14.573   6.151  1.00  0.00     0.065 A 
HETATM   26  C   UNL     1      42.031 -15.246   6.376  1.00  0.00     0.036 A 
HETATM   27  C   UNL     1      44.342 -15.485   6.172  1.00  0.00     0.061 C 
HETATM   28  C   UNL     1      42.238 -16.695   6.595  1.00  0.00     0.047 C 
HETATM   29  C   UNL     1      40.762 -14.523   6.398  1.00  0.00     0.268 A 
HETATM   30  C   UNL     1      43.758 -16.763   6.790  1.00  0.00     0.011 C 
HETATM   31  O   UNL     1      39.690 -15.074   6.603  1.00  0.00    -0.267 OA
HETATM   32  N   UNL     1      40.900 -13.183   6.169  1.00  0.00    -0.152 N 
HETATM   33  H   UNL     1      40.070 -12.598   6.171  1.00  0.00     0.188 HD
ENDBRANCH   2  23
BRANCH   4  34
HETATM   34  C   UNL     1      41.643  -7.936   7.187  1.00  0.00     0.105 A 
HETATM   35  O   UNL     1      42.430  -6.820   7.096  1.00  0.00    -0.320 OA
HETATM   36  C   UNL     1      41.953  -5.914   7.987  1.00  0.00     0.142 A 
HETATM   37  C   UNL     1      40.868  -6.424   8.658  1.00  0.00     0.027 A 
HETATM   38  C   UNL     1      40.669  -7.730   8.145  1.00  0.00     0.041 A 
ENDBRANCH   4  34
TORSDOF 6
ENDMDL
MODEL 2
REMARK VINA RESULT:      -9.8      3.490      5.714
REMARK  6 active torsions:
REMARK  status: ('A' for Active; 'I' for Inactive)
REMARK    1  A    between atoms: C_4  and  C_5 
REMARK    2  A    between atoms: C_8  and  C_9 
REMARK    3  A    between atoms: C_9  and  C_10 
REMARK       I    between atoms: C_10  and  N_11 
REMARK    4  A    between atoms: N_11  and  C_12 
REMARK    5  A    between atoms: N_13  and  C_14 
REMARK    6  A    between atoms: C_25  and  C_26 
ROOT
HETATM    1  C   UNL     1      41.367 -11.504  -0.836  1.00  0.00     0.152 A 
HETATM    2  N   UNL     1      41.546 -10.753   0.318  1.00  0.00    -0.044 N 
HETATM    3  N   UNL     1      41.768  -9.430   0.051  1.00  0.00    -0.148 NA
HETATM    4  C   UNL     1      41.722  -9.360  -1.286  1.00  0.00     0.115 A 
HETATM    5  C   UNL     1      41.511 -10.619  -1.880  1.00  0.00     0.087 A 
ENDROOT
BRANCH   1   6
HETATM    6  N   UNL     1      41.073 -12.860  -0.806  1.00  0.00    -0.311 N 
HETATM    7  C   UNL     1      39.842 -13.353  -0.408  1.00  0.00     0.227 C 
HETATM    8  O   UNL     1      38.826 -12.685  -0.229  1.00  0.00    -0.273 OA
HETATM    9  H   UNL     1      41.820 -13.508  -1.057  1.00  0.00     0.170 HD
BRANCH   7  10
HETATM   10  C   UNL     1      39.857 -14.852  -0.140  1.00  0.00     0.141 C 
BRANCH  10  11
HETATM   11  C   UNL     1      40.538 -15.199   1.164  1.00  0.00    -0.049 A 
HETATM   12  C   UNL     1      39.805 -15.306   2.353  1.00  0.00     0.008 A 
HETATM   13  C   UNL     1      40.438 -15.615   3.560  1.00  0.00     0.013 A 
HETATM   14  C   UNL     1      41.820 -15.852   3.618  1.00  0.00    -0.026 A 
HETATM   15  C   UNL     1      42.541 -15.780   2.414  1.00  0.00     0.013 A 
HETATM   16  C   UNL     1      41.911 -15.460   1.204  1.00  0.00     0.008 A 
BRANCH  14  17
HETATM   17  C   UNL     1      42.483 -16.159   4.901  1.00  0.00    -0.026 A 
HETATM   18  C   UNL     1      41.784 -16.083   6.119  1.00  0.00     0.012 A 
HETATM   19  C   UNL     1      42.416 -16.347   7.338  1.00  0.00     0.001 A 
HETATM   20  C   UNL     1      43.762 -16.699   7.362  1.00  0.00     0.000 A 
HETATM   21  C   UNL     1      44.474 -16.787   6.170  1.00  0.00     0.001 A 
HETATM   22  C   UNL     1      43.840 -16.519   4.953  1.00  0.00     0.012 A 
ENDBRANCH  14  17
ENDBRANCH  10  11
ENDBRANCH   7  10
ENDBRANCH   1   6
BRANCH   2  23
HETATM   23  C   UNL     1      41.531 -11.199   1.654  1.00  0.00     0.732 A 
HETATM   24  N   UNL     1      42.565 -11.723   2.247  1.00  0.00    -0.067 NA
HETATM   25  C   UNL     1      42.340 -12.069   3.551  1.00  0.00     0.065 A 
HETATM   26  C   UNL     1      41.196 -11.910   4.220  1.00  0.00     0.036 A 
HETATM   27  C   UNL     1      43.388 -12.680   4.419  1.00  0.00     0.061 C 
HETATM   28  C   UNL     1      41.265 -12.362   5.627  1.00  0.00     0.047 C 
HETATM   29  C   UNL     1      40.046 -11.321   3.538  1.00  0.00     0.268 A 
HETATM   30  C   UNL     1      42.776 -12.541   5.820  1.00  0.00     0.011 C 
HETATM   31  O   UNL     1      38.970 -11.141   4.090  1.00  0.00    -0.267 OA
HETATM   32  N   UNL     1      40.299 -10.996   2.235  1.00  0.00    -0.152 N 
HETATM   33  H   UNL     1      39.559 -10.575   1.682  1.00  0.00     0.188 HD
ENDBRANCH   2  23
BRANCH   4  34
HETATM   34  C   UNL     1      41.858  -8.078  -2.036  1.00  0.00     0.105 A 
HETATM   35  O   UNL     1      40.812  -7.406  -2.609  1.00  0.00    -0.320 OA
HETATM   36  C   UNL     1      41.318  -6.281  -3.178  1.00  0.00     0.142 A 
HETATM   37  C   UNL     1      42.676  -6.212  -2.985  1.00  0.00     0.027 A 
HETATM   38  C   UNL     1      43.027  -7.372  -2.251  1.00  0.00     0.041 A 
ENDBRANCH   4  34
TORSDOF 6
ENDMDL
MODEL 3
REMARK VINA RESULT:      -9.6      3.502      9.108
REMARK  6 active torsions:
REMARK  status: ('A' for Active; 'I' for Inactive)
REMARK    1  A    between atoms: C_4  and  C_5 
REMARK    2  A    between atoms: C_8  and  C_9 
REMARK    3  A    between atoms: C_9  and  C_10 
REMARK       I    between atoms: C_10  and  N_11 
REMARK    4  A    between atoms: N_11  and  C_12 
REMARK    5  A    between atoms: N_13  and  C_14 
REMARK    6  A    between atoms: C_25  and  C_26 
ROOT
HETATM    1  C   UNL     1      43.074 -11.731   4.784  1.00  0.00     0.152 A 
HETATM    2  N   UNL     1      41.766 -11.516   5.195  1.00  0.00    -0.044 N 
HETATM    3  N   UNL     1      40.858 -12.181   4.417  1.00  0.00    -0.148 NA
HETATM    4  C   UNL     1      41.614 -12.819   3.515  1.00  0.00     0.115 A 
HETATM    5  C   UNL     1      42.987 -12.547   3.679  1.00  0.00     0.087 A 
ENDROOT
BRANCH   1   6
HETATM    6  N   UNL     1      44.165 -11.202   5.459  1.00  0.00    -0.311 N 
HETATM    7  C   UNL     1      44.829 -11.883   6.465  1.00  0.00     0.227 C 
HETATM    8  O   UNL     1      44.679 -13.070   6.747  1.00  0.00    -0.273 OA
HETATM    9  H   UNL     1      44.454 -10.254   5.215  1.00  0.00     0.170 HD
BRANCH   7  10
HETATM   10  C   UNL     1      45.763 -10.993   7.274  1.00  0.00     0.141 C 
BRANCH  10  11
HETATM   11  C   UNL     1      45.118 -10.480   8.542  1.00  0.00    -0.049 A 
HETATM   12  C   UNL     1      44.009 -11.129   9.100  1.00  0.00     0.008 A 
HETATM   13  C   UNL     1      43.407 -10.646  10.264  1.00  0.00     0.013 A 
HETATM   14  C   UNL     1      43.906  -9.514  10.928  1.00  0.00    -0.026 A 
HETATM   15  C   UNL     1      45.042  -8.892  10.382  1.00  0.00     0.013 A 
HETATM   16  C   UNL     1      45.642  -9.367   9.208  1.00  0.00     0.008 A 
BRANCH  14  17
HETATM   17  C   UNL     1      43.251  -9.000  12.147  1.00  0.00    -0.026 A 
HETATM   18  C   UNL     1      43.667  -7.797  12.746  1.00  0.00     0.012 A 
HETATM   19  C   UNL     1      43.066  -7.322  13.916  1.00  0.00     0.001 A 
HETATM   20  C   UNL     1      42.032  -8.040  14.508  1.00  0.00     0.000 A 
HETATM   21  C   UNL     1      41.599  -9.231  13.931  1.00  0.00     0.001 A 
HETATM   22  C   UNL     1      42.203  -9.705  12.763  1.00  0.00     0.012 A 
ENDBRANCH  14  17
ENDBRANCH  10  11
ENDBRANCH   7  10
ENDBRANCH   1   6
BRANCH   2  23
HETATM   23  C   UNL     1      41.312 -10.719   6.264  1.00  0.00     0.732 A 
HETATM   24  N   UNL     1      41.933  -9.654   6.679  1.00  0.00    -0.067 NA
HETATM   25  C   UNL     1      41.310  -9.017   7.717  1.00  0.00     0.065 A 
HETATM   26  C   UNL     1      40.169  -9.392   8.298  1.00  0.00     0.036 A 
HETATM   27  C   UNL     1      41.846  -7.773   8.343  1.00  0.00     0.061 C 
HETATM   28  C   UNL     1      39.731  -8.488   9.384  1.00  0.00     0.047 C 
HETATM   29  C   UNL     1      39.485 -10.592   7.819  1.00  0.00     0.268 A 
HETATM   30  C   UNL     1      40.649  -7.279   9.168  1.00  0.00     0.011 C 
HETATM   31  O   UNL     1      38.435 -10.990   8.300  1.00  0.00    -0.267 OA
HETATM   32  N   UNL     1      40.138 -11.210   6.790  1.00  0.00    -0.152 N 
HETATM   33  H   UNL     1      39.734 -12.051   6.389  1.00  0.00     0.188 HD
ENDBRANCH   2  23
BRANCH   4  34
HETATM   34  C   UNL     1      41.047 -13.730   2.479  1.00  0.00     0.105 A 
HETATM   35  O   UNL     1      41.045 -13.463   1.136  1.00  0.00    -0.320 OA
HETATM   36  C   UNL     1      40.471 -14.525   0.514  1.00  0.00     0.142 A 
HETATM   37  C   UNL     1      40.100 -15.478   1.431  1.00  0.00     0.027 A 
HETATM   38  C   UNL     1      40.469 -14.965   2.700  1.00  0.00     0.041 A 
ENDBRANCH   4  34
TORSDOF 6
ENDMDL
MODEL 4
REMARK VINA RESULT:      -9.2      3.565      9.434
REMARK  6 active torsions:
REMARK  status: ('A' for Active; 'I' for Inactive)
REMARK    1  A    between atoms: C_4  and  C_5 
REMARK    2  A    between atoms: C_8  and  C_9 
REMARK    3  A    between atoms: C_9  and  C_10 
REMARK       I    between atoms: C_10  and  N_11 
REMARK    4  A    between atoms: N_11  and  C_12 
REMARK    5  A    between atoms: N_13  and  C_14 
REMARK    6  A    between atoms: C_25  and  C_26 
ROOT
HETATM    1  C   UNL     1      43.954 -13.065   6.754  1.00  0.00     0.152 A 
HETATM    2  N   UNL     1      42.718 -13.109   6.123  1.00  0.00    -0.044 N 
HETATM    3  N   UNL     1      42.390 -14.369   5.704  1.00  0.00    -0.148 NA
HETATM    4  C   UNL     1      43.435 -15.116   6.084  1.00  0.00     0.115 A 
HETATM    5  C   UNL     1      44.441 -14.351   6.707  1.00  0.00     0.087 A 
ENDROOT
BRANCH   1   6
HETATM    6  N   UNL     1      44.466 -11.901   7.311  1.00  0.00    -0.311 N 
HETATM    7  C   UNL     1      45.262 -11.017   6.604  1.00  0.00     0.227 C 
HETATM    8  O   UNL     1      45.449 -11.034   5.389  1.00  0.00    -0.273 OA
HETATM    9  H   UNL     1      44.267 -11.726   8.297  1.00  0.00     0.170 HD
BRANCH   7  10
HETATM   10  C   UNL     1      45.969 -10.005   7.495  1.00  0.00     0.141 C 
BRANCH  10  11
HETATM   11  C   UNL     1      45.184  -9.689   8.748  1.00  0.00    -0.049 A 
HETATM   12  C   UNL     1      45.508 -10.290   9.972  1.00  0.00     0.008 A 
HETATM   13  C   UNL     1      44.773 -10.007  11.125  1.00  0.00     0.013 A 
HETATM   14  C   UNL     1      43.706  -9.095  11.105  1.00  0.00    -0.026 A 
HETATM   15  C   UNL     1      43.412  -8.469   9.882  1.00  0.00     0.013 A 
HETATM   16  C   UNL     1      44.141  -8.758   8.720  1.00  0.00     0.008 A 
BRANCH  14  17
HETATM   17  C   UNL     1      42.923  -8.816  12.326  1.00  0.00    -0.026 A 
HETATM   18  C   UNL     1      43.311  -7.807  13.226  1.00  0.00     0.012 A 
HETATM   19  C   UNL     1      42.587  -7.559  14.396  1.00  0.00     0.001 A 
HETATM   20  C   UNL     1      41.455  -8.315  14.687  1.00  0.00     0.000 A 
HETATM   21  C   UNL     1      41.048  -9.315  13.809  1.00  0.00     0.001 A 
HETATM   22  C   UNL     1      41.776  -9.563  12.642  1.00  0.00     0.012 A 
ENDBRANCH  14  17
ENDBRANCH  10  11
ENDBRANCH   7  10
ENDBRANCH   1   6
BRANCH   2  23
HETATM   23  C   UNL     1      41.830 -12.043   5.879  1.00  0.00     0.732 A 
HETATM   24  N   UNL     1      42.099 -11.054   5.078  1.00  0.00    -0.067 NA
HETATM   25  C   UNL     1      41.090 -10.137   4.970  1.00  0.00     0.065 A 
HETATM   26  C   UNL     1      39.911 -10.189   5.594  1.00  0.00     0.036 A 
HETATM   27  C   UNL     1      41.184  -8.928   4.101  1.00  0.00     0.061 C 
HETATM   28  C   UNL     1      39.014  -9.060   5.261  1.00  0.00     0.047 C 
HETATM   29  C   UNL     1      39.627 -11.307   6.491  1.00  0.00     0.268 A 
HETATM   30  C   UNL     1      39.726  -8.448   4.048  1.00  0.00     0.011 C 
HETATM   31  O   UNL     1      38.568 -11.421   7.091  1.00  0.00    -0.267 OA
HETATM   32  N   UNL     1      40.658 -12.199   6.585  1.00  0.00    -0.152 N 
HETATM   33  H   UNL     1      40.549 -13.012   7.183  1.00  0.00     0.188 HD
ENDBRANCH   2  23
BRANCH   4  34
HETATM   34  C   UNL     1      43.494 -16.593   5.882  1.00  0.00     0.105 A 
HETATM   35  O   UNL     1      43.866 -17.197   4.712  1.00  0.00    -0.320 OA
HETATM   36  C   UNL     1      43.821 -18.538   4.916  1.00  0.00     0.142 A 
HETATM   37  C   UNL     1      43.424 -18.816   6.202  1.00  0.00     0.027 A 
HETATM   38  C   UNL     1      43.210 -17.562   6.826  1.00  0.00     0.041 A 
ENDBRANCH   4  34
TORSDOF 6
ENDMDL
MODEL 5
REMARK VINA RESULT:      -9.0      6.892     10.498
REMARK  6 active torsions:
REMARK  status: ('A' for Active; 'I' for Inactive)
REMARK    1  A    between atoms: C_4  and  C_5 
REMARK    2  A    between atoms: C_8  and  C_9 
REMARK    3  A    between atoms: C_9  and  C_10 
REMARK       I    between atoms: C_10  and  N_11 
REMARK    4  A    between atoms: N_11  and  C_12 
REMARK    5  A    between atoms: N_13  and  C_14 
REMARK    6  A    between atoms: C_25  and  C_26 
ROOT
HETATM    1  C   UNL     1      38.910  -6.408  13.430  1.00  0.00     0.152 A 
HETATM    2  N   UNL     1      39.133  -5.821  12.192  1.00  0.00    -0.044 N 
HETATM    3  N   UNL     1      38.317  -4.746  11.969  1.00  0.00    -0.148 NA
HETATM    4  C   UNL     1      37.581  -4.665  13.085  1.00  0.00     0.115 A 
HETATM    5  C   UNL     1      37.887  -5.689  14.004  1.00  0.00     0.087 A 
ENDROOT
BRANCH   1   6
HETATM    6  N   UNL     1      39.662  -7.479  13.894  1.00  0.00    -0.311 N 
HETATM    7  C   UNL     1      40.751  -7.325  14.734  1.00  0.00     0.227 C 
HETATM    8  O   UNL     1      41.064  -6.290  15.319  1.00  0.00    -0.273 OA
HETATM    9  H   UNL     1      39.408  -8.410  13.561  1.00  0.00     0.170 HD
BRANCH   7  10
HETATM   10  C   UNL     1      41.607  -8.580  14.840  1.00  0.00     0.141 C 
BRANCH  10  11
HETATM   11  C   UNL     1      42.333  -8.895  13.552  1.00  0.00    -0.049 A 
HETATM   12  C   UNL     1      42.125 -10.110  12.887  1.00  0.00     0.008 A 
HETATM   13  C   UNL     1      42.807 -10.406  11.704  1.00  0.00     0.013 A 
HETATM   14  C   UNL     1      43.701  -9.489  11.130  1.00  0.00    -0.026 A 
HETATM   15  C   UNL     1      43.875  -8.257  11.783  1.00  0.00     0.013 A 
HETATM   16  C   UNL     1      43.201  -7.962  12.976  1.00  0.00     0.008 A 
BRANCH  14  17
HETATM   17  C   UNL     1      44.431  -9.818   9.889  1.00  0.00    -0.026 A 
HETATM   18  C   UNL     1      45.524  -9.044   9.459  1.00  0.00     0.012 A 
HETATM   19  C   UNL     1      46.200  -9.337   8.271  1.00  0.00     0.001 A 
HETATM   20  C   UNL     1      45.798 -10.417   7.490  1.00  0.00     0.000 A 
HETATM   21  C   UNL     1      44.723 -11.201   7.897  1.00  0.00     0.001 A 
HETATM   22  C   UNL     1      44.046 -10.903   9.084  1.00  0.00     0.012 A 
ENDBRANCH  14  17
ENDBRANCH  10  11
ENDBRANCH   7  10
ENDBRANCH   1   6
BRANCH   2  23
HETATM   23  C   UNL     1      40.056  -6.209  11.201  1.00  0.00     0.732 A 
HETATM   24  N   UNL     1      39.948  -7.305  10.509  1.00  0.00    -0.067 NA
HETATM   25  C   UNL     1      40.941  -7.479   9.585  1.00  0.00     0.065 A 
HETATM   26  C   UNL     1      41.955  -6.643   9.355  1.00  0.00     0.036 A 
HETATM   27  C   UNL     1      41.007  -8.664   8.681  1.00  0.00     0.061 C 
HETATM   28  C   UNL     1      42.861  -7.092   8.275  1.00  0.00     0.047 C 
HETATM   29  C   UNL     1      42.061  -5.416  10.142  1.00  0.00     0.268 A 
HETATM   30  C   UNL     1      42.043  -8.222   7.637  1.00  0.00     0.011 C 
HETATM   31  O   UNL     1      42.960  -4.603   9.981  1.00  0.00    -0.267 OA
HETATM   32  N   UNL     1      41.061  -5.277  11.062  1.00  0.00    -0.152 N 
HETATM   33  H   UNL     1      41.050  -4.451  11.653  1.00  0.00     0.188 HD
ENDBRANCH   2  23
BRANCH   4  34
HETATM   34  C   UNL     1      36.575  -3.589  13.319  1.00  0.00     0.105 A 
HETATM   35  O   UNL     1      36.267  -3.075  14.549  1.00  0.00    -0.320 OA
HETATM   36  C   UNL     1      35.334  -2.106  14.361  1.00  0.00     0.142 A 
HETATM   37  C   UNL     1      35.029  -1.983  13.027  1.00  0.00     0.027 A 
HETATM   38  C   UNL     1      35.827  -2.941  12.353  1.00  0.00     0.041 A 
ENDBRANCH   4  34
TORSDOF 6
ENDMDL
MODEL 6
REMARK VINA RESULT:      -9.0      6.437      9.994
REMARK  6 active torsions:
REMARK  status: ('A' for Active; 'I' for Inactive)
REMARK    1  A    between atoms: C_4  and  C_5 
REMARK    2  A    between atoms: C_8  and  C_9 
REMARK    3  A    between atoms: C_9  and  C_10 
REMARK       I    between atoms: C_10  and  N_11 
REMARK    4  A    between atoms: N_11  and  C_12 
REMARK    5  A    between atoms: N_13  and  C_14 
REMARK    6  A    between atoms: C_25  and  C_26 
ROOT
HETATM    1  C   UNL     1      38.903  -6.650  13.409  1.00  0.00     0.152 A 
HETATM    2  N   UNL     1      38.807  -6.312  12.066  1.00  0.00    -0.044 N 
HETATM    3  N   UNL     1      37.991  -5.235  11.855  1.00  0.00    -0.148 NA
HETATM    4  C   UNL     1      37.579  -4.898  13.084  1.00  0.00     0.115 A 
HETATM    5  C   UNL     1      38.088  -5.762  14.074  1.00  0.00     0.087 A 
ENDROOT
BRANCH   1   6
HETATM    6  N   UNL     1      39.720  -7.675  13.864  1.00  0.00    -0.311 N 
HETATM    7  C   UNL     1      40.974  -7.453  14.407  1.00  0.00     0.227 C 
HETATM    8  O   UNL     1      41.431  -6.358  14.731  1.00  0.00    -0.273 OA
HETATM    9  H   UNL     1      39.380  -8.631  13.752  1.00  0.00     0.170 HD
BRANCH   7  10
HETATM   10  C   UNL     1      41.808  -8.720  14.526  1.00  0.00     0.141 C 
BRANCH  10  11
HETATM   11  C   UNL     1      42.545  -9.049  13.247  1.00  0.00    -0.049 A 
HETATM   12  C   UNL     1      43.268  -8.066  12.559  1.00  0.00     0.008 A 
HETATM   13  C   UNL     1      43.937  -8.369  11.371  1.00  0.00     0.013 A 
HETATM   14  C   UNL     1      43.932  -9.669  10.841  1.00  0.00    -0.026 A 
HETATM   15  C   UNL     1      43.236 -10.657  11.558  1.00  0.00     0.013 A 
HETATM   16  C   UNL     1      42.554 -10.355  12.745  1.00  0.00     0.008 A 
BRANCH  14  17
HETATM   17  C   UNL     1      44.627  -9.974   9.575  1.00  0.00    -0.026 A 
HETATM   18  C   UNL     1      44.251 -11.075   8.785  1.00  0.00     0.012 A 
HETATM   19  C   UNL     1      44.925 -11.383   7.599  1.00  0.00     0.001 A 
HETATM   20  C   UNL     1      45.988 -10.589   7.177  1.00  0.00     0.000 A 
HETATM   21  C   UNL     1      46.375  -9.491   7.939  1.00  0.00     0.001 A 
HETATM   22  C   UNL     1      45.701  -9.188   9.126  1.00  0.00     0.012 A 
ENDBRANCH  14  17
ENDBRANCH  10  11
ENDBRANCH   7  10
ENDBRANCH   1   6
BRANCH   2  23
HETATM   23  C   UNL     1      39.424  -6.942  10.967  1.00  0.00     0.732 A 
HETATM   24  N   UNL     1      40.463  -6.456  10.352  1.00  0.00    -0.067 NA
HETATM   25  C   UNL     1      40.914  -7.237   9.324  1.00  0.00     0.065 A 
HETATM   26  C   UNL     1      40.392  -8.401   8.934  1.00  0.00     0.036 A 
HETATM   27  C   UNL     1      42.096  -6.872   8.489  1.00  0.00     0.061 C 
HETATM   28  C   UNL     1      41.113  -9.025   7.802  1.00  0.00     0.047 C 
HETATM   29  C   UNL     1      39.225  -8.931   9.636  1.00  0.00     0.268 A 
HETATM   30  C   UNL     1      42.397  -8.188   7.756  1.00  0.00     0.011 C 
HETATM   31  O   UNL     1      38.699  -9.993   9.336  1.00  0.00    -0.267 OA
HETATM   32  N   UNL     1      38.792  -8.124  10.649  1.00  0.00    -0.152 N 
HETATM   33  H   UNL     1      37.988  -8.414  11.197  1.00  0.00     0.188 HD
ENDBRANCH   2  23
BRANCH   4  34
HETATM   34  C   UNL     1      36.701  -3.723  13.353  1.00  0.00     0.105 A 
HETATM   35  O   UNL     1      35.958  -3.082  12.399  1.00  0.00    -0.320 OA
HETATM   36  C   UNL     1      35.276  -2.085  13.020  1.00  0.00     0.142 A 
HETATM   37  C   UNL     1      35.564  -2.068  14.363  1.00  0.00     0.027 A 
HETATM   38  C   UNL     1      36.486  -3.123  14.579  1.00  0.00     0.041 A 
ENDBRANCH   4  34
TORSDOF 6
ENDMDL
MODEL 7
REMARK VINA RESULT:      -8.9      2.761      4.622
REMARK  6 active torsions:
REMARK  status: ('A' for Active; 'I' for Inactive)
REMARK    1  A    between atoms: C_4  and  C_5 
REMARK    2  A    between atoms: C_8  and  C_9 
REMARK    3  A    between atoms: C_9  and  C_10 
REMARK       I    between atoms: C_10  and  N_11 
REMARK    4  A    between atoms: N_11  and  C_12 
REMARK    5  A    between atoms: N_13  and  C_14 
REMARK    6  A    between atoms: C_25  and  C_26 
ROOT
HETATM    1  C   UNL     1      42.290 -10.978   6.012  1.00  0.00     0.152 A 
HETATM    2  N   UNL     1      41.496  -9.843   6.096  1.00  0.00    -0.044 N 
HETATM    3  N   UNL     1      41.714  -9.137   7.248  1.00  0.00    -0.148 NA
HETATM    4  C   UNL     1      42.658  -9.844   7.884  1.00  0.00     0.115 A 
HETATM    5  C   UNL     1      43.022 -11.007   7.177  1.00  0.00     0.087 A 
ENDROOT
BRANCH   1   6
HETATM    6  N   UNL     1      42.279 -11.816   4.905  1.00  0.00    -0.311 N 
HETATM    7  C   UNL     1      43.281 -11.812   3.950  1.00  0.00     0.227 C 
HETATM    8  O   UNL     1      44.364 -11.239   4.049  1.00  0.00    -0.273 OA
HETATM    9  H   UNL     1      41.471 -12.429   4.789  1.00  0.00     0.170 HD
BRANCH   7  10
HETATM   10  C   UNL     1      42.899 -12.559   2.680  1.00  0.00     0.141 C 
BRANCH  10  11
HETATM   11  C   UNL     1      43.053 -14.056   2.821  1.00  0.00    -0.049 A 
HETATM   12  C   UNL     1      42.985 -14.672   4.078  1.00  0.00     0.008 A 
HETATM   13  C   UNL     1      43.141 -16.054   4.207  1.00  0.00     0.013 A 
HETATM   14  C   UNL     1      43.343 -16.874   3.086  1.00  0.00    -0.026 A 
HETATM   15  C   UNL     1      43.372 -16.252   1.826  1.00  0.00     0.013 A 
HETATM   16  C   UNL     1      43.227 -14.864   1.693  1.00  0.00     0.008 A 
BRANCH  14  17
HETATM   17  C   UNL     1      43.525 -18.331   3.236  1.00  0.00    -0.026 A 
HETATM   18  C   UNL     1      44.024 -18.885   4.428  1.00  0.00     0.012 A 
HETATM   19  C   UNL     1      44.222 -20.263   4.563  1.00  0.00     0.001 A 
HETATM   20  C   UNL     1      43.919 -21.116   3.507  1.00  0.00     0.000 A 
HETATM   21  C   UNL     1      43.418 -20.593   2.318  1.00  0.00     0.001 A 
HETATM   22  C   UNL     1      43.224 -19.215   2.185  1.00  0.00     0.012 A 
ENDBRANCH  14  17
ENDBRANCH  10  11
ENDBRANCH   7  10
ENDBRANCH   1   6
BRANCH   2  23
HETATM   23  C   UNL     1      40.539  -9.382   5.171  1.00  0.00     0.732 A 
HETATM   24  N   UNL     1      40.731  -9.376   3.884  1.00  0.00    -0.067 NA
HETATM   25  C   UNL     1      39.665  -8.906   3.167  1.00  0.00     0.065 A 
HETATM   26  C   UNL     1      38.505  -8.481   3.670  1.00  0.00     0.036 A 
HETATM   27  C   UNL     1      39.667  -8.818   1.677  1.00  0.00     0.061 C 
HETATM   28  C   UNL     1      37.534  -8.050   2.640  1.00  0.00     0.047 C 
HETATM   29  C   UNL     1      38.308  -8.494   5.118  1.00  0.00     0.268 A 
HETATM   30  C   UNL     1      38.183  -8.591   1.360  1.00  0.00     0.011 C 
HETATM   31  O   UNL     1      37.270  -8.124   5.647  1.00  0.00    -0.267 OA
HETATM   32  N   UNL     1      39.393  -8.958   5.806  1.00  0.00    -0.152 N 
HETATM   33  H   UNL     1      39.346  -9.008   6.819  1.00  0.00     0.188 HD
ENDBRANCH   2  23
BRANCH   4  34
HETATM   34  C   UNL     1      43.258  -9.415   9.180  1.00  0.00     0.105 A 
HETATM   35  O   UNL     1      42.551  -8.852  10.208  1.00  0.00    -0.320 OA
HETATM   36  C   UNL     1      43.425  -8.620  11.221  1.00  0.00     0.142 A 
HETATM   37  C   UNL     1      44.690  -9.023  10.867  1.00  0.00     0.027 A 
HETATM   38  C   UNL     1      44.584  -9.534   9.550  1.00  0.00     0.041 A 
ENDBRANCH   4  34
TORSDOF 6
ENDMDL
MODEL 8
REMARK VINA RESULT:      -8.8      3.773      9.174
REMARK  6 active torsions:
REMARK  status: ('A' for Active; 'I' for Inactive)
REMARK    1  A    between atoms: C_4  and  C_5 
REMARK    2  A    between atoms: C_8  and  C_9 
REMARK    3  A    between atoms: C_9  and  C_10 
REMARK       I    between atoms: C_10  and  N_11 
REMARK    4  A    between atoms: N_11  and  C_12 
REMARK    5  A    between atoms: N_13  and  C_14 
REMARK    6  A    between atoms: C_25  and  C_26 
ROOT
HETATM    1  C   UNL     1      42.156 -14.661   3.430  1.00  0.00     0.152 A 
HETATM    2  N   UNL     1      41.938 -15.000   2.102  1.00  0.00    -0.044 N 
HETATM    3  N   UNL     1      42.353 -16.271   1.811  1.00  0.00    -0.148 NA
HETATM    4  C   UNL     1      42.832 -16.726   2.977  1.00  0.00     0.115 A 
HETATM    5  C   UNL     1      42.763 -15.758   3.998  1.00  0.00     0.087 A 
ENDROOT
BRANCH   1   6
HETATM    6  N   UNL     1      41.762 -13.441   3.963  1.00  0.00    -0.311 N 
HETATM    7  C   UNL     1      40.738 -13.321   4.887  1.00  0.00     0.227 C 
HETATM    8  O   UNL     1      40.198 -14.250   5.484  1.00  0.00    -0.273 OA
HETATM    9  H   UNL     1      42.236 -12.605   3.621  1.00  0.00     0.170 HD
BRANCH   7  10
HETATM   10  C   UNL     1      40.268 -11.885   5.074  1.00  0.00     0.141 C 
BRANCH  10  11
HETATM   11  C   UNL     1      39.621 -11.321   3.829  1.00  0.00    -0.049 A 
HETATM   12  C   UNL     1      38.755 -12.101   3.052  1.00  0.00     0.008 A 
HETATM   13  C   UNL     1      38.168 -11.582   1.894  1.00  0.00     0.013 A 
HETATM   14  C   UNL     1      38.404 -10.260   1.487  1.00  0.00    -0.026 A 
HETATM   15  C   UNL     1      39.243  -9.473   2.294  1.00  0.00     0.013 A 
HETATM   16  C   UNL     1      39.842  -9.993   3.449  1.00  0.00     0.008 A 
BRANCH  14  17
HETATM   17  C   UNL     1      37.793  -9.727   0.253  1.00  0.00    -0.026 A 
HETATM   18  C   UNL     1      36.821 -10.458  -0.454  1.00  0.00     0.012 A 
HETATM   19  C   UNL     1      36.261  -9.968  -1.637  1.00  0.00     0.001 A 
HETATM   20  C   UNL     1      36.660  -8.731  -2.136  1.00  0.00     0.000 A 
HETATM   21  C   UNL     1      37.616  -7.986  -1.452  1.00  0.00     0.001 A 
HETATM   22  C   UNL     1      38.177  -8.481  -0.270  1.00  0.00     0.012 A 
ENDBRANCH  14  17
ENDBRANCH  10  11
ENDBRANCH   7  10
ENDBRANCH   1   6
BRANCH   2  23
HETATM   23  C   UNL     1      41.373 -14.205   1.085  1.00  0.00     0.732 A 
HETATM   24  N   UNL     1      41.664 -12.949   0.911  1.00  0.00    -0.067 NA
HETATM   25  C   UNL     1      41.019 -12.370  -0.146  1.00  0.00     0.065 A 
HETATM   26  C   UNL     1      40.161 -12.976  -0.970  1.00  0.00     0.036 A 
HETATM   27  C   UNL     1      41.210 -10.941  -0.529  1.00  0.00     0.061 C 
HETATM   28  C   UNL     1      39.639 -12.094  -2.037  1.00  0.00     0.047 C 
HETATM   29  C   UNL     1      39.846 -14.388  -0.760  1.00  0.00     0.268 A 
HETATM   30  C   UNL     1      40.583 -10.889  -1.929  1.00  0.00     0.011 C 
HETATM   31  O   UNL     1      39.074 -15.007  -1.478  1.00  0.00    -0.267 OA
HETATM   32  N   UNL     1      40.498 -14.933   0.310  1.00  0.00    -0.152 N 
HETATM   33  H   UNL     1      40.344 -15.912   0.530  1.00  0.00     0.188 HD
ENDBRANCH   2  23
BRANCH   4  34
HETATM   34  C   UNL     1      43.351 -18.113   3.155  1.00  0.00     0.105 A 
HETATM   35  O   UNL     1      44.042 -18.541   4.255  1.00  0.00    -0.320 OA
HETATM   36  C   UNL     1      44.325 -19.856   4.068  1.00  0.00     0.142 A 
HETATM   37  C   UNL     1      43.829 -20.289   2.863  1.00  0.00     0.027 A 
HETATM   38  C   UNL     1      43.202 -19.164   2.271  1.00  0.00     0.041 A 
ENDBRANCH   4  34
TORSDOF 6
ENDMDL
MODEL 9
REMARK VINA RESULT:      -8.8      3.196      9.653
REMARK  6 active torsions:
REMARK  status: ('A' for Active; 'I' for Inactive)
REMARK    1  A    between atoms: C_4  and  C_5 
REMARK    2  A    between atoms: C_8  and  C_9 
REMARK    3  A    between atoms: C_9  and  C_10 
REMARK       I    between atoms: C_10  and  N_11 
REMARK    4  A    between atoms: N_11  and  C_12 
REMARK    5  A    between atoms: N_13  and  C_14 
REMARK    6  A    between atoms: C_25  and  C_26 
ROOT
HETATM    1  C   UNL     1      43.060 -11.782   4.957  1.00  0.00     0.152 A 
HETATM    2  N   UNL     1      41.767 -11.314   5.149  1.00  0.00    -0.044 N 
HETATM    3  N   UNL     1      40.850 -11.982   4.384  1.00  0.00    -0.148 NA
HETATM    4  C   UNL     1      41.585 -12.877   3.711  1.00  0.00     0.115 A 
HETATM    5  C   UNL     1      42.958 -12.772   4.006  1.00  0.00     0.087 A 
ENDROOT
BRANCH   1   6
HETATM    6  N   UNL     1      44.145 -11.291   5.670  1.00  0.00    -0.311 N 
HETATM    7  C   UNL     1      44.461 -11.720   6.947  1.00  0.00     0.227 C 
HETATM    8  O   UNL     1      43.969 -12.690   7.520  1.00  0.00    -0.273 OA
HETATM    9  H   UNL     1      44.702 -10.557   5.230  1.00  0.00     0.170 HD
BRANCH   7  10
HETATM   10  C   UNL     1      45.471 -10.820   7.647  1.00  0.00     0.141 C 
BRANCH  10  11
HETATM   11  C   UNL     1      44.843  -9.988   8.742  1.00  0.00    -0.049 A 
HETATM   12  C   UNL     1      44.254  -8.749   8.458  1.00  0.00     0.008 A 
HETATM   13  C   UNL     1      43.687  -7.976   9.473  1.00  0.00     0.013 A 
HETATM   14  C   UNL     1      43.664  -8.423  10.804  1.00  0.00    -0.026 A 
HETATM   15  C   UNL     1      44.224  -9.683  11.074  1.00  0.00     0.013 A 
HETATM   16  C   UNL     1      44.803 -10.457  10.059  1.00  0.00     0.008 A 
BRANCH  14  17
HETATM   17  C   UNL     1      43.078  -7.589  11.873  1.00  0.00    -0.026 A 
HETATM   18  C   UNL     1      43.199  -7.950  13.227  1.00  0.00     0.012 A 
HETATM   19  C   UNL     1      42.623  -7.177  14.240  1.00  0.00     0.001 A 
HETATM   20  C   UNL     1      41.917  -6.022  13.917  1.00  0.00     0.000 A 
HETATM   21  C   UNL     1      41.788  -5.641  12.584  1.00  0.00     0.001 A 
HETATM   22  C   UNL     1      42.363  -6.418  11.574  1.00  0.00     0.012 A 
ENDBRANCH  14  17
ENDBRANCH  10  11
ENDBRANCH   7  10
ENDBRANCH   1   6
BRANCH   2  23
HETATM   23  C   UNL     1      41.338 -10.275   5.998  1.00  0.00     0.732 A 
HETATM   24  N   UNL     1      40.706 -10.477   7.117  1.00  0.00    -0.067 NA
HETATM   25  C   UNL     1      40.399  -9.330   7.795  1.00  0.00     0.065 A 
HETATM   26  C   UNL     1      40.692  -8.086   7.410  1.00  0.00     0.036 A 
HETATM   27  C   UNL     1      39.682  -9.330   9.104  1.00  0.00     0.061 C 
HETATM   28  C   UNL     1      40.248  -7.048   8.366  1.00  0.00     0.047 C 
HETATM   29  C   UNL     1      41.401  -7.878   6.149  1.00  0.00     0.268 A 
HETATM   30  C   UNL     1      39.901  -7.893   9.598  1.00  0.00     0.011 C 
HETATM   31  O   UNL     1      41.706  -6.768   5.737  1.00  0.00    -0.267 OA
HETATM   32  N   UNL     1      41.684  -9.042   5.491  1.00  0.00    -0.152 N 
HETATM   33  H   UNL     1      42.180  -8.996   4.606  1.00  0.00     0.188 HD
ENDBRANCH   2  23
BRANCH   4  34
HETATM   34  C   UNL     1      40.990 -13.880   2.781  1.00  0.00     0.105 A 
HETATM   35  O   UNL     1      40.460 -15.079   3.175  1.00  0.00    -0.320 OA
HETATM   36  C   UNL     1      39.999 -15.703   2.061  1.00  0.00     0.142 A 
HETATM   37  C   UNL     1      40.222 -14.929   0.947  1.00  0.00     0.027 A 
HETATM   38  C   UNL     1      40.864 -13.753   1.410  1.00  0.00     0.041 A 
ENDBRANCH   4  34
TORSDOF 6
ENDMDL
MODEL 10
REMARK VINA RESULT:      -8.7      2.662      8.895
REMARK  6 active torsions:
REMARK  status: ('A' for Active; 'I' for Inactive)
REMARK    1  A    between atoms: C_4  and  C_5 
REMARK    2  A    between atoms: C_8  and  C_9 
REMARK    3  A    between atoms: C_9  and  C_10 
REMARK       I    between atoms: C_10  and  N_11 
REMARK    4  A    between atoms: N_11  and  C_12 
REMARK    5  A    between atoms: N_13  and  C_14 
REMARK    6  A    between atoms: C_25  and  C_26 
ROOT
HETATM    1  C   UNL     1      41.865 -14.305   6.213  1.00  0.00     0.152 A 
HETATM    2  N   UNL     1      43.186 -14.115   6.596  1.00  0.00    -0.044 N 
HETATM    3  N   UNL     1      43.907 -15.278   6.583  1.00  0.00    -0.148 NA
HETATM    4  C   UNL     1      43.021 -16.200   6.183  1.00  0.00     0.115 A 
HETATM    5  C   UNL     1      41.739 -15.655   5.974  1.00  0.00     0.087 A 
ENDROOT
BRANCH   1   6
HETATM    6  N   UNL     1      40.963 -13.256   6.098  1.00  0.00    -0.311 N 
HETATM    7  C   UNL     1      40.233 -13.015   4.947  1.00  0.00     0.227 C 
HETATM    8  O   UNL     1      40.137 -13.777   3.987  1.00  0.00    -0.273 OA
HETATM    9  H   UNL     1      40.874 -12.625   6.895  1.00  0.00     0.170 HD
BRANCH   7  10
HETATM   10  C   UNL     1      39.572 -11.644   4.934  1.00  0.00     0.141 C 
BRANCH  10  11
HETATM   11  C   UNL     1      40.104 -10.735   6.019  1.00  0.00    -0.049 A 
HETATM   12  C   UNL     1      41.346 -10.101   5.881  1.00  0.00     0.008 A 
HETATM   13  C   UNL     1      41.843  -9.272   6.891  1.00  0.00     0.013 A 
HETATM   14  C   UNL     1      41.106  -9.025   8.060  1.00  0.00    -0.026 A 
HETATM   15  C   UNL     1      39.845  -9.635   8.172  1.00  0.00     0.013 A 
HETATM   16  C   UNL     1      39.349 -10.476   7.167  1.00  0.00     0.008 A 
BRANCH  14  17
HETATM   17  C   UNL     1      41.648  -8.162   9.128  1.00  0.00    -0.026 A 
HETATM   18  C   UNL     1      42.491  -7.077   8.831  1.00  0.00     0.012 A 
HETATM   19  C   UNL     1      43.027  -6.274   9.843  1.00  0.00     0.001 A 
HETATM   20  C   UNL     1      42.724  -6.539  11.175  1.00  0.00     0.000 A 
HETATM   21  C   UNL     1      41.887  -7.604  11.494  1.00  0.00     0.001 A 
HETATM   22  C   UNL     1      41.356  -8.407  10.481  1.00  0.00     0.012 A 
ENDBRANCH  14  17
ENDBRANCH  10  11
ENDBRANCH   7  10
ENDBRANCH   1   6
BRANCH   2  23
HETATM   23  C   UNL     1      43.813 -12.914   6.982  1.00  0.00     0.732 A 
HETATM   24  N   UNL     1      43.617 -12.341   8.134  1.00  0.00    -0.067 NA
HETATM   25  C   UNL     1      44.340 -11.194   8.313  1.00  0.00     0.065 A 
HETATM   26  C   UNL     1      45.190 -10.656   7.435  1.00  0.00     0.036 A 
HETATM   27  C   UNL     1      44.272 -10.380   9.562  1.00  0.00     0.061 C 
HETATM   28  C   UNL     1      45.842  -9.420   7.923  1.00  0.00     0.047 C 
HETATM   29  C   UNL     1      45.397 -11.313   6.147  1.00  0.00     0.268 A 
HETATM   30  C   UNL     1      45.487  -9.452   9.414  1.00  0.00     0.011 C 
HETATM   31  O   UNL     1      46.163 -10.879   5.299  1.00  0.00    -0.267 OA
HETATM   32  N   UNL     1      44.653 -12.449   5.995  1.00  0.00    -0.152 N 
HETATM   33  H   UNL     1      44.735 -12.977   5.131  1.00  0.00     0.188 HD
ENDBRANCH   2  23
BRANCH   4  34
HETATM   34  C   UNL     1      43.381 -17.631   5.967  1.00  0.00     0.105 A 
HETATM   35  O   UNL     1      43.167 -18.626   6.881  1.00  0.00    -0.320 OA
HETATM   36  C   UNL     1      43.598 -19.787   6.324  1.00  0.00     0.142 A 
HETATM   37  C   UNL     1      44.089 -19.562   5.061  1.00  0.00     0.027 A 
HETATM   38  C   UNL     1      43.952 -18.170   4.830  1.00  0.00     0.041 A 
ENDBRANCH   4  34
TORSDOF 6
ENDMDL
