MODEL 1
REMARK VINA RESULT:      -8.6      0.000      0.000
REMARK  3 active torsions:
REMARK  status: ('A' for Active; 'I' for Inactive)
REMARK    1  A    between atoms: C_4  and  N_5 
REMARK       I    between atoms: N_5  and  C_6 
REMARK    2  A    between atoms: C_6  and  C_7 
REMARK    3  A    between atoms: C_7  and  C_8 
ROOT
HETATM    1  C   UNL     1      41.799 -13.355   1.468  1.00  0.00     0.286 C 
HETATM    2  N   UNL     1      41.186 -14.029   0.245  1.00  0.00    -0.056 N 
HETATM    3  H   UNL     1      41.888 -14.041  -0.505  1.00  0.00     0.278 HD
HETATM    4  H   UNL     1      41.031 -15.033   0.486  1.00  0.00     0.278 HD
HETATM    5  C   UNL     1      39.894 -13.422  -0.228  1.00  0.00     0.209 C 
HETATM    6  C   UNL     1      40.142 -11.925  -0.535  1.00  0.00     0.115 C 
HETATM    7  N   UNL     1      40.801 -11.246   0.580  1.00  0.00    -0.353 N 
HETATM    8  C   UNL     1      41.743 -11.818   1.397  1.00  0.00     0.249 C 
HETATM    9  O   UNL     1      42.440 -11.115   2.121  1.00  0.00    -0.271 OA
HETATM   10  C   UNL     1      39.388 -14.203  -1.441  1.00  0.00     0.035 C 
HETATM   11  C   UNL     1      40.218 -13.970  -2.701  1.00  0.00     0.002 C 
HETATM   12  C   UNL     1      40.368 -12.483  -3.003  1.00  0.00     0.002 C 
HETATM   13  C   UNL     1      40.960 -11.724  -1.819  1.00  0.00     0.027 C 
HETATM   14  H   UNL     1      40.811 -10.227   0.588  1.00  0.00     0.163 HD
ENDROOT
BRANCH   1  15
HETATM   15  C   UNL     1      41.143 -13.797   2.785  1.00  0.00     0.146 C 
BRANCH  15  16
HETATM   16  C   UNL     1      41.344 -15.268   3.059  1.00  0.00     0.224 C 
HETATM   17  N   UNL     1      42.627 -15.709   2.847  1.00  0.00    -0.327 N 
HETATM   18  H   UNL     1      43.261 -15.120   2.317  1.00  0.00     0.169 HD
HETATM   19  O   UNL     1      40.392 -15.930   3.475  1.00  0.00    -0.273 OA
BRANCH  17  20
HETATM   20  C   UNL     1      43.153 -16.971   3.207  1.00  0.00     0.035 A 
HETATM   21  C   UNL     1      43.162 -18.078   2.352  1.00  0.00     0.036 A 
HETATM   22  C   UNL     1      43.647 -19.320   2.790  1.00  0.00    -0.060 A 
HETATM   23  C   UNL     1      43.643 -20.506   1.869  1.00  0.00     0.048 C 
HETATM   24  C   UNL     1      44.171 -19.434   4.081  1.00  0.00     0.007 A 
HETATM   25  C   UNL     1      44.168 -18.336   4.938  1.00  0.00     0.003 A 
HETATM   26  C   UNL     1      43.649 -17.114   4.508  1.00  0.00     0.029 A 
ENDBRANCH  17  20
ENDBRANCH  15  16
ENDBRANCH   1  15
TORSDOF 3
ENDMDL
MODEL 2
REMARK VINA RESULT:      -8.5      2.012      7.597
REMARK  3 active torsions:
REMARK  status: ('A' for Active; 'I' for Inactive)
REMARK    1  A    between atoms: C_4  and  N_5 
REMARK       I    between atoms: N_5  and  C_6 
REMARK    2  A    between atoms: C_6  and  C_7 
REMARK    3  A    between atoms: C_7  and  C_8 
ROOT
HETATM    1  C   UNL     1      41.953 -16.793   3.041  1.00  0.00     0.286 C 
HETATM    2  N   UNL     1      42.380 -18.225   2.734  1.00  0.00    -0.056 N 
HETATM    3  H   UNL     1      41.863 -18.858   3.355  1.00  0.00     0.278 HD
HETATM    4  H   UNL     1      42.044 -18.453   1.773  1.00  0.00     0.278 HD
HETATM    5  C   UNL     1      43.861 -18.472   2.817  1.00  0.00     0.209 C 
HETATM    6  C   UNL     1      44.342 -18.084   4.236  1.00  0.00     0.115 C 
HETATM    7  N   UNL     1      43.891 -16.744   4.613  1.00  0.00    -0.353 N 
HETATM    8  C   UNL     1      42.685 -16.196   4.256  1.00  0.00     0.249 C 
HETATM    9  O   UNL     1      42.269 -15.195   4.830  1.00  0.00    -0.271 OA
HETATM   10  C   UNL     1      44.146 -19.933   2.471  1.00  0.00     0.035 C 
HETATM   11  C   UNL     1      43.697 -20.911   3.554  1.00  0.00     0.002 C 
HETATM   12  C   UNL     1      44.259 -20.529   4.919  1.00  0.00     0.002 C 
HETATM   13  C   UNL     1      43.893 -19.097   5.299  1.00  0.00     0.027 C 
HETATM   14  H   UNL     1      44.327 -16.295   5.417  1.00  0.00     0.163 HD
ENDROOT
BRANCH   1  15
HETATM   15  C   UNL     1      42.148 -15.844   1.849  1.00  0.00     0.146 C 
BRANCH  15  16
HETATM   16  C   UNL     1      40.837 -15.329   1.308  1.00  0.00     0.224 C 
HETATM   17  N   UNL     1      40.968 -14.451   0.259  1.00  0.00    -0.327 N 
HETATM   18  H   UNL     1      41.877 -14.037   0.085  1.00  0.00     0.169 HD
HETATM   19  O   UNL     1      39.787 -15.747   1.797  1.00  0.00    -0.273 OA
BRANCH  17  20
HETATM   20  C   UNL     1      39.928 -13.969  -0.569  1.00  0.00     0.035 A 
HETATM   21  C   UNL     1      39.497 -14.623  -1.728  1.00  0.00     0.036 A 
HETATM   22  C   UNL     1      38.498 -14.062  -2.539  1.00  0.00    -0.060 A 
HETATM   23  C   UNL     1      38.047 -14.767  -3.787  1.00  0.00     0.048 C 
HETATM   24  C   UNL     1      37.897 -12.861  -2.154  1.00  0.00     0.007 A 
HETATM   25  C   UNL     1      38.320 -12.204  -1.001  1.00  0.00     0.003 A 
HETATM   26  C   UNL     1      39.340 -12.749  -0.219  1.00  0.00     0.029 A 
ENDBRANCH  17  20
ENDBRANCH  15  16
ENDBRANCH   1  15
TORSDOF 3
ENDMDL
MODEL 3
REMARK VINA RESULT:      -8.2      3.972      5.774
REMARK  3 active torsions:
REMARK  status: ('A' for Active; 'I' for Inactive)
REMARK    1  A    between atoms: C_4  and  N_5 
REMARK       I    between atoms: N_5  and  C_6 
REMARK    2  A    between atoms: C_6  and  C_7 
REMARK    3  A    between atoms: C_7  and  C_8 
ROOT
HETATM    1  C   UNL     1      42.173 -13.421   5.686  1.00  0.00     0.286 C 
HETATM    2  N   UNL     1      43.605 -13.007   6.006  1.00  0.00    -0.056 N 
HETATM    3  H   UNL     1      43.758 -13.121   7.015  1.00  0.00     0.278 HD
HETATM    4  H   UNL     1      44.240 -13.701   5.555  1.00  0.00     0.278 HD
HETATM    5  C   UNL     1      43.976 -11.621   5.553  1.00  0.00     0.209 C 
HETATM    6  C   UNL     1      42.992 -10.617   6.200  1.00  0.00     0.115 C 
HETATM    7  N   UNL     1      41.599 -11.011   5.989  1.00  0.00    -0.353 N 
HETATM    8  C   UNL     1      41.148 -12.307   5.965  1.00  0.00     0.249 C 
HETATM    9  O   UNL     1      39.949 -12.543   6.059  1.00  0.00    -0.271 OA
HETATM   10  C   UNL     1      45.434 -11.348   5.920  1.00  0.00     0.035 C 
HETATM   11  C   UNL     1      45.655 -11.158   7.419  1.00  0.00     0.002 C 
HETATM   12  C   UNL     1      44.715 -10.104   7.994  1.00  0.00     0.002 C 
HETATM   13  C   UNL     1      43.254 -10.432   7.702  1.00  0.00     0.027 C 
HETATM   14  H   UNL     1      40.869 -10.323   6.168  1.00  0.00     0.163 HD
ENDROOT
BRANCH   1  15
HETATM   15  C   UNL     1      41.995 -13.882   4.231  1.00  0.00     0.146 C 
BRANCH  15  16
HETATM   16  C   UNL     1      41.951 -15.385   4.108  1.00  0.00     0.224 C 
HETATM   17  N   UNL     1      43.167 -15.963   3.836  1.00  0.00    -0.327 N 
HETATM   18  H   UNL     1      43.922 -15.371   3.509  1.00  0.00     0.169 HD
HETATM   19  O   UNL     1      40.881 -15.965   4.294  1.00  0.00    -0.273 OA
BRANCH  17  20
HETATM   20  C   UNL     1      43.467 -17.344   3.865  1.00  0.00     0.035 A 
HETATM   21  C   UNL     1      43.397 -18.174   2.741  1.00  0.00     0.036 A 
HETATM   22  C   UNL     1      43.652 -19.550   2.848  1.00  0.00    -0.060 A 
HETATM   23  C   UNL     1      43.565 -20.436   1.638  1.00  0.00     0.048 C 
HETATM   24  C   UNL     1      44.028 -20.084   4.084  1.00  0.00     0.007 A 
HETATM   25  C   UNL     1      44.103 -19.263   5.208  1.00  0.00     0.003 A 
HETATM   26  C   UNL     1      43.810 -17.903   5.101  1.00  0.00     0.029 A 
ENDBRANCH  17  20
ENDBRANCH  15  16
ENDBRANCH   1  15
TORSDOF 3
ENDMDL
MODEL 4
REMARK VINA RESULT:      -8.0      5.249      7.631
REMARK  3 active torsions:
REMARK  status: ('A' for Active; 'I' for Inactive)
REMARK    1  A    between atoms: C_4  and  N_5 
REMARK       I    between atoms: N_5  and  C_6 
REMARK    2  A    between atoms: C_6  and  C_7 
REMARK    3  A    between atoms: C_7  and  C_8 
ROOT
HETATM    1  C   UNL     1      41.958 -13.646   4.499  1.00  0.00     0.286 C 
HETATM    2  N   UNL     1      42.869 -14.869   4.487  1.00  0.00    -0.056 N 
HETATM    3  H   UNL     1      43.371 -14.891   3.590  1.00  0.00     0.278 HD
HETATM    4  H   UNL     1      43.609 -14.715   5.207  1.00  0.00     0.278 HD
HETATM    5  C   UNL     1      42.174 -16.175   4.753  1.00  0.00     0.209 C 
HETATM    6  C   UNL     1      41.054 -16.356   3.699  1.00  0.00     0.115 C 
HETATM    7  N   UNL     1      40.195 -15.176   3.614  1.00  0.00    -0.353 N 
HETATM    8  C   UNL     1      40.627 -13.882   3.762  1.00  0.00     0.249 C 
HETATM    9  O   UNL     1      39.913 -12.949   3.409  1.00  0.00    -0.271 OA
HETATM   10  C   UNL     1      43.203 -17.305   4.729  1.00  0.00     0.035 C 
HETATM   11  C   UNL     1      43.729 -17.615   3.330  1.00  0.00     0.002 C 
HETATM   12  C   UNL     1      42.590 -17.861   2.347  1.00  0.00     0.002 C 
HETATM   13  C   UNL     1      41.615 -16.688   2.308  1.00  0.00     0.027 C 
HETATM   14  H   UNL     1      39.303 -15.260   3.129  1.00  0.00     0.163 HD
ENDROOT
BRANCH   1  15
HETATM   15  C   UNL     1      41.640 -13.152   5.918  1.00  0.00     0.146 C 
BRANCH  15  16
HETATM   16  C   UNL     1      42.878 -12.720   6.664  1.00  0.00     0.224 C 
HETATM   17  N   UNL     1      42.928 -11.375   6.939  1.00  0.00    -0.327 N 
HETATM   18  H   UNL     1      42.298 -10.755   6.442  1.00  0.00     0.169 HD
HETATM   19  O   UNL     1      43.700 -13.575   6.996  1.00  0.00    -0.273 OA
BRANCH  17  20
HETATM   20  C   UNL     1      43.852 -10.723   7.788  1.00  0.00     0.035 A 
HETATM   21  C   UNL     1      43.530 -10.255   9.066  1.00  0.00     0.036 A 
HETATM   22  C   UNL     1      44.478  -9.564   9.837  1.00  0.00    -0.060 A 
HETATM   23  C   UNL     1      44.121  -9.055  11.204  1.00  0.00     0.048 C 
HETATM   24  C   UNL     1      45.771  -9.388   9.337  1.00  0.00     0.007 A 
HETATM   25  C   UNL     1      46.101  -9.854   8.066  1.00  0.00     0.003 A 
HETATM   26  C   UNL     1      45.141 -10.506   7.290  1.00  0.00     0.029 A 
ENDBRANCH  17  20
ENDBRANCH  15  16
ENDBRANCH   1  15
TORSDOF 3
ENDMDL
MODEL 5
REMARK VINA RESULT:      -7.7      5.051      7.354
REMARK  3 active torsions:
REMARK  status: ('A' for Active; 'I' for Inactive)
REMARK    1  A    between atoms: C_4  and  N_5 
REMARK       I    between atoms: N_5  and  C_6 
REMARK    2  A    between atoms: C_6  and  C_7 
REMARK    3  A    between atoms: C_7  and  C_8 
ROOT
HETATM    1  C   UNL     1      41.358 -14.090   5.366  1.00  0.00     0.286 C 
HETATM    2  N   UNL     1      41.577 -13.724   3.902  1.00  0.00    -0.056 N 
HETATM    3  H   UNL     1      40.695 -13.363   3.522  1.00  0.00     0.278 HD
HETATM    4  H   UNL     1      42.236 -12.915   3.877  1.00  0.00     0.278 HD
HETATM    5  C   UNL     1      42.121 -14.838   3.050  1.00  0.00     0.209 C 
HETATM    6  C   UNL     1      41.151 -16.041   3.141  1.00  0.00     0.115 C 
HETATM    7  N   UNL     1      40.843 -16.385   4.529  1.00  0.00    -0.353 N 
HETATM    8  C   UNL     1      40.714 -15.476   5.549  1.00  0.00     0.249 C 
HETATM    9  O   UNL     1      40.192 -15.809   6.608  1.00  0.00    -0.271 OA
HETATM   10  C   UNL     1      42.308 -14.330   1.620  1.00  0.00     0.035 C 
HETATM   11  C   UNL     1      40.991 -14.107   0.881  1.00  0.00     0.002 C 
HETATM   12  C   UNL     1      40.104 -15.346   0.934  1.00  0.00     0.002 C 
HETATM   13  C   UNL     1      39.846 -15.794   2.369  1.00  0.00     0.027 C 
HETATM   14  H   UNL     1      40.405 -17.284   4.719  1.00  0.00     0.163 HD
ENDROOT
BRANCH   1  15
HETATM   15  C   UNL     1      42.652 -14.050   6.192  1.00  0.00     0.146 C 
BRANCH  15  16
HETATM   16  C   UNL     1      43.271 -12.674   6.220  1.00  0.00     0.224 C 
HETATM   17  N   UNL     1      43.421 -12.150   7.481  1.00  0.00    -0.327 N 
HETATM   18  H   UNL     1      42.915 -12.581   8.248  1.00  0.00     0.169 HD
HETATM   19  O   UNL     1      43.620 -12.158   5.158  1.00  0.00    -0.273 OA
BRANCH  17  20
HETATM   20  C   UNL     1      44.144 -10.986   7.828  1.00  0.00     0.035 A 
HETATM   21  C   UNL     1      43.539  -9.804   8.269  1.00  0.00     0.036 A 
HETATM   22  C   UNL     1      44.309  -8.662   8.542  1.00  0.00    -0.060 A 
HETATM   23  C   UNL     1      43.650  -7.394   9.005  1.00  0.00     0.048 C 
HETATM   24  C   UNL     1      45.699  -8.728   8.419  1.00  0.00     0.007 A 
HETATM   25  C   UNL     1      46.310  -9.902   7.983  1.00  0.00     0.003 A 
HETATM   26  C   UNL     1      45.534 -11.021   7.676  1.00  0.00     0.029 A 
ENDBRANCH  17  20
ENDBRANCH  15  16
ENDBRANCH   1  15
TORSDOF 3
ENDMDL
MODEL 6
REMARK VINA RESULT:      -7.7      2.878      3.832
REMARK  3 active torsions:
REMARK  status: ('A' for Active; 'I' for Inactive)
REMARK    1  A    between atoms: C_4  and  N_5 
REMARK       I    between atoms: N_5  and  C_6 
REMARK    2  A    between atoms: C_6  and  C_7 
REMARK    3  A    between atoms: C_7  and  C_8 
ROOT
HETATM    1  C   UNL     1      39.039 -13.525  -1.172  1.00  0.00     0.286 C 
HETATM    2  N   UNL     1      38.352 -12.440  -0.350  1.00  0.00    -0.056 N 
HETATM    3  H   UNL     1      37.346 -12.645  -0.316  1.00  0.00     0.278 HD
HETATM    4  H   UNL     1      38.681 -12.537   0.636  1.00  0.00     0.278 HD
HETATM    5  C   UNL     1      38.603 -11.035  -0.825  1.00  0.00     0.209 C 
HETATM    6  C   UNL     1      38.148 -10.929  -2.300  1.00  0.00     0.115 C 
HETATM    7  N   UNL     1      38.718 -11.997  -3.121  1.00  0.00    -0.353 N 
HETATM    8  C   UNL     1      38.941 -13.281  -2.689  1.00  0.00     0.249 C 
HETATM    9  O   UNL     1      39.159 -14.175  -3.500  1.00  0.00    -0.271 OA
HETATM   10  C   UNL     1      37.874 -10.056   0.096  1.00  0.00     0.035 C 
HETATM   11  C   UNL     1      36.357 -10.080  -0.076  1.00  0.00     0.002 C 
HETATM   12  C   UNL     1      35.958  -9.896  -1.536  1.00  0.00     0.002 C 
HETATM   13  C   UNL     1      36.618 -10.934  -2.437  1.00  0.00     0.027 C 
HETATM   14  H   UNL     1      38.676 -11.905  -4.134  1.00  0.00     0.163 HD
ENDROOT
BRANCH   1  15
HETATM   15  C   UNL     1      40.521 -13.700  -0.809  1.00  0.00     0.146 C 
BRANCH  15  16
HETATM   16  C   UNL     1      40.718 -14.639   0.355  1.00  0.00     0.224 C 
HETATM   17  N   UNL     1      42.031 -14.819   0.717  1.00  0.00    -0.327 N 
HETATM   18  H   UNL     1      42.755 -14.529   0.069  1.00  0.00     0.169 HD
HETATM   19  O   UNL     1      39.727 -15.124   0.902  1.00  0.00    -0.273 OA
BRANCH  17  20
HETATM   20  C   UNL     1      42.502 -15.472   1.879  1.00  0.00     0.035 A 
HETATM   21  C   UNL     1      42.952 -16.796   1.893  1.00  0.00     0.036 A 
HETATM   22  C   UNL     1      43.353 -17.406   3.092  1.00  0.00    -0.060 A 
HETATM   23  C   UNL     1      43.825 -18.831   3.100  1.00  0.00     0.048 C 
HETATM   24  C   UNL     1      43.347 -16.661   4.274  1.00  0.00     0.007 A 
HETATM   25  C   UNL     1      42.903 -15.340   4.269  1.00  0.00     0.003 A 
HETATM   26  C   UNL     1      42.470 -14.753   3.079  1.00  0.00     0.029 A 
ENDBRANCH  17  20
ENDBRANCH  15  16
ENDBRANCH   1  15
TORSDOF 3
ENDMDL
MODEL 7
REMARK VINA RESULT:      -7.5      1.697      7.096
REMARK  3 active torsions:
REMARK  status: ('A' for Active; 'I' for Inactive)
REMARK    1  A    between atoms: C_4  and  N_5 
REMARK       I    between atoms: N_5  and  C_6 
REMARK    2  A    between atoms: C_6  and  C_7 
REMARK    3  A    between atoms: C_7  and  C_8 
ROOT
HETATM    1  C   UNL     1      40.527 -14.632   3.806  1.00  0.00     0.286 C 
HETATM    2  N   UNL     1      41.281 -15.607   2.908  1.00  0.00    -0.056 N 
HETATM    3  H   UNL     1      40.951 -16.558   3.111  1.00  0.00     0.278 HD
HETATM    4  H   UNL     1      40.984 -15.421   1.925  1.00  0.00     0.278 HD
HETATM    5  C   UNL     1      42.779 -15.520   3.002  1.00  0.00     0.209 C 
HETATM    6  C   UNL     1      43.191 -15.754   4.476  1.00  0.00     0.115 C 
HETATM    7  N   UNL     1      42.438 -14.897   5.391  1.00  0.00    -0.353 N 
HETATM    8  C   UNL     1      41.125 -14.534   5.221  1.00  0.00     0.249 C 
HETATM    9  O   UNL     1      40.494 -14.050   6.155  1.00  0.00    -0.271 OA
HETATM   10  C   UNL     1      43.402 -16.534   2.042  1.00  0.00     0.035 C 
HETATM   11  C   UNL     1      43.234 -17.981   2.497  1.00  0.00     0.002 C 
HETATM   12  C   UNL     1      43.724 -18.176   3.928  1.00  0.00     0.002 C 
HETATM   13  C   UNL     1      43.031 -17.223   4.897  1.00  0.00     0.027 C 
HETATM   14  H   UNL     1      42.773 -14.797   6.348  1.00  0.00     0.163 HD
ENDROOT
BRANCH   1  15
HETATM   15  C   UNL     1      40.452 -13.215   3.219  1.00  0.00     0.146 C 
BRANCH  15  16
HETATM   16  C   UNL     1      40.612 -13.208   1.718  1.00  0.00     0.224 C 
HETATM   17  N   UNL     1      39.456 -13.480   1.027  1.00  0.00    -0.327 N 
HETATM   18  H   UNL     1      38.676 -13.887   1.531  1.00  0.00     0.169 HD
HETATM   19  O   UNL     1      41.712 -12.929   1.240  1.00  0.00    -0.273 OA
BRANCH  17  20
HETATM   20  C   UNL     1      39.257 -13.346  -0.366  1.00  0.00     0.035 A 
HETATM   21  C   UNL     1      38.793 -12.174  -0.971  1.00  0.00     0.036 A 
HETATM   22  C   UNL     1      38.561 -12.123  -2.354  1.00  0.00    -0.060 A 
HETATM   23  C   UNL     1      38.054 -10.863  -2.994  1.00  0.00     0.048 C 
HETATM   24  C   UNL     1      38.845 -13.245  -3.138  1.00  0.00     0.007 A 
HETATM   25  C   UNL     1      39.310 -14.416  -2.544  1.00  0.00     0.003 A 
HETATM   26  C   UNL     1      39.502 -14.470  -1.162  1.00  0.00     0.029 A 
ENDBRANCH  17  20
ENDBRANCH  15  16
ENDBRANCH   1  15
TORSDOF 3
ENDMDL
MODEL 8
REMARK VINA RESULT:      -7.4      2.202      7.189
REMARK  3 active torsions:
REMARK  status: ('A' for Active; 'I' for Inactive)
REMARK    1  A    between atoms: C_4  and  N_5 
REMARK       I    between atoms: N_5  and  C_6 
REMARK    2  A    between atoms: C_6  and  C_7 
REMARK    3  A    between atoms: C_7  and  C_8 
ROOT
HETATM    1  C   UNL     1      40.532 -14.084   4.393  1.00  0.00     0.286 C 
HETATM    2  N   UNL     1      41.516 -15.235   4.219  1.00  0.00    -0.056 N 
HETATM    3  H   UNL     1      41.050 -16.106   4.500  1.00  0.00     0.278 HD
HETATM    4  H   UNL     1      41.696 -15.342   3.196  1.00  0.00     0.278 HD
HETATM    5  C   UNL     1      42.824 -15.061   4.940  1.00  0.00     0.209 C 
HETATM    6  C   UNL     1      42.528 -14.860   6.446  1.00  0.00     0.115 C 
HETATM    7  N   UNL     1      41.528 -13.815   6.667  1.00  0.00    -0.353 N 
HETATM    8  C   UNL     1      40.458 -13.572   5.843  1.00  0.00     0.249 C 
HETATM    9  O   UNL     1      39.526 -12.876   6.233  1.00  0.00    -0.271 OA
HETATM   10  C   UNL     1      43.714 -16.273   4.665  1.00  0.00     0.035 C 
HETATM   11  C   UNL     1      43.241 -17.543   5.367  1.00  0.00     0.002 C 
HETATM   12  C   UNL     1      43.038 -17.313   6.860  1.00  0.00     0.002 C 
HETATM   13  C   UNL     1      42.076 -16.160   7.128  1.00  0.00     0.027 C 
HETATM   14  H   UNL     1      41.418 -13.441   7.607  1.00  0.00     0.163 HD
ENDROOT
BRANCH   1  15
HETATM   15  C   UNL     1      40.843 -12.889   3.479  1.00  0.00     0.146 C 
BRANCH  15  16
HETATM   16  C   UNL     1      41.058 -13.307   2.045  1.00  0.00     0.224 C 
HETATM   17  N   UNL     1      40.049 -12.931   1.192  1.00  0.00    -0.327 N 
HETATM   18  H   UNL     1      39.164 -12.636   1.590  1.00  0.00     0.169 HD
HETATM   19  O   UNL     1      42.099 -13.893   1.747  1.00  0.00    -0.273 OA
BRANCH  17  20
HETATM   20  C   UNL     1      40.069 -13.004  -0.220  1.00  0.00     0.035 A 
HETATM   21  C   UNL     1      39.324 -13.932  -0.956  1.00  0.00     0.036 A 
HETATM   22  C   UNL     1      39.432 -13.991  -2.354  1.00  0.00    -0.060 A 
HETATM   23  C   UNL     1      38.636 -14.997  -3.136  1.00  0.00     0.048 C 
HETATM   24  C   UNL     1      40.257 -13.078  -3.017  1.00  0.00     0.007 A 
HETATM   25  C   UNL     1      41.000 -12.150  -2.291  1.00  0.00     0.003 A 
HETATM   26  C   UNL     1      40.917 -12.123  -0.898  1.00  0.00     0.029 A 
ENDBRANCH  17  20
ENDBRANCH  15  16
ENDBRANCH   1  15
TORSDOF 3
ENDMDL
MODEL 9
REMARK VINA RESULT:      -7.4      3.681      4.451
REMARK  3 active torsions:
REMARK  status: ('A' for Active; 'I' for Inactive)
REMARK    1  A    between atoms: C_4  and  N_5 
REMARK       I    between atoms: N_5  and  C_6 
REMARK    2  A    between atoms: C_6  and  C_7 
REMARK    3  A    between atoms: C_7  and  C_8 
ROOT
HETATM    1  C   UNL     1      41.535 -13.477   4.318  1.00  0.00     0.286 C 
HETATM    2  N   UNL     1      40.358 -12.809   5.019  1.00  0.00    -0.056 N 
HETATM    3  H   UNL     1      39.670 -12.533   4.308  1.00  0.00     0.278 HD
HETATM    4  H   UNL     1      39.878 -13.539   5.591  1.00  0.00     0.278 HD
HETATM    5  C   UNL     1      40.726 -11.646   5.899  1.00  0.00     0.209 C 
HETATM    6  C   UNL     1      41.474 -10.600   5.038  1.00  0.00     0.115 C 
HETATM    7  N   UNL     1      42.570 -11.205   4.281  1.00  0.00    -0.353 N 
HETATM    8  C   UNL     1      42.543 -12.466   3.741  1.00  0.00     0.249 C 
HETATM    9  O   UNL     1      43.373 -12.794   2.899  1.00  0.00    -0.271 OA
HETATM   10  C   UNL     1      39.460 -11.087   6.548  1.00  0.00     0.035 C 
HETATM   11  C   UNL     1      38.554 -10.346   5.568  1.00  0.00     0.002 C 
HETATM   12  C   UNL     1      39.320  -9.275   4.800  1.00  0.00     0.002 C 
HETATM   13  C   UNL     1      40.533  -9.857   4.079  1.00  0.00     0.027 C 
HETATM   14  H   UNL     1      43.266 -10.591   3.861  1.00  0.00     0.163 HD
ENDROOT
BRANCH   1  15
HETATM   15  C   UNL     1      42.300 -14.448   5.230  1.00  0.00     0.146 C 
BRANCH  15  16
HETATM   16  C   UNL     1      42.203 -15.877   4.754  1.00  0.00     0.224 C 
HETATM   17  N   UNL     1      43.415 -16.514   4.638  1.00  0.00    -0.327 N 
HETATM   18  H   UNL     1      44.259 -15.952   4.637  1.00  0.00     0.169 HD
HETATM   19  O   UNL     1      41.089 -16.362   4.554  1.00  0.00    -0.273 OA
BRANCH  17  20
HETATM   20  C   UNL     1      43.621 -17.894   4.413  1.00  0.00     0.035 A 
HETATM   21  C   UNL     1      43.617 -18.479   3.142  1.00  0.00     0.036 A 
HETATM   22  C   UNL     1      43.770 -19.866   2.990  1.00  0.00    -0.060 A 
HETATM   23  C   UNL     1      43.755 -20.487   1.622  1.00  0.00     0.048 C 
HETATM   24  C   UNL     1      43.978 -20.661   4.120  1.00  0.00     0.007 A 
HETATM   25  C   UNL     1      43.986 -20.086   5.389  1.00  0.00     0.003 A 
HETATM   26  C   UNL     1      43.795 -18.711   5.535  1.00  0.00     0.029 A 
ENDBRANCH  17  20
ENDBRANCH  15  16
ENDBRANCH   1  15
TORSDOF 3
ENDMDL
MODEL 10
REMARK VINA RESULT:      -7.3      3.367      7.501
REMARK  3 active torsions:
REMARK  status: ('A' for Active; 'I' for Inactive)
REMARK    1  A    between atoms: C_4  and  N_5 
REMARK       I    between atoms: N_5  and  C_6 
REMARK    2  A    between atoms: C_6  and  C_7 
REMARK    3  A    between atoms: C_7  and  C_8 
ROOT
HETATM    1  C   UNL     1      42.222 -16.227   6.499  1.00  0.00     0.286 C 
HETATM    2  N   UNL     1      41.938 -16.507   5.028  1.00  0.00    -0.056 N 
HETATM    3  H   UNL     1      41.609 -17.476   4.939  1.00  0.00     0.278 HD
HETATM    4  H   UNL     1      41.123 -15.917   4.748  1.00  0.00     0.278 HD
HETATM    5  C   UNL     1      43.091 -16.237   4.101  1.00  0.00     0.209 C 
HETATM    6  C   UNL     1      44.298 -17.088   4.563  1.00  0.00     0.115 C 
HETATM    7  N   UNL     1      44.567 -16.916   5.991  1.00  0.00    -0.353 N 
HETATM    8  C   UNL     1      43.604 -16.734   6.951  1.00  0.00     0.249 C 
HETATM    9  O   UNL     1      43.882 -16.872   8.137  1.00  0.00    -0.271 OA
HETATM   10  C   UNL     1      42.662 -16.542   2.666  1.00  0.00     0.035 C 
HETATM   11  C   UNL     1      42.498 -18.034   2.387  1.00  0.00     0.002 C 
HETATM   12  C   UNL     1      43.742 -18.818   2.789  1.00  0.00     0.002 C 
HETATM   13  C   UNL     1      44.111 -18.580   4.250  1.00  0.00     0.027 C 
HETATM   14  H   UNL     1      45.459 -17.242   6.358  1.00  0.00     0.163 HD
ENDROOT
BRANCH   1  15
HETATM   15  C   UNL     1      42.119 -14.736   6.854  1.00  0.00     0.146 C 
BRANCH  15  16
HETATM   16  C   UNL     1      40.929 -14.073   6.204  1.00  0.00     0.224 C 
HETATM   17  N   UNL     1      41.256 -13.096   5.296  1.00  0.00    -0.327 N 
HETATM   18  H   UNL     1      42.201 -12.729   5.299  1.00  0.00     0.169 HD
HETATM   19  O   UNL     1      39.799 -14.469   6.492  1.00  0.00    -0.273 OA
BRANCH  17  20
HETATM   20  C   UNL     1      40.374 -12.453   4.398  1.00  0.00     0.035 A 
HETATM   21  C   UNL     1      39.854 -11.171   4.608  1.00  0.00     0.036 A 
HETATM   22  C   UNL     1      38.936 -10.612   3.706  1.00  0.00    -0.060 A 
HETATM   23  C   UNL     1      38.376  -9.239   3.945  1.00  0.00     0.048 C 
HETATM   24  C   UNL     1      38.578 -11.327   2.560  1.00  0.00     0.007 A 
HETATM   25  C   UNL     1      39.093 -12.604   2.342  1.00  0.00     0.003 A 
HETATM   26  C   UNL     1      39.976 -13.169   3.264  1.00  0.00     0.029 A 
ENDBRANCH  17  20
ENDBRANCH  15  16
ENDBRANCH   1  15
TORSDOF 3
ENDMDL
