MODEL 1
REMARK VINA RESULT:      -8.4      0.000      0.000
REMARK  7 active torsions:
REMARK  status: ('A' for Active; 'I' for Inactive)
REMARK    1  A    between atoms: C_2  and  C_3 
REMARK    2  A    between atoms: C_3  and  O_4 
REMARK    3  A    between atoms: O_4  and  C_5 
REMARK    4  A    between atoms: C_8  and  C_9 
REMARK    5  A    between atoms: C_15  and  C_16 
REMARK    6  A    between atoms: C_19  and  N_20 
REMARK       I    between atoms: N_20  and  C_21 
REMARK    7  A    between atoms: C_29  and  N_30 
ROOT
HETATM    1  C   UNL     1      40.333 -13.975   1.664  1.00  0.00     0.072 A 
HETATM    2  N   UNL     1      40.084 -13.947   0.308  1.00  0.00    -0.274 N 
HETATM    3  H   UNL     1      40.390 -14.618  -0.389  1.00  0.00     0.189 HD
HETATM    4  N   UNL     1      39.348 -12.894  -0.100  1.00  0.00    -0.148 NA
HETATM    5  C   UNL     1      39.121 -12.253   1.038  1.00  0.00     0.199 A 
HETATM    6  C   UNL     1      39.687 -12.855   2.166  1.00  0.00     0.040 A 
HETATM    7  C   UNL     1      39.515 -12.240   3.511  1.00  0.00     0.106 A 
HETATM    8  C   UNL     1      38.702 -10.953   3.430  1.00  0.00     0.081 A 
HETATM    9  C   UNL     1      38.424 -10.295   4.664  1.00  0.00     0.100 C 
HETATM   10  N   UNL     1      38.201  -9.765   5.673  1.00  0.00    -0.191 NA
HETATM   11  C   UNL     1      38.207 -10.465   2.263  1.00  0.00     0.140 A 
HETATM   12  O   UNL     1      38.415 -11.109   1.036  1.00  0.00    -0.277 OA
ENDROOT
BRANCH   7  13
HETATM   13  C   UNL     1      40.909 -12.034   4.091  1.00  0.00    -0.044 A 
HETATM   14  C   UNL     1      41.900 -11.282   3.440  1.00  0.00     0.010 A 
HETATM   15  C   UNL     1      43.167 -11.110   4.013  1.00  0.00     0.030 A 
HETATM   16  C   UNL     1      43.467 -11.671   5.254  1.00  0.00     0.034 A 
HETATM   17  C   UNL     1      42.478 -12.404   5.917  1.00  0.00     0.030 A 
HETATM   18  C   UNL     1      41.214 -12.581   5.347  1.00  0.00     0.010 A 
BRANCH  16  19
HETATM   19  N   UNL     1      44.714 -11.547   5.900  1.00  0.00    -0.328 N 
HETATM   20  C   UNL     1      45.026 -10.754   6.989  1.00  0.00     0.218 C 
HETATM   21  C   UNL     1      46.468 -10.906   7.405  1.00  0.00     0.117 C 
HETATM   22  O   UNL     1      44.270 -10.014   7.606  1.00  0.00    -0.274 OA
HETATM   23  H   UNL     1      45.464 -12.107   5.516  1.00  0.00     0.169 HD
ENDBRANCH  16  19
ENDBRANCH   7  13
BRANCH  11  24
HETATM   24  N   UNL     1      37.458  -9.314   2.136  1.00  0.00    -0.282 NA
HETATM   25  H   UNL     1      37.976  -8.441   2.218  1.00  0.00     0.126 HD
HETATM   26  H   UNL     1      36.859  -9.342   1.314  1.00  0.00     0.126 HD
ENDBRANCH  11  24
BRANCH   1  27
HETATM   27  C   UNL     1      41.162 -14.996   2.293  1.00  0.00    -0.007 A 
HETATM   28  C   UNL     1      42.427 -15.297   1.772  1.00  0.00     0.016 A 
HETATM   29  C   UNL     1      43.253 -16.243   2.390  1.00  0.00     0.037 A 
HETATM   30  C   UNL     1      42.827 -16.897   3.545  1.00  0.00     0.068 A 
HETATM   31  C   UNL     1      41.561 -16.611   4.059  1.00  0.00     0.037 A 
HETATM   32  C   UNL     1      40.731 -15.670   3.439  1.00  0.00     0.016 A 
BRANCH  30  33
HETATM   33  O   UNL     1      43.545 -17.815   4.258  1.00  0.00    -0.351 OA
BRANCH  33  34
HETATM   34  C   UNL     1      44.434 -18.656   3.522  1.00  0.00     0.175 C 
BRANCH  34  35
HETATM   35  C   UNL     1      43.757 -20.010   3.332  1.00  0.00     0.022 C 
HETATM   36  C   UNL     1      43.319 -20.223   1.894  1.00  0.00     0.007 C 
ENDBRANCH  34  35
ENDBRANCH  33  34
ENDBRANCH  30  33
ENDBRANCH   1  27
TORSDOF 7
ENDMDL
MODEL 2
REMARK VINA RESULT:      -8.2      1.237      1.782
REMARK  7 active torsions:
REMARK  status: ('A' for Active; 'I' for Inactive)
REMARK    1  A    between atoms: C_2  and  C_3 
REMARK    2  A    between atoms: C_3  and  O_4 
REMARK    3  A    between atoms: O_4  and  C_5 
REMARK    4  A    between atoms: C_8  and  C_9 
REMARK    5  A    between atoms: C_15  and  C_16 
REMARK    6  A    between atoms: C_19  and  N_20 
REMARK       I    between atoms: N_20  and  C_21 
REMARK    7  A    between atoms: C_29  and  N_30 
ROOT
HETATM    1  C   UNL     1      40.830 -14.412   1.099  1.00  0.00     0.072 A 
HETATM    2  N   UNL     1      40.797 -14.542  -0.275  1.00  0.00    -0.274 N 
HETATM    3  H   UNL     1      41.177 -15.300  -0.831  1.00  0.00     0.189 HD
HETATM    4  N   UNL     1      40.183 -13.526  -0.913  1.00  0.00    -0.148 NA
HETATM    5  C   UNL     1      39.810 -12.746   0.093  1.00  0.00     0.199 A 
HETATM    6  C   UNL     1      40.165 -13.224   1.358  1.00  0.00     0.040 A 
HETATM    7  C   UNL     1      39.814 -12.446   2.579  1.00  0.00     0.106 A 
HETATM    8  C   UNL     1      39.083 -11.157   2.222  1.00  0.00     0.081 A 
HETATM    9  C   UNL     1      38.647 -10.348   3.312  1.00  0.00     0.100 C 
HETATM   10  N   UNL     1      38.293  -9.695   4.204  1.00  0.00    -0.191 NA
HETATM   11  C   UNL     1      38.799 -10.800   0.942  1.00  0.00     0.140 A 
HETATM   12  O   UNL     1      39.166 -11.593  -0.154  1.00  0.00    -0.277 OA
ENDROOT
BRANCH   7  13
HETATM   13  C   UNL     1      41.109 -12.210   3.347  1.00  0.00    -0.044 A 
HETATM   14  C   UNL     1      42.255 -11.658   2.754  1.00  0.00     0.010 A 
HETATM   15  C   UNL     1      43.423 -11.448   3.499  1.00  0.00     0.030 A 
HETATM   16  C   UNL     1      43.467 -11.770   4.855  1.00  0.00     0.034 A 
HETATM   17  C   UNL     1      42.322 -12.301   5.458  1.00  0.00     0.030 A 
HETATM   18  C   UNL     1      41.157 -12.515   4.716  1.00  0.00     0.010 A 
BRANCH  16  19
HETATM   19  N   UNL     1      44.599 -11.592   5.676  1.00  0.00    -0.328 N 
HETATM   20  C   UNL     1      44.692 -10.846   6.837  1.00  0.00     0.218 C 
HETATM   21  C   UNL     1      46.071 -10.913   7.445  1.00  0.00     0.117 C 
HETATM   22  O   UNL     1      43.799 -10.204   7.377  1.00  0.00    -0.274 OA
HETATM   23  H   UNL     1      45.439 -12.070   5.376  1.00  0.00     0.169 HD
ENDBRANCH  16  19
ENDBRANCH   7  13
BRANCH  11  24
HETATM   24  N   UNL     1      38.133  -9.653   0.566  1.00  0.00    -0.282 NA
HETATM   25  H   UNL     1      38.096  -8.916   1.266  1.00  0.00     0.126 HD
HETATM   26  H   UNL     1      38.442  -9.319  -0.344  1.00  0.00     0.126 HD
ENDBRANCH  11  24
BRANCH   1  27
HETATM   27  C   UNL     1      41.503 -15.373   1.965  1.00  0.00    -0.007 A 
HETATM   28  C   UNL     1      42.786 -15.836   1.642  1.00  0.00     0.016 A 
HETATM   29  C   UNL     1      43.464 -16.723   2.486  1.00  0.00     0.037 A 
HETATM   30  C   UNL     1      42.870 -17.154   3.671  1.00  0.00     0.068 A 
HETATM   31  C   UNL     1      41.586 -16.706   3.990  1.00  0.00     0.037 A 
HETATM   32  C   UNL     1      40.905 -15.825   3.144  1.00  0.00     0.016 A 
BRANCH  30  33
HETATM   33  O   UNL     1      43.433 -17.992   4.593  1.00  0.00    -0.351 OA
BRANCH  33  34
HETATM   34  C   UNL     1      43.423 -17.558   5.953  1.00  0.00     0.175 C 
BRANCH  34  35
HETATM   35  C   UNL     1      44.531 -16.523   6.128  1.00  0.00     0.022 C 
HETATM   36  C   UNL     1      43.979 -15.173   6.548  1.00  0.00     0.007 C 
ENDBRANCH  34  35
ENDBRANCH  33  34
ENDBRANCH  30  33
ENDBRANCH   1  27
TORSDOF 7
ENDMDL
MODEL 3
REMARK VINA RESULT:      -7.9      1.918      6.063
REMARK  7 active torsions:
REMARK  status: ('A' for Active; 'I' for Inactive)
REMARK    1  A    between atoms: C_2  and  C_3 
REMARK    2  A    between atoms: C_3  and  O_4 
REMARK    3  A    between atoms: O_4  and  C_5 
REMARK    4  A    between atoms: C_8  and  C_9 
REMARK    5  A    between atoms: C_15  and  C_16 
REMARK    6  A    between atoms: C_19  and  N_20 
REMARK       I    between atoms: N_20  and  C_21 
REMARK    7  A    between atoms: C_29  and  N_30 
ROOT
HETATM    1  C   UNL     1      40.026 -11.555   2.864  1.00  0.00     0.072 A 
HETATM    2  N   UNL     1      38.867 -10.942   3.294  1.00  0.00    -0.274 N 
HETATM    3  H   UNL     1      38.688 -10.530   4.204  1.00  0.00     0.189 HD
HETATM    4  N   UNL     1      37.883 -10.908   2.373  1.00  0.00    -0.148 NA
HETATM    5  C   UNL     1      38.451 -11.505   1.334  1.00  0.00     0.199 A 
HETATM    6  C   UNL     1      39.766 -11.925   1.554  1.00  0.00     0.040 A 
HETATM    7  C   UNL     1      40.523 -12.616   0.474  1.00  0.00     0.106 A 
HETATM    8  C   UNL     1      39.674 -12.774  -0.783  1.00  0.00     0.081 A 
HETATM    9  C   UNL     1      40.308 -13.377  -1.909  1.00  0.00     0.100 C 
HETATM   10  N   UNL     1      40.829 -13.867  -2.823  1.00  0.00    -0.191 NA
HETATM   11  C   UNL     1      38.396 -12.323  -0.871  1.00  0.00     0.140 A 
HETATM   12  O   UNL     1      37.755 -11.681   0.197  1.00  0.00    -0.277 OA
ENDROOT
BRANCH   7  13
HETATM   13  C   UNL     1      41.006 -13.944   1.043  1.00  0.00    -0.044 A 
HETATM   14  C   UNL     1      40.132 -14.989   1.382  1.00  0.00     0.010 A 
HETATM   15  C   UNL     1      40.619 -16.198   1.895  1.00  0.00     0.030 A 
HETATM   16  C   UNL     1      41.989 -16.397   2.066  1.00  0.00     0.034 A 
HETATM   17  C   UNL     1      42.867 -15.368   1.712  1.00  0.00     0.030 A 
HETATM   18  C   UNL     1      42.384 -14.159   1.203  1.00  0.00     0.010 A 
BRANCH  16  19
HETATM   19  N   UNL     1      42.561 -17.580   2.575  1.00  0.00    -0.328 N 
HETATM   20  C   UNL     1      43.415 -17.709   3.656  1.00  0.00     0.218 C 
HETATM   21  C   UNL     1      43.802 -19.146   3.903  1.00  0.00     0.117 C 
HETATM   22  O   UNL     1      43.827 -16.814   4.383  1.00  0.00    -0.274 OA
HETATM   23  H   UNL     1      42.314 -18.432   2.088  1.00  0.00     0.169 HD
ENDBRANCH  16  19
ENDBRANCH   7  13
BRANCH  11  24
HETATM   24  N   UNL     1      37.589 -12.431  -1.984  1.00  0.00    -0.282 NA
HETATM   25  H   UNL     1      37.870 -13.135  -2.664  1.00  0.00     0.126 HD
HETATM   26  H   UNL     1      36.606 -12.496  -1.732  1.00  0.00     0.126 HD
ENDBRANCH  11  24
BRANCH   1  27
HETATM   27  C   UNL     1      41.183 -11.749   3.731  1.00  0.00    -0.007 A 
HETATM   28  C   UNL     1      41.168 -12.746   4.714  1.00  0.00     0.016 A 
HETATM   29  C   UNL     1      42.287 -12.974   5.523  1.00  0.00     0.037 A 
HETATM   30  C   UNL     1      43.441 -12.212   5.354  1.00  0.00     0.068 A 
HETATM   31  C   UNL     1      43.456 -11.207   4.384  1.00  0.00     0.037 A 
HETATM   32  C   UNL     1      42.336 -10.973   3.579  1.00  0.00     0.016 A 
BRANCH  30  33
HETATM   33  O   UNL     1      44.607 -12.352   6.055  1.00  0.00    -0.351 OA
BRANCH  33  34
HETATM   34  C   UNL     1      45.419 -11.186   6.199  1.00  0.00     0.175 C 
BRANCH  34  35
HETATM   35  C   UNL     1      45.409 -10.783   7.671  1.00  0.00     0.022 C 
HETATM   36  C   UNL     1      46.294  -9.576   7.929  1.00  0.00     0.007 C 
ENDBRANCH  34  35
ENDBRANCH  33  34
ENDBRANCH  30  33
ENDBRANCH   1  27
TORSDOF 7
ENDMDL
MODEL 4
REMARK VINA RESULT:      -7.8      2.764      5.485
REMARK  7 active torsions:
REMARK  status: ('A' for Active; 'I' for Inactive)
REMARK    1  A    between atoms: C_2  and  C_3 
REMARK    2  A    between atoms: C_3  and  O_4 
REMARK    3  A    between atoms: O_4  and  C_5 
REMARK    4  A    between atoms: C_8  and  C_9 
REMARK    5  A    between atoms: C_15  and  C_16 
REMARK    6  A    between atoms: C_19  and  N_20 
REMARK       I    between atoms: N_20  and  C_21 
REMARK    7  A    between atoms: C_29  and  N_30 
ROOT
HETATM    1  C   UNL     1      40.267 -13.094   4.447  1.00  0.00     0.072 A 
HETATM    2  N   UNL     1      39.554 -13.362   5.598  1.00  0.00    -0.274 N 
HETATM    3  H   UNL     1      39.494 -14.245   6.094  1.00  0.00     0.189 HD
HETATM    4  N   UNL     1      38.873 -12.307   6.087  1.00  0.00    -0.148 NA
HETATM    5  C   UNL     1      39.181 -11.349   5.223  1.00  0.00     0.199 A 
HETATM    6  C   UNL     1      40.035 -11.751   4.192  1.00  0.00     0.040 A 
HETATM    7  C   UNL     1      40.460 -10.779   3.147  1.00  0.00     0.106 A 
HETATM    8  C   UNL     1      39.837  -9.407   3.383  1.00  0.00     0.081 A 
HETATM    9  C   UNL     1      40.210  -8.373   2.475  1.00  0.00     0.100 C 
HETATM   10  N   UNL     1      40.518  -7.535   1.734  1.00  0.00    -0.191 NA
HETATM   11  C   UNL     1      39.011  -9.142   4.429  1.00  0.00     0.140 A 
HETATM   12  O   UNL     1      38.661 -10.118   5.371  1.00  0.00    -0.277 OA
ENDROOT
BRANCH   7  13
HETATM   13  C   UNL     1      40.091 -11.382   1.797  1.00  0.00    -0.044 A 
HETATM   14  C   UNL     1      41.051 -11.845   0.884  1.00  0.00     0.010 A 
HETATM   15  C   UNL     1      40.668 -12.401  -0.344  1.00  0.00     0.030 A 
HETATM   16  C   UNL     1      39.319 -12.522  -0.679  1.00  0.00     0.034 A 
HETATM   17  C   UNL     1      38.357 -12.081   0.235  1.00  0.00     0.030 A 
HETATM   18  C   UNL     1      38.736 -11.522   1.459  1.00  0.00     0.010 A 
BRANCH  16  19
HETATM   19  N   UNL     1      38.849 -13.068  -1.890  1.00  0.00    -0.328 N 
HETATM   20  C   UNL     1      38.786 -14.402  -2.248  1.00  0.00     0.218 C 
HETATM   21  C   UNL     1      38.204 -14.592  -3.627  1.00  0.00     0.117 C 
HETATM   22  O   UNL     1      39.120 -15.366  -1.570  1.00  0.00    -0.274 OA
HETATM   23  H   UNL     1      38.519 -12.399  -2.575  1.00  0.00     0.169 HD
ENDBRANCH  16  19
ENDBRANCH   7  13
BRANCH  11  24
HETATM   24  N   UNL     1      38.431  -7.919   4.693  1.00  0.00    -0.282 NA
HETATM   25  H   UNL     1      37.625  -7.681   4.119  1.00  0.00     0.126 HD
HETATM   26  H   UNL     1      38.260  -7.791   5.688  1.00  0.00     0.126 HD
ENDBRANCH  11  24
BRANCH   1  27
HETATM   27  C   UNL     1      41.017 -14.117   3.729  1.00  0.00    -0.007 A 
HETATM   28  C   UNL     1      42.411 -14.188   3.853  1.00  0.00     0.016 A 
HETATM   29  C   UNL     1      43.141 -15.192   3.207  1.00  0.00     0.037 A 
HETATM   30  C   UNL     1      42.484 -16.146   2.432  1.00  0.00     0.068 A 
HETATM   31  C   UNL     1      41.096 -16.072   2.293  1.00  0.00     0.037 A 
HETATM   32  C   UNL     1      40.366 -15.064   2.934  1.00  0.00     0.016 A 
BRANCH  30  33
HETATM   33  O   UNL     1      43.073 -17.191   1.775  1.00  0.00    -0.351 OA
BRANCH  33  34
HETATM   34  C   UNL     1      42.911 -18.489   2.347  1.00  0.00     0.175 C 
BRANCH  34  35
HETATM   35  C   UNL     1      44.235 -18.890   2.990  1.00  0.00     0.022 C 
HETATM   36  C   UNL     1      44.230 -18.645   4.489  1.00  0.00     0.007 C 
ENDBRANCH  34  35
ENDBRANCH  33  34
ENDBRANCH  30  33
ENDBRANCH   1  27
TORSDOF 7
ENDMDL
MODEL 5
REMARK VINA RESULT:      -7.5      2.994      7.650
REMARK  7 active torsions:
REMARK  status: ('A' for Active; 'I' for Inactive)
REMARK    1  A    between atoms: C_2  and  C_3 
REMARK    2  A    between atoms: C_3  and  O_4 
REMARK    3  A    between atoms: O_4  and  C_5 
REMARK    4  A    between atoms: C_8  and  C_9 
REMARK    5  A    between atoms: C_15  and  C_16 
REMARK    6  A    between atoms: C_19  and  N_20 
REMARK       I    between atoms: N_20  and  C_21 
REMARK    7  A    between atoms: C_29  and  N_30 
ROOT
HETATM    1  C   UNL     1      42.944 -11.487   4.892  1.00  0.00     0.072 A 
HETATM    2  N   UNL     1      44.248 -11.229   5.264  1.00  0.00    -0.274 N 
HETATM    3  H   UNL     1      44.828 -10.449   4.976  1.00  0.00     0.189 HD
HETATM    4  N   UNL     1      44.775 -12.141   6.105  1.00  0.00    -0.148 NA
HETATM    5  C   UNL     1      43.767 -12.985   6.273  1.00  0.00     0.199 A 
HETATM    6  C   UNL     1      42.607 -12.651   5.567  1.00  0.00     0.040 A 
HETATM    7  C   UNL     1      41.397 -13.514   5.659  1.00  0.00     0.106 A 
HETATM    8  C   UNL     1      41.643 -14.716   6.564  1.00  0.00     0.081 A 
HETATM    9  C   UNL     1      40.539 -15.593   6.774  1.00  0.00     0.100 C 
HETATM   10  N   UNL     1      39.636 -16.302   6.942  1.00  0.00    -0.191 NA
HETATM   11  C   UNL     1      42.827 -14.934   7.195  1.00  0.00     0.140 A 
HETATM   12  O   UNL     1      43.919 -14.069   7.054  1.00  0.00    -0.277 OA
ENDROOT
BRANCH   7  13
HETATM   13  C   UNL     1      41.014 -13.902   4.236  1.00  0.00    -0.044 A 
HETATM   14  C   UNL     1      41.807 -14.740   3.437  1.00  0.00     0.010 A 
HETATM   15  C   UNL     1      41.414 -15.079   2.136  1.00  0.00     0.030 A 
HETATM   16  C   UNL     1      40.213 -14.603   1.610  1.00  0.00     0.034 A 
HETATM   17  C   UNL     1      39.408 -13.784   2.408  1.00  0.00     0.030 A 
HETATM   18  C   UNL     1      39.800 -13.440   3.705  1.00  0.00     0.010 A 
BRANCH  16  19
HETATM   19  N   UNL     1      39.743 -14.895   0.314  1.00  0.00    -0.328 N 
HETATM   20  C   UNL     1      39.788 -14.081  -0.804  1.00  0.00     0.218 C 
HETATM   21  C   UNL     1      39.198 -14.755  -2.018  1.00  0.00     0.117 C 
HETATM   22  O   UNL     1      40.256 -12.952  -0.879  1.00  0.00    -0.274 OA
HETATM   23  H   UNL     1      39.326 -15.809   0.193  1.00  0.00     0.169 HD
ENDBRANCH  16  19
ENDBRANCH   7  13
BRANCH  11  24
HETATM   24  N   UNL     1      43.098 -15.997   8.030  1.00  0.00    -0.282 NA
HETATM   25  H   UNL     1      43.592 -15.767   8.889  1.00  0.00     0.126 HD
HETATM   26  H   UNL     1      42.272 -16.570   8.190  1.00  0.00     0.126 HD
ENDBRANCH  11  24
BRANCH   1  27
HETATM   27  C   UNL     1      42.217 -10.655   3.941  1.00  0.00    -0.007 A 
HETATM   28  C   UNL     1      42.235 -10.966   2.575  1.00  0.00     0.016 A 
HETATM   29  C   UNL     1      41.505 -10.204   1.655  1.00  0.00     0.037 A 
HETATM   30  C   UNL     1      40.740  -9.123   2.091  1.00  0.00     0.068 A 
HETATM   31  C   UNL     1      40.731  -8.802   3.449  1.00  0.00     0.037 A 
HETATM   32  C   UNL     1      41.465  -9.558   4.370  1.00  0.00     0.016 A 
BRANCH  30  33
HETATM   33  O   UNL     1      39.963  -8.320   1.303  1.00  0.00    -0.351 OA
BRANCH  33  34
HETATM   34  C   UNL     1      39.036  -8.970   0.432  1.00  0.00     0.175 C 
BRANCH  34  35
HETATM   35  C   UNL     1      37.858  -9.454   1.272  1.00  0.00     0.022 C 
HETATM   36  C   UNL     1      37.557 -10.922   1.025  1.00  0.00     0.007 C 
ENDBRANCH  34  35
ENDBRANCH  33  34
ENDBRANCH  30  33
ENDBRANCH   1  27
TORSDOF 7
ENDMDL
MODEL 6
REMARK VINA RESULT:      -7.4      2.982      6.195
REMARK  7 active torsions:
REMARK  status: ('A' for Active; 'I' for Inactive)
REMARK    1  A    between atoms: C_2  and  C_3 
REMARK    2  A    between atoms: C_3  and  O_4 
REMARK    3  A    between atoms: O_4  and  C_5 
REMARK    4  A    between atoms: C_8  and  C_9 
REMARK    5  A    between atoms: C_15  and  C_16 
REMARK    6  A    between atoms: C_19  and  N_20 
REMARK       I    between atoms: N_20  and  C_21 
REMARK    7  A    between atoms: C_29  and  N_30 
ROOT
HETATM    1  C   UNL     1      40.646 -14.914   3.654  1.00  0.00     0.072 A 
HETATM    2  N   UNL     1      39.971 -16.060   4.021  1.00  0.00    -0.274 N 
HETATM    3  H   UNL     1      39.280 -16.569   3.480  1.00  0.00     0.189 HD
HETATM    4  N   UNL     1      40.292 -16.525   5.245  1.00  0.00    -0.148 NA
HETATM    5  C   UNL     1      41.204 -15.650   5.647  1.00  0.00     0.199 A 
HETATM    6  C   UNL     1      41.480 -14.636   4.726  1.00  0.00     0.040 A 
HETATM    7  C   UNL     1      42.481 -13.581   5.048  1.00  0.00     0.106 A 
HETATM    8  C   UNL     1      43.075 -13.788   6.437  1.00  0.00     0.081 A 
HETATM    9  C   UNL     1      44.086 -12.869   6.842  1.00  0.00     0.100 C 
HETATM   10  N   UNL     1      44.910 -12.118   7.165  1.00  0.00    -0.191 NA
HETATM   11  C   UNL     1      42.716 -14.820   7.246  1.00  0.00     0.140 A 
HETATM   12  O   UNL     1      41.763 -15.772   6.864  1.00  0.00    -0.277 OA
ENDROOT
BRANCH   7  13
HETATM   13  C   UNL     1      41.782 -12.236   4.887  1.00  0.00    -0.044 A 
HETATM   14  C   UNL     1      42.222 -11.254   3.986  1.00  0.00     0.010 A 
HETATM   15  C   UNL     1      41.545 -10.033   3.864  1.00  0.00     0.030 A 
HETATM   16  C   UNL     1      40.406  -9.774   4.625  1.00  0.00     0.034 A 
HETATM   17  C   UNL     1      39.950 -10.756   5.510  1.00  0.00     0.030 A 
HETATM   18  C   UNL     1      40.626 -11.973   5.637  1.00  0.00     0.010 A 
BRANCH  16  19
HETATM   19  N   UNL     1      39.667  -8.575   4.564  1.00  0.00    -0.328 N 
HETATM   20  C   UNL     1      38.550  -8.309   3.792  1.00  0.00     0.218 C 
HETATM   21  C   UNL     1      38.029  -6.911   4.014  1.00  0.00     0.117 C 
HETATM   22  O   UNL     1      37.985  -9.075   3.021  1.00  0.00    -0.274 OA
HETATM   23  H   UNL     1      39.997  -7.825   5.157  1.00  0.00     0.169 HD
ENDBRANCH  16  19
ENDBRANCH   7  13
BRANCH  11  24
HETATM   24  N   UNL     1      43.228 -15.058   8.503  1.00  0.00    -0.282 NA
HETATM   25  H   UNL     1      43.056 -14.330   9.194  1.00  0.00     0.126 HD
HETATM   26  H   UNL     1      42.985 -15.987   8.840  1.00  0.00     0.126 HD
ENDBRANCH  11  24
BRANCH   1  27
HETATM   27  C   UNL     1      40.394 -14.221   2.396  1.00  0.00    -0.007 A 
HETATM   28  C   UNL     1      40.999 -14.665   1.213  1.00  0.00     0.016 A 
HETATM   29  C   UNL     1      40.732 -14.039  -0.010  1.00  0.00     0.037 A 
HETATM   30  C   UNL     1      39.849 -12.962  -0.068  1.00  0.00     0.068 A 
HETATM   31  C   UNL     1      39.254 -12.508   1.111  1.00  0.00     0.037 A 
HETATM   32  C   UNL     1      39.525 -13.128   2.336  1.00  0.00     0.016 A 
BRANCH  30  33
HETATM   33  O   UNL     1      39.481 -12.284  -1.196  1.00  0.00    -0.351 OA
BRANCH  33  34
HETATM   34  C   UNL     1      39.775 -12.905  -2.449  1.00  0.00     0.175 C 
BRANCH  34  35
HETATM   35  C   UNL     1      38.504 -13.583  -2.950  1.00  0.00     0.022 C 
HETATM   36  C   UNL     1      38.628 -15.096  -2.929  1.00  0.00     0.007 C 
ENDBRANCH  34  35
ENDBRANCH  33  34
ENDBRANCH  30  33
ENDBRANCH   1  27
TORSDOF 7
ENDMDL
MODEL 7
REMARK VINA RESULT:      -7.4      2.386      3.560
REMARK  7 active torsions:
REMARK  status: ('A' for Active; 'I' for Inactive)
REMARK    1  A    between atoms: C_2  and  C_3 
REMARK    2  A    between atoms: C_3  and  O_4 
REMARK    3  A    between atoms: O_4  and  C_5 
REMARK    4  A    between atoms: C_8  and  C_9 
REMARK    5  A    between atoms: C_15  and  C_16 
REMARK    6  A    between atoms: C_19  and  N_20 
REMARK       I    between atoms: N_20  and  C_21 
REMARK    7  A    between atoms: C_29  and  N_30 
ROOT
HETATM    1  C   UNL     1      40.194 -13.779  -0.790  1.00  0.00     0.072 A 
HETATM    2  N   UNL     1      40.795 -13.967  -2.018  1.00  0.00    -0.274 N 
HETATM    3  H   UNL     1      41.508 -14.647  -2.257  1.00  0.00     0.189 HD
HETATM    4  N   UNL     1      40.359 -13.133  -2.983  1.00  0.00    -0.148 NA
HETATM    5  C   UNL     1      39.449 -12.412  -2.341  1.00  0.00     0.199 A 
HETATM    6  C   UNL     1      39.286 -12.751  -0.994  1.00  0.00     0.040 A 
HETATM    7  C   UNL     1      38.301 -12.020  -0.150  1.00  0.00     0.106 A 
HETATM    8  C   UNL     1      37.589 -10.933  -0.948  1.00  0.00     0.081 A 
HETATM    9  C   UNL     1      36.582 -10.194  -0.261  1.00  0.00     0.100 C 
HETATM   10  N   UNL     1      35.761  -9.597   0.303  1.00  0.00    -0.191 NA
HETATM   11  C   UNL     1      37.843 -10.696  -2.262  1.00  0.00     0.140 A 
HETATM   12  O   UNL     1      38.789 -11.434  -2.985  1.00  0.00    -0.277 OA
ENDROOT
BRANCH   7  13
HETATM   13  C   UNL     1      39.058 -11.481   1.057  1.00  0.00    -0.044 A 
HETATM   14  C   UNL     1      40.078 -10.523   0.949  1.00  0.00     0.010 A 
HETATM   15  C   UNL     1      40.744 -10.046   2.086  1.00  0.00     0.030 A 
HETATM   16  C   UNL     1      40.394 -10.504   3.356  1.00  0.00     0.034 A 
HETATM   17  C   UNL     1      39.365 -11.443   3.473  1.00  0.00     0.030 A 
HETATM   18  C   UNL     1      38.702 -11.923   2.340  1.00  0.00     0.010 A 
BRANCH  16  19
HETATM   19  N   UNL     1      41.012 -10.079   4.550  1.00  0.00    -0.328 N 
HETATM   20  C   UNL     1      42.057 -10.685   5.224  1.00  0.00     0.218 C 
HETATM   21  C   UNL     1      42.454  -9.918   6.460  1.00  0.00     0.117 C 
HETATM   22  O   UNL     1      42.651 -11.706   4.901  1.00  0.00    -0.274 OA
HETATM   23  H   UNL     1      40.642  -9.229   4.957  1.00  0.00     0.169 HD
ENDBRANCH  16  19
ENDBRANCH   7  13
BRANCH  11  24
HETATM   24  N   UNL     1      37.222  -9.735  -3.030  1.00  0.00    -0.282 NA
HETATM   25  H   UNL     1      36.522  -9.172  -2.551  1.00  0.00     0.126 HD
HETATM   26  H   UNL     1      37.895  -9.173  -3.547  1.00  0.00     0.126 HD
ENDBRANCH  11  24
BRANCH   1  27
HETATM   27  C   UNL     1      40.572 -14.538   0.396  1.00  0.00    -0.007 A 
HETATM   28  C   UNL     1      39.824 -15.656   0.786  1.00  0.00     0.016 A 
HETATM   29  C   UNL     1      40.200 -16.422   1.896  1.00  0.00     0.037 A 
HETATM   30  C   UNL     1      41.337 -16.082   2.628  1.00  0.00     0.068 A 
HETATM   31  C   UNL     1      42.077 -14.960   2.252  1.00  0.00     0.037 A 
HETATM   32  C   UNL     1      41.698 -14.189   1.146  1.00  0.00     0.016 A 
BRANCH  30  33
HETATM   33  O   UNL     1      41.827 -16.759   3.709  1.00  0.00    -0.351 OA
BRANCH  33  34
HETATM   34  C   UNL     1      43.199 -16.541   4.042  1.00  0.00     0.175 C 
BRANCH  34  35
HETATM   35  C   UNL     1      43.860 -17.903   4.236  1.00  0.00     0.022 C 
HETATM   36  C   UNL     1      43.898 -18.699   2.944  1.00  0.00     0.007 C 
ENDBRANCH  34  35
ENDBRANCH  33  34
ENDBRANCH  30  33
ENDBRANCH   1  27
TORSDOF 7
ENDMDL
MODEL 8
REMARK VINA RESULT:      -7.3      2.428      5.438
REMARK  7 active torsions:
REMARK  status: ('A' for Active; 'I' for Inactive)
REMARK    1  A    between atoms: C_2  and  C_3 
REMARK    2  A    between atoms: C_3  and  O_4 
REMARK    3  A    between atoms: O_4  and  C_5 
REMARK    4  A    between atoms: C_8  and  C_9 
REMARK    5  A    between atoms: C_15  and  C_16 
REMARK    6  A    between atoms: C_19  and  N_20 
REMARK       I    between atoms: N_20  and  C_21 
REMARK    7  A    between atoms: C_29  and  N_30 
ROOT
HETATM    1  C   UNL     1      40.226 -11.896   6.051  1.00  0.00     0.072 A 
HETATM    2  N   UNL     1      39.442 -11.908   7.187  1.00  0.00    -0.274 N 
HETATM    3  H   UNL     1      39.391 -12.635   7.892  1.00  0.00     0.189 HD
HETATM    4  N   UNL     1      38.671 -10.814   7.340  1.00  0.00    -0.148 NA
HETATM    5  C   UNL     1      38.992 -10.092   6.275  1.00  0.00     0.199 A 
HETATM    6  C   UNL     1      39.944 -10.684   5.440  1.00  0.00     0.040 A 
HETATM    7  C   UNL     1      40.395  -9.986   4.204  1.00  0.00     0.106 A 
HETATM    8  C   UNL     1      39.685  -8.648   4.034  1.00  0.00     0.081 A 
HETATM    9  C   UNL     1      40.071  -7.859   2.911  1.00  0.00     0.100 C 
HETATM   10  N   UNL     1      40.390  -7.221   1.995  1.00  0.00    -0.191 NA
HETATM   11  C   UNL     1      38.768  -8.182   4.921  1.00  0.00     0.140 A 
HETATM   12  O   UNL     1      38.399  -8.904   6.063  1.00  0.00    -0.277 OA
ENDROOT
BRANCH   7  13
HETATM   13  C   UNL     1      40.164 -10.942   3.040  1.00  0.00    -0.044 A 
HETATM   14  C   UNL     1      41.214 -11.522   2.312  1.00  0.00     0.010 A 
HETATM   15  C   UNL     1      40.957 -12.404   1.253  1.00  0.00     0.030 A 
HETATM   16  C   UNL     1      39.647 -12.736   0.909  1.00  0.00     0.034 A 
HETATM   17  C   UNL     1      38.596 -12.178   1.643  1.00  0.00     0.030 A 
HETATM   18  C   UNL     1      38.849 -11.295   2.697  1.00  0.00     0.010 A 
BRANCH  16  19
HETATM   19  N   UNL     1      39.301 -13.612  -0.140  1.00  0.00    -0.328 N 
HETATM   20  C   UNL     1      39.203 -13.319  -1.488  1.00  0.00     0.218 C 
HETATM   21  C   UNL     1      38.822 -14.529  -2.304  1.00  0.00     0.117 C 
HETATM   22  O   UNL     1      39.410 -12.238  -2.027  1.00  0.00    -0.274 OA
HETATM   23  H   UNL     1      39.102 -14.567   0.132  1.00  0.00     0.169 HD
ENDBRANCH  16  19
ENDBRANCH   7  13
BRANCH  11  24
HETATM   24  N   UNL     1      38.105  -6.977   4.820  1.00  0.00    -0.282 NA
HETATM   25  H   UNL     1      38.236  -6.336   5.599  1.00  0.00     0.126 HD
HETATM   26  H   UNL     1      38.260  -6.537   3.916  1.00  0.00     0.126 HD
ENDBRANCH  11  24
BRANCH   1  27
HETATM   27  C   UNL     1      41.083 -13.013   5.674  1.00  0.00    -0.007 A 
HETATM   28  C   UNL     1      40.550 -14.108   4.981  1.00  0.00     0.016 A 
HETATM   29  C   UNL     1      41.368 -15.167   4.571  1.00  0.00     0.037 A 
HETATM   30  C   UNL     1      42.734 -15.142   4.843  1.00  0.00     0.068 A 
HETATM   31  C   UNL     1      43.268 -14.060   5.545  1.00  0.00     0.037 A 
HETATM   32  C   UNL     1      42.450 -13.003   5.961  1.00  0.00     0.016 A 
BRANCH  30  33
HETATM   33  O   UNL     1      43.644 -16.094   4.474  1.00  0.00    -0.351 OA
BRANCH  33  34
HETATM   34  C   UNL     1      43.145 -17.415   4.255  1.00  0.00     0.175 C 
BRANCH  34  35
HETATM   35  C   UNL     1      43.304 -17.740   2.773  1.00  0.00     0.022 C 
HETATM   36  C   UNL     1      43.639 -19.204   2.550  1.00  0.00     0.007 C 
ENDBRANCH  34  35
ENDBRANCH  33  34
ENDBRANCH  30  33
ENDBRANCH   1  27
TORSDOF 7
ENDMDL
MODEL 9
REMARK VINA RESULT:      -7.3     16.780     20.322
REMARK  7 active torsions:
REMARK  status: ('A' for Active; 'I' for Inactive)
REMARK    1  A    between atoms: C_2  and  C_3 
REMARK    2  A    between atoms: C_3  and  O_4 
REMARK    3  A    between atoms: O_4  and  C_5 
REMARK    4  A    between atoms: C_8  and  C_9 
REMARK    5  A    between atoms: C_15  and  C_16 
REMARK    6  A    between atoms: C_19  and  N_20 
REMARK       I    between atoms: N_20  and  C_21 
REMARK    7  A    between atoms: C_29  and  N_30 
ROOT
HETATM    1  C   UNL     1      48.007 -28.858   1.777  1.00  0.00     0.072 A 
HETATM    2  N   UNL     1      48.264 -27.828   2.658  1.00  0.00    -0.274 N 
HETATM    3  H   UNL     1      47.982 -26.857   2.571  1.00  0.00     0.189 HD
HETATM    4  N   UNL     1      48.975 -28.191   3.744  1.00  0.00    -0.148 NA
HETATM    5  C   UNL     1      49.155 -29.489   3.540  1.00  0.00     0.199 A 
HETATM    6  C   UNL     1      48.586 -29.975   2.359  1.00  0.00     0.040 A 
HETATM    7  C   UNL     1      48.715 -31.414   2.001  1.00  0.00     0.106 A 
HETATM    8  C   UNL     1      49.516 -32.176   3.051  1.00  0.00     0.081 A 
HETATM    9  C   UNL     1      49.665 -33.579   2.846  1.00  0.00     0.100 C 
HETATM   10  N   UNL     1      49.782 -34.721   2.674  1.00  0.00    -0.191 NA
HETATM   11  C   UNL     1      50.025 -31.584   4.163  1.00  0.00     0.140 A 
HETATM   12  O   UNL     1      49.857 -30.218   4.426  1.00  0.00    -0.277 OA
ENDROOT
BRANCH   7  13
HETATM   13  C   UNL     1      49.336 -31.476   0.611  1.00  0.00    -0.044 A 
HETATM   14  C   UNL     1      50.620 -30.984   0.329  1.00  0.00     0.010 A 
HETATM   15  C   UNL     1      51.157 -31.069  -0.962  1.00  0.00     0.030 A 
HETATM   16  C   UNL     1      50.432 -31.661  -1.996  1.00  0.00     0.034 A 
HETATM   17  C   UNL     1      49.161 -32.173  -1.717  1.00  0.00     0.030 A 
HETATM   18  C   UNL     1      48.620 -32.086  -0.431  1.00  0.00     0.010 A 
BRANCH  16  19
HETATM   19  N   UNL     1      50.897 -31.787  -3.321  1.00  0.00    -0.328 N 
HETATM   20  C   UNL     1      51.703 -32.783  -3.842  1.00  0.00     0.218 C 
HETATM   21  C   UNL     1      51.973 -32.580  -5.312  1.00  0.00     0.117 C 
HETATM   22  O   UNL     1      52.158 -33.753  -3.248  1.00  0.00    -0.274 OA
HETATM   23  H   UNL     1      50.602 -31.060  -3.960  1.00  0.00     0.169 HD
ENDBRANCH  16  19
ENDBRANCH   7  13
BRANCH  11  24
HETATM   24  N   UNL     1      50.746 -32.227   5.147  1.00  0.00    -0.282 NA
HETATM   25  H   UNL     1      50.977 -33.200   4.958  1.00  0.00     0.126 HD
HETATM   26  H   UNL     1      51.551 -31.680   5.442  1.00  0.00     0.126 HD
ENDBRANCH  11  24
BRANCH   1  27
HETATM   27  C   UNL     1      47.307 -28.657   0.514  1.00  0.00    -0.007 A 
HETATM   28  C   UNL     1      45.910 -28.740   0.460  1.00  0.00     0.016 A 
HETATM   29  C   UNL     1      45.221 -28.505  -0.736  1.00  0.00     0.037 A 
HETATM   30  C   UNL     1      45.921 -28.176  -1.895  1.00  0.00     0.068 A 
HETATM   31  C   UNL     1      47.315 -28.106  -1.849  1.00  0.00     0.037 A 
HETATM   32  C   UNL     1      48.006 -28.347  -0.656  1.00  0.00     0.016 A 
BRANCH  30  33
HETATM   33  O   UNL     1      45.370 -27.896  -3.114  1.00  0.00    -0.351 OA
BRANCH  33  34
HETATM   34  C   UNL     1      45.432 -28.924  -4.104  1.00  0.00     0.175 C 
BRANCH  34  35
HETATM   35  C   UNL     1      44.057 -29.580  -4.190  1.00  0.00     0.022 C 
HETATM   36  C   UNL     1      43.947 -30.498  -5.395  1.00  0.00     0.007 C 
ENDBRANCH  34  35
ENDBRANCH  33  34
ENDBRANCH  30  33
ENDBRANCH   1  27
TORSDOF 7
ENDMDL
MODEL 10
REMARK VINA RESULT:      -7.1     16.755     19.047
REMARK  7 active torsions:
REMARK  status: ('A' for Active; 'I' for Inactive)
REMARK    1  A    between atoms: C_2  and  C_3 
REMARK    2  A    between atoms: C_3  and  O_4 
REMARK    3  A    between atoms: O_4  and  C_5 
REMARK    4  A    between atoms: C_8  and  C_9 
REMARK    5  A    between atoms: C_15  and  C_16 
REMARK    6  A    between atoms: C_19  and  N_20 
REMARK       I    between atoms: N_20  and  C_21 
REMARK    7  A    between atoms: C_29  and  N_30 
ROOT
HETATM    1  C   UNL     1      47.095 -29.644  -1.863  1.00  0.00     0.072 A 
HETATM    2  N   UNL     1      46.730 -28.587  -2.672  1.00  0.00    -0.274 N 
HETATM    3  H   UNL     1      47.245 -28.207  -3.459  1.00  0.00     0.189 HD
HETATM    4  N   UNL     1      45.551 -28.020  -2.347  1.00  0.00    -0.148 NA
HETATM    5  C   UNL     1      45.163 -28.754  -1.312  1.00  0.00     0.199 A 
HETATM    6  C   UNL     1      46.052 -29.773  -0.958  1.00  0.00     0.040 A 
HETATM    7  C   UNL     1      45.746 -30.671   0.189  1.00  0.00     0.106 A 
HETATM    8  C   UNL     1      44.421 -30.297   0.845  1.00  0.00     0.081 A 
HETATM    9  C   UNL     1      43.991 -31.120   1.927  1.00  0.00     0.100 C 
HETATM   10  N   UNL     1      43.645 -31.794   2.807  1.00  0.00    -0.191 NA
HETATM   11  C   UNL     1      43.644 -29.273   0.406  1.00  0.00     0.140 A 
HETATM   12  O   UNL     1      44.007 -28.473  -0.685  1.00  0.00    -0.277 OA
ENDROOT
BRANCH   7  13
HETATM   13  C   UNL     1      46.930 -30.599   1.144  1.00  0.00    -0.044 A 
HETATM   14  C   UNL     1      47.229 -29.455   1.901  1.00  0.00     0.010 A 
HETATM   15  C   UNL     1      48.324 -29.434   2.775  1.00  0.00     0.030 A 
HETATM   16  C   UNL     1      49.134 -30.559   2.924  1.00  0.00     0.034 A 
HETATM   17  C   UNL     1      48.831 -31.709   2.189  1.00  0.00     0.030 A 
HETATM   18  C   UNL     1      47.741 -31.732   1.314  1.00  0.00     0.010 A 
BRANCH  16  19
HETATM   19  N   UNL     1      50.253 -30.623   3.780  1.00  0.00    -0.328 N 
HETATM   20  C   UNL     1      50.362 -31.303   4.979  1.00  0.00     0.218 C 
HETATM   21  C   UNL     1      51.729 -31.143   5.598  1.00  0.00     0.117 C 
HETATM   22  O   UNL     1      49.504 -31.989   5.520  1.00  0.00    -0.274 OA
HETATM   23  H   UNL     1      51.069 -30.108   3.474  1.00  0.00     0.169 HD
ENDBRANCH  16  19
ENDBRANCH   7  13
BRANCH  11  24
HETATM   24  N   UNL     1      42.436 -28.900   0.956  1.00  0.00    -0.282 NA
HETATM   25  H   UNL     1      42.284 -29.187   1.921  1.00  0.00     0.126 HD
HETATM   26  H   UNL     1      42.240 -27.913   0.801  1.00  0.00     0.126 HD
ENDBRANCH  11  24
BRANCH   1  27
HETATM   27  C   UNL     1      48.362 -30.349  -2.012  1.00  0.00    -0.007 A 
HETATM   28  C   UNL     1      48.415 -31.568  -2.699  1.00  0.00     0.016 A 
HETATM   29  C   UNL     1      49.631 -32.235  -2.889  1.00  0.00     0.037 A 
HETATM   30  C   UNL     1      50.815 -31.684  -2.401  1.00  0.00     0.068 A 
HETATM   31  C   UNL     1      50.765 -30.476  -1.704  1.00  0.00     0.037 A 
HETATM   32  C   UNL     1      49.550 -29.812  -1.506  1.00  0.00     0.016 A 
BRANCH  30  33
HETATM   33  O   UNL     1      52.066 -32.216  -2.544  1.00  0.00    -0.351 OA
BRANCH  33  34
HETATM   34  C   UNL     1      52.899 -32.231  -1.384  1.00  0.00     0.175 C 
BRANCH  34  35
HETATM   35  C   UNL     1      52.696 -33.566  -0.673  1.00  0.00     0.022 C 
HETATM   36  C   UNL     1      51.682 -33.456   0.451  1.00  0.00     0.007 C 
ENDBRANCH  34  35
ENDBRANCH  33  34
ENDBRANCH  30  33
ENDBRANCH   1  27
TORSDOF 7
ENDMDL
