MODEL 1
REMARK VINA RESULT:      -8.7      0.000      0.000
REMARK  7 active torsions:
REMARK  status: ('A' for Active; 'I' for Inactive)
REMARK    1  A    between atoms: N_2  and  C_4 
REMARK       I    between atoms: N_7  and  C_8 
REMARK    2  A    between atoms: C_8  and  C_9 
REMARK    3  A    between atoms: N_12  and  C_13 
REMARK    4  A    between atoms: C_20  and  C_21 
REMARK    5  A    between atoms: C_21  and  N_22 
REMARK    6  A    between atoms: N_22  and  C_25 
REMARK    7  A    between atoms: C_25  and  C_26 
ROOT
HETATM    1  C   UNL     1      43.515 -13.032   6.326  1.00  0.00     0.719 A 
HETATM    2  N   UNL     1      43.241 -13.132   4.969  1.00  0.00    -0.154 N 
HETATM    3  C   UNL     1      42.715 -14.417   4.787  1.00  0.00     0.083 A 
HETATM    4  C   UNL     1      42.275 -14.792   3.485  1.00  0.00     0.033 A 
HETATM    5  C   UNL     1      42.427 -13.929   2.463  1.00  0.00     0.004 A 
HETATM    6  C   UNL     1      43.048 -12.634   2.655  1.00  0.00     0.018 A 
HETATM    7  C   UNL     1      43.438 -12.267   3.887  1.00  0.00     0.115 A 
HETATM    8  C   UNL     1      42.804 -15.048   6.007  1.00  0.00     0.107 A 
HETATM    9  N   UNL     1      43.307 -14.183   6.956  1.00  0.00    -0.064 NA
ENDROOT
BRANCH   1  10
HETATM   10  N   UNL     1      43.952 -11.896   7.021  1.00  0.00    -0.147 N 
HETATM   11  C   UNL     1      45.274 -11.512   7.137  1.00  0.00     0.233 A 
HETATM   12  N   UNL     1      45.430 -10.401   7.822  1.00  0.00    -0.236 NA
HETATM   13  C   UNL     1      44.164 -10.039   8.230  1.00  0.00     0.142 A 
HETATM   14  C   UNL     1      43.252 -10.967   7.752  1.00  0.00     0.153 A 
BRANCH  13  15
HETATM   15  C   UNL     1      43.798  -8.836   8.999  1.00  0.00     0.273 C 
HETATM   16  N   UNL     1      43.387  -8.957  10.345  1.00  0.00    -0.347 N 
HETATM   17  C   UNL     1      42.629 -10.104  10.836  1.00  0.00     0.128 C 
HETATM   18  C   UNL     1      43.202  -7.703  11.070  1.00  0.00     0.128 C 
HETATM   19  C   UNL     1      42.818 -10.298  12.336  1.00  0.00     0.053 C 
HETATM   20  C   UNL     1      42.511  -9.024  13.136  1.00  0.00     0.190 C 
HETATM   21  C   UNL     1      43.370  -7.883  12.575  1.00  0.00     0.053 C 
HETATM   22  O   UNL     1      43.881  -7.727   8.469  1.00  0.00    -0.266 OA
BRANCH  20  23
HETATM   23  N   UNL     1      41.013  -8.669  13.125  1.00  0.00    -0.074 N 
HETATM   24  C   UNL     1      40.650  -7.632  14.171  1.00  0.00     0.269 C 
HETATM   25  H   UNL     1      40.773  -8.254  12.216  1.00  0.00     0.279 HD
HETATM   26  C   UNL     1      40.103  -9.869  13.298  1.00  0.00     0.269 C 
ENDBRANCH  20  23
ENDBRANCH  13  15
ENDBRANCH   1  10
BRANCH   8  27
HETATM   27  C   UNL     1      42.441 -16.444   6.381  1.00  0.00     0.294 C 
BRANCH  27  28
HETATM   28  N   UNL     1      43.647 -17.304   6.407  1.00  0.00    -0.064 N 
HETATM   29  H   UNL     1      44.196 -17.063   7.243  1.00  0.00     0.278 HD
HETATM   30  H   UNL     1      43.375 -18.280   6.578  1.00  0.00     0.278 HD
BRANCH  28  31
HETATM   31  C   UNL     1      44.511 -17.248   5.203  1.00  0.00     0.297 C 
BRANCH  31  32
HETATM   32  C   UNL     1      44.145 -18.284   4.208  1.00  0.00     0.078 A 
HETATM   33  O   UNL     1      44.242 -19.586   4.613  1.00  0.00    -0.325 OA
HETATM   34  C   UNL     1      43.854 -20.357   3.563  1.00  0.00     0.142 A 
HETATM   35  C   UNL     1      43.503 -19.568   2.493  1.00  0.00     0.027 A 
HETATM   36  C   UNL     1      43.691 -18.228   2.908  1.00  0.00     0.036 A 
ENDBRANCH  31  32
ENDBRANCH  28  31
ENDBRANCH  27  28
ENDBRANCH   8  27
TORSDOF 7
ENDMDL
MODEL 2
REMARK VINA RESULT:      -8.6      5.496      8.832
REMARK  7 active torsions:
REMARK  status: ('A' for Active; 'I' for Inactive)
REMARK    1  A    between atoms: N_2  and  C_4 
REMARK       I    between atoms: N_7  and  C_8 
REMARK    2  A    between atoms: C_8  and  C_9 
REMARK    3  A    between atoms: N_12  and  C_13 
REMARK    4  A    between atoms: C_20  and  C_21 
REMARK    5  A    between atoms: C_21  and  N_22 
REMARK    6  A    between atoms: N_22  and  C_25 
REMARK    7  A    between atoms: C_25  and  C_26 
ROOT
HETATM    1  C   UNL     1      42.617 -16.624   3.097  1.00  0.00     0.719 A 
HETATM    2  N   UNL     1      42.997 -17.957   3.007  1.00  0.00    -0.154 N 
HETATM    3  C   UNL     1      43.772 -18.203   4.148  1.00  0.00     0.083 A 
HETATM    4  C   UNL     1      44.258 -19.524   4.365  1.00  0.00     0.033 A 
HETATM    5  C   UNL     1      44.008 -20.479   3.449  1.00  0.00     0.004 A 
HETATM    6  C   UNL     1      43.273 -20.186   2.235  1.00  0.00     0.018 A 
HETATM    7  C   UNL     1      42.789 -18.948   2.041  1.00  0.00     0.115 A 
HETATM    8  C   UNL     1      43.906 -16.995   4.792  1.00  0.00     0.107 A 
HETATM    9  N   UNL     1      43.190 -16.018   4.132  1.00  0.00    -0.064 NA
ENDROOT
BRANCH   1  10
HETATM   10  N   UNL     1      41.740 -15.934   2.250  1.00  0.00    -0.147 N 
HETATM   11  C   UNL     1      40.362 -16.007   2.325  1.00  0.00     0.233 A 
HETATM   12  N   UNL     1      39.758 -15.254   1.433  1.00  0.00    -0.236 NA
HETATM   13  C   UNL     1      40.766 -14.681   0.689  1.00  0.00     0.142 A 
HETATM   14  C   UNL     1      41.989 -15.110   1.178  1.00  0.00     0.153 A 
BRANCH  13  15
HETATM   15  C   UNL     1      40.606 -13.718  -0.416  1.00  0.00     0.273 C 
HETATM   16  N   UNL     1      40.920 -12.356  -0.216  1.00  0.00    -0.347 N 
HETATM   17  C   UNL     1      40.709 -11.679   1.060  1.00  0.00     0.128 C 
HETATM   18  C   UNL     1      40.885 -11.513  -1.408  1.00  0.00     0.128 C 
HETATM   19  C   UNL     1      41.626 -10.471   1.209  1.00  0.00     0.053 C 
HETATM   20  C   UNL     1      41.519  -9.502   0.023  1.00  0.00     0.190 C 
HETATM   21  C   UNL     1      41.783 -10.288  -1.269  1.00  0.00     0.053 C 
HETATM   22  O   UNL     1      40.224 -14.116  -1.517  1.00  0.00    -0.266 OA
BRANCH  20  23
HETATM   23  N   UNL     1      40.163  -8.773  -0.021  1.00  0.00    -0.074 N 
HETATM   24  C   UNL     1      40.057  -7.804  -1.184  1.00  0.00     0.269 C 
HETATM   25  H   UNL     1      39.414  -9.464  -0.157  1.00  0.00     0.279 HD
HETATM   26  C   UNL     1      39.831  -8.031   1.258  1.00  0.00     0.269 C 
ENDBRANCH  20  23
ENDBRANCH  13  15
ENDBRANCH   1  10
BRANCH   8  27
HETATM   27  C   UNL     1      44.670 -16.659   6.027  1.00  0.00     0.294 C 
BRANCH  27  28
HETATM   28  N   UNL     1      43.886 -17.013   7.234  1.00  0.00    -0.064 N 
HETATM   29  H   UNL     1      43.174 -17.704   6.963  1.00  0.00     0.278 HD
HETATM   30  H   UNL     1      44.478 -17.532   7.894  1.00  0.00     0.278 HD
BRANCH  28  31
HETATM   31  C   UNL     1      43.246 -15.882   7.947  1.00  0.00     0.297 C 
BRANCH  31  32
HETATM   32  C   UNL     1      42.110 -15.315   7.181  1.00  0.00     0.078 A 
HETATM   33  O   UNL     1      42.257 -14.036   6.721  1.00  0.00    -0.325 OA
HETATM   34  C   UNL     1      41.119 -13.725   6.047  1.00  0.00     0.142 A 
HETATM   35  C   UNL     1      40.246 -14.788   6.063  1.00  0.00     0.027 A 
HETATM   36  C   UNL     1      40.885 -15.816   6.796  1.00  0.00     0.036 A 
ENDBRANCH  31  32
ENDBRANCH  28  31
ENDBRANCH  27  28
ENDBRANCH   8  27
TORSDOF 7
ENDMDL
MODEL 3
REMARK VINA RESULT:      -8.5      3.632      5.511
REMARK  7 active torsions:
REMARK  status: ('A' for Active; 'I' for Inactive)
REMARK    1  A    between atoms: N_2  and  C_4 
REMARK       I    between atoms: N_7  and  C_8 
REMARK    2  A    between atoms: C_8  and  C_9 
REMARK    3  A    between atoms: N_12  and  C_13 
REMARK    4  A    between atoms: C_20  and  C_21 
REMARK    5  A    between atoms: C_21  and  N_22 
REMARK    6  A    between atoms: N_22  and  C_25 
REMARK    7  A    between atoms: C_25  and  C_26 
ROOT
HETATM    1  C   UNL     1      42.523 -14.203   3.649  1.00  0.00     0.719 A 
HETATM    2  N   UNL     1      42.882 -15.544   3.665  1.00  0.00    -0.154 N 
HETATM    3  C   UNL     1      42.103 -16.153   2.673  1.00  0.00     0.083 A 
HETATM    4  C   UNL     1      42.301 -17.539   2.411  1.00  0.00     0.033 A 
HETATM    5  C   UNL     1      43.183 -18.232   3.155  1.00  0.00     0.004 A 
HETATM    6  C   UNL     1      43.922 -17.603   4.232  1.00  0.00     0.018 A 
HETATM    7  C   UNL     1      43.758 -16.289   4.462  1.00  0.00     0.115 A 
HETATM    8  C   UNL     1      41.252 -15.181   2.199  1.00  0.00     0.107 A 
HETATM    9  N   UNL     1      41.515 -13.974   2.813  1.00  0.00    -0.064 NA
ENDROOT
BRANCH   1  10
HETATM   10  N   UNL     1      43.104 -13.160   4.383  1.00  0.00    -0.147 N 
HETATM   11  C   UNL     1      43.688 -12.041   3.822  1.00  0.00     0.233 A 
HETATM   12  N   UNL     1      44.147 -11.196   4.718  1.00  0.00    -0.236 NA
HETATM   13  C   UNL     1      43.906 -11.786   5.939  1.00  0.00     0.142 A 
HETATM   14  C   UNL     1      43.278 -13.005   5.737  1.00  0.00     0.153 A 
BRANCH  13  15
HETATM   15  C   UNL     1      44.203 -11.216   7.265  1.00  0.00     0.273 C 
HETATM   16  N   UNL     1      43.282 -10.337   7.878  1.00  0.00    -0.347 N 
HETATM   17  C   UNL     1      42.457  -9.405   7.115  1.00  0.00     0.128 C 
HETATM   18  C   UNL     1      43.586  -9.954   9.254  1.00  0.00     0.128 C 
HETATM   19  C   UNL     1      41.193  -9.026   7.877  1.00  0.00     0.053 C 
HETATM   20  C   UNL     1      41.493  -8.502   9.289  1.00  0.00     0.190 C 
HETATM   21  C   UNL     1      42.333  -9.553  10.026  1.00  0.00     0.053 C 
HETATM   22  O   UNL     1      45.243 -11.532   7.844  1.00  0.00    -0.266 OA
BRANCH  20  23
HETATM   23  N   UNL     1      42.186  -7.127   9.271  1.00  0.00    -0.074 N 
HETATM   24  C   UNL     1      42.517  -6.621  10.663  1.00  0.00     0.269 C 
HETATM   25  H   UNL     1      43.083  -7.210   8.777  1.00  0.00     0.279 HD
HETATM   26  C   UNL     1      41.396  -6.058   8.544  1.00  0.00     0.269 C 
ENDBRANCH  20  23
ENDBRANCH  13  15
ENDBRANCH   1  10
BRANCH   8  27
HETATM   27  C   UNL     1      40.173 -15.283   1.176  1.00  0.00     0.294 C 
BRANCH  27  28
HETATM   28  N   UNL     1      39.588 -13.949   0.905  1.00  0.00    -0.064 N 
HETATM   29  H   UNL     1      38.563 -14.040   0.911  1.00  0.00     0.278 HD
HETATM   30  H   UNL     1      39.772 -13.321   1.697  1.00  0.00     0.278 HD
BRANCH  28  31
HETATM   31  C   UNL     1      40.029 -13.288  -0.347  1.00  0.00     0.297 C 
BRANCH  31  32
HETATM   32  C   UNL     1      39.198 -13.689  -1.507  1.00  0.00     0.078 A 
HETATM   33  O   UNL     1      37.996 -13.054  -1.650  1.00  0.00    -0.325 OA
HETATM   34  C   UNL     1      37.412 -13.560  -2.769  1.00  0.00     0.142 A 
HETATM   35  C   UNL     1      38.225 -14.506  -3.348  1.00  0.00     0.027 A 
HETATM   36  C   UNL     1      39.380 -14.591  -2.534  1.00  0.00     0.036 A 
ENDBRANCH  31  32
ENDBRANCH  28  31
ENDBRANCH  27  28
ENDBRANCH   8  27
TORSDOF 7
ENDMDL
MODEL 4
REMARK VINA RESULT:      -8.5      4.278     10.094
REMARK  7 active torsions:
REMARK  status: ('A' for Active; 'I' for Inactive)
REMARK    1  A    between atoms: N_2  and  C_4 
REMARK       I    between atoms: N_7  and  C_8 
REMARK    2  A    between atoms: C_8  and  C_9 
REMARK    3  A    between atoms: N_12  and  C_13 
REMARK    4  A    between atoms: C_20  and  C_21 
REMARK    5  A    between atoms: C_21  and  N_22 
REMARK    6  A    between atoms: N_22  and  C_25 
REMARK    7  A    between atoms: C_25  and  C_26 
ROOT
HETATM    1  C   UNL     1      42.126 -14.985   3.800  1.00  0.00     0.719 A 
HETATM    2  N   UNL     1      42.836 -16.179   3.788  1.00  0.00    -0.154 N 
HETATM    3  C   UNL     1      43.481 -16.244   5.029  1.00  0.00     0.083 A 
HETATM    4  C   UNL     1      44.247 -17.405   5.335  1.00  0.00     0.033 A 
HETATM    5  C   UNL     1      44.374 -18.374   4.410  1.00  0.00     0.004 A 
HETATM    6  C   UNL     1      43.766 -18.253   3.100  1.00  0.00     0.018 A 
HETATM    7  C   UNL     1      43.019 -17.172   2.820  1.00  0.00     0.115 A 
HETATM    8  C   UNL     1      43.217 -15.053   5.665  1.00  0.00     0.107 A 
HETATM    9  N   UNL     1      42.379 -14.274   4.894  1.00  0.00    -0.064 NA
ENDROOT
BRANCH   1  10
HETATM   10  N   UNL     1      41.231 -14.521   2.827  1.00  0.00    -0.147 N 
HETATM   11  C   UNL     1      40.023 -13.910   3.105  1.00  0.00     0.233 A 
HETATM   12  N   UNL     1      39.369 -13.547   2.024  1.00  0.00    -0.236 NA
HETATM   13  C   UNL     1      40.143 -13.970   0.965  1.00  0.00     0.142 A 
HETATM   14  C   UNL     1      41.283 -14.586   1.456  1.00  0.00     0.153 A 
BRANCH  13  15
HETATM   15  C   UNL     1      39.861 -13.765  -0.467  1.00  0.00     0.273 C 
HETATM   16  N   UNL     1      40.254 -12.565  -1.100  1.00  0.00    -0.347 N 
HETATM   17  C   UNL     1      40.259 -11.278  -0.410  1.00  0.00     0.128 C 
HETATM   18  C   UNL     1      40.079 -12.521  -2.549  1.00  0.00     0.128 C 
HETATM   19  C   UNL     1      41.234 -10.302  -1.057  1.00  0.00     0.053 C 
HETATM   20  C   UNL     1      40.993 -10.144  -2.565  1.00  0.00     0.190 C 
HETATM   21  C   UNL     1      41.035 -11.535  -3.211  1.00  0.00     0.053 C 
HETATM   22  O   UNL     1      39.307 -14.657  -1.111  1.00  0.00    -0.266 OA
BRANCH  20  23
HETATM   23  N   UNL     1      39.675  -9.410  -2.877  1.00  0.00    -0.074 N 
HETATM   24  C   UNL     1      39.463  -9.193  -4.363  1.00  0.00     0.269 C 
HETATM   25  H   UNL     1      38.886  -9.987  -2.557  1.00  0.00     0.279 HD
HETATM   26  C   UNL     1      39.541  -8.077  -2.170  1.00  0.00     0.269 C 
ENDBRANCH  20  23
ENDBRANCH  13  15
ENDBRANCH   1  10
BRANCH   8  27
HETATM   27  C   UNL     1      43.693 -14.559   6.988  1.00  0.00     0.294 C 
BRANCH  27  28
HETATM   28  N   UNL     1      43.503 -13.092   7.093  1.00  0.00    -0.064 N 
HETATM   29  H   UNL     1      42.685 -12.833   6.526  1.00  0.00     0.278 HD
HETATM   30  H   UNL     1      43.214 -12.846   8.048  1.00  0.00     0.278 HD
BRANCH  28  31
HETATM   31  C   UNL     1      44.667 -12.258   6.711  1.00  0.00     0.297 C 
BRANCH  31  32
HETATM   32  C   UNL     1      44.948 -11.204   7.714  1.00  0.00     0.078 A 
HETATM   33  O   UNL     1      44.240 -11.265   8.883  1.00  0.00    -0.325 OA
HETATM   34  C   UNL     1      44.658 -10.224   9.652  1.00  0.00     0.142 A 
HETATM   35  C   UNL     1      45.627  -9.501   8.996  1.00  0.00     0.027 A 
HETATM   36  C   UNL     1      45.815 -10.133   7.744  1.00  0.00     0.036 A 
ENDBRANCH  31  32
ENDBRANCH  28  31
ENDBRANCH  27  28
ENDBRANCH   8  27
TORSDOF 7
ENDMDL
MODEL 5
REMARK VINA RESULT:      -8.5      3.331      5.441
REMARK  7 active torsions:
REMARK  status: ('A' for Active; 'I' for Inactive)
REMARK    1  A    between atoms: N_2  and  C_4 
REMARK       I    between atoms: N_7  and  C_8 
REMARK    2  A    between atoms: C_8  and  C_9 
REMARK    3  A    between atoms: N_12  and  C_13 
REMARK    4  A    between atoms: C_20  and  C_21 
REMARK    5  A    between atoms: C_21  and  N_22 
REMARK    6  A    between atoms: N_22  and  C_25 
REMARK    7  A    between atoms: C_25  and  C_26 
ROOT
HETATM    1  C   UNL     1      42.048 -14.003   3.355  1.00  0.00     0.719 A 
HETATM    2  N   UNL     1      42.578 -15.270   3.558  1.00  0.00    -0.154 N 
HETATM    3  C   UNL     1      41.926 -16.101   2.639  1.00  0.00     0.083 A 
HETATM    4  C   UNL     1      42.312 -17.470   2.569  1.00  0.00     0.033 A 
HETATM    5  C   UNL     1      43.247 -17.936   3.418  1.00  0.00     0.004 A 
HETATM    6  C   UNL     1      43.853 -17.080   4.418  1.00  0.00     0.018 A 
HETATM    7  C   UNL     1      43.511 -15.782   4.467  1.00  0.00     0.115 A 
HETATM    8  C   UNL     1      40.975 -15.322   2.020  1.00  0.00     0.107 A 
HETATM    9  N   UNL     1      41.053 -14.022   2.473  1.00  0.00    -0.064 NA
ENDROOT
BRANCH   1  10
HETATM   10  N   UNL     1      42.458 -12.806   3.956  1.00  0.00    -0.147 N 
HETATM   11  C   UNL     1      43.644 -12.156   3.674  1.00  0.00     0.233 A 
HETATM   12  N   UNL     1      43.796 -11.042   4.353  1.00  0.00    -0.236 NA
HETATM   13  C   UNL     1      42.688 -10.953   5.168  1.00  0.00     0.142 A 
HETATM   14  C   UNL     1      41.869 -12.047   4.938  1.00  0.00     0.153 A 
BRANCH  13  15
HETATM   15  C   UNL     1      42.367  -9.857   6.100  1.00  0.00     0.273 C 
HETATM   16  N   UNL     1      43.116  -9.697   7.286  1.00  0.00    -0.347 N 
HETATM   17  C   UNL     1      43.666 -10.829   8.028  1.00  0.00     0.128 C 
HETATM   18  C   UNL     1      42.832  -8.493   8.063  1.00  0.00     0.128 C 
HETATM   19  C   UNL     1      44.867 -10.415   8.869  1.00  0.00     0.053 C 
HETATM   20  C   UNL     1      44.559  -9.223   9.787  1.00  0.00     0.190 C 
HETATM   21  C   UNL     1      44.018  -8.075   8.925  1.00  0.00     0.053 C 
HETATM   22  O   UNL     1      41.462  -9.069   5.822  1.00  0.00    -0.266 OA
BRANCH  20  23
HETATM   23  N   UNL     1      43.585  -9.592  10.922  1.00  0.00    -0.074 N 
HETATM   24  C   UNL     1      43.514  -8.527  12.000  1.00  0.00     0.269 C 
HETATM   25  H   UNL     1      42.636  -9.672  10.537  1.00  0.00     0.279 HD
HETATM   26  C   UNL     1      43.893 -10.923  11.578  1.00  0.00     0.269 C 
ENDBRANCH  20  23
ENDBRANCH  13  15
ENDBRANCH   1  10
BRANCH   8  27
HETATM   27  C   UNL     1      39.960 -15.700   0.996  1.00  0.00     0.294 C 
BRANCH  27  28
HETATM   28  N   UNL     1      39.469 -14.495   0.285  1.00  0.00    -0.064 N 
HETATM   29  H   UNL     1      38.506 -14.310   0.594  1.00  0.00     0.278 HD
HETATM   30  H   UNL     1      39.983 -13.667   0.608  1.00  0.00     0.278 HD
BRANCH  28  31
HETATM   31  C   UNL     1      39.522 -14.549  -1.196  1.00  0.00     0.297 C 
BRANCH  31  32
HETATM   32  C   UNL     1      40.106 -13.316  -1.775  1.00  0.00     0.078 A 
HETATM   33  O   UNL     1      40.867 -12.545  -0.940  1.00  0.00    -0.325 OA
HETATM   34  C   UNL     1      41.305 -11.485  -1.670  1.00  0.00     0.142 A 
HETATM   35  C   UNL     1      40.841 -11.567  -2.962  1.00  0.00     0.027 A 
HETATM   36  C   UNL     1      40.065 -12.750  -3.031  1.00  0.00     0.036 A 
ENDBRANCH  31  32
ENDBRANCH  28  31
ENDBRANCH  27  28
ENDBRANCH   8  27
TORSDOF 7
ENDMDL
MODEL 6
REMARK VINA RESULT:      -8.4      1.765      2.820
REMARK  7 active torsions:
REMARK  status: ('A' for Active; 'I' for Inactive)
REMARK    1  A    between atoms: N_2  and  C_4 
REMARK       I    between atoms: N_7  and  C_8 
REMARK    2  A    between atoms: C_8  and  C_9 
REMARK    3  A    between atoms: N_12  and  C_13 
REMARK    4  A    between atoms: C_20  and  C_21 
REMARK    5  A    between atoms: C_21  and  N_22 
REMARK    6  A    between atoms: N_22  and  C_25 
REMARK    7  A    between atoms: C_25  and  C_26 
ROOT
HETATM    1  C   UNL     1      42.438 -12.993   5.099  1.00  0.00     0.719 A 
HETATM    2  N   UNL     1      41.631 -14.094   5.358  1.00  0.00    -0.154 N 
HETATM    3  C   UNL     1      41.608 -14.830   4.166  1.00  0.00     0.083 A 
HETATM    4  C   UNL     1      40.900 -16.065   4.146  1.00  0.00     0.033 A 
HETATM    5  C   UNL     1      40.230 -16.460   5.245  1.00  0.00     0.004 A 
HETATM    6  C   UNL     1      40.197 -15.645   6.443  1.00  0.00     0.018 A 
HETATM    7  C   UNL     1      40.889 -14.494   6.474  1.00  0.00     0.115 A 
HETATM    8  C   UNL     1      42.301 -14.086   3.239  1.00  0.00     0.107 A 
HETATM    9  N   UNL     1      42.809 -12.945   3.824  1.00  0.00    -0.064 NA
ENDROOT
BRANCH   1  10
HETATM   10  N   UNL     1      42.859 -12.018   6.013  1.00  0.00    -0.147 N 
HETATM   11  C   UNL     1      42.774 -10.656   5.796  1.00  0.00     0.233 A 
HETATM   12  N   UNL     1      43.217  -9.944   6.808  1.00  0.00    -0.236 NA
HETATM   13  C   UNL     1      43.667 -10.861   7.734  1.00  0.00     0.142 A 
HETATM   14  C   UNL     1      43.463 -12.140   7.241  1.00  0.00     0.153 A 
BRANCH  13  15
HETATM   15  C   UNL     1      44.224 -10.564   9.066  1.00  0.00     0.273 C 
HETATM   16  N   UNL     1      43.374 -10.130  10.107  1.00  0.00    -0.347 N 
HETATM   17  C   UNL     1      42.201  -9.294   9.868  1.00  0.00     0.128 C 
HETATM   18  C   UNL     1      43.988 -10.018  11.427  1.00  0.00     0.128 C 
HETATM   19  C   UNL     1      41.167  -9.452  10.975  1.00  0.00     0.053 C 
HETATM   20  C   UNL     1      41.762  -9.219  12.372  1.00  0.00     0.190 C 
HETATM   21  C   UNL     1      42.964 -10.156  12.548  1.00  0.00     0.053 C 
HETATM   22  O   UNL     1      45.429 -10.724   9.270  1.00  0.00    -0.266 OA
BRANCH  20  23
HETATM   23  N   UNL     1      42.146  -7.747  12.609  1.00  0.00    -0.074 N 
HETATM   24  C   UNL     1      42.810  -7.525  13.955  1.00  0.00     0.269 C 
HETATM   25  H   UNL     1      42.835  -7.461  11.901  1.00  0.00     0.279 HD
HETATM   26  C   UNL     1      40.981  -6.787  12.481  1.00  0.00     0.269 C 
ENDBRANCH  20  23
ENDBRANCH  13  15
ENDBRANCH   1  10
BRANCH   8  27
HETATM   27  C   UNL     1      42.547 -14.361   1.795  1.00  0.00     0.294 C 
BRANCH  27  28
HETATM   28  N   UNL     1      43.542 -15.449   1.637  1.00  0.00    -0.064 N 
HETATM   29  H   UNL     1      44.190 -15.185   0.883  1.00  0.00     0.278 HD
HETATM   30  H   UNL     1      44.149 -15.488   2.465  1.00  0.00     0.278 HD
BRANCH  28  31
HETATM   31  C   UNL     1      42.991 -16.800   1.379  1.00  0.00     0.297 C 
BRANCH  31  32
HETATM   32  C   UNL     1      43.435 -17.784   2.394  1.00  0.00     0.078 A 
HETATM   33  O   UNL     1      43.931 -17.279   3.563  1.00  0.00    -0.325 OA
HETATM   34  C   UNL     1      44.265 -18.341   4.343  1.00  0.00     0.142 A 
HETATM   35  C   UNL     1      43.985 -19.520   3.694  1.00  0.00     0.027 A 
HETATM   36  C   UNL     1      43.449 -19.162   2.433  1.00  0.00     0.036 A 
ENDBRANCH  31  32
ENDBRANCH  28  31
ENDBRANCH  27  28
ENDBRANCH   8  27
TORSDOF 7
ENDMDL
MODEL 7
REMARK VINA RESULT:      -8.3      1.995      2.585
REMARK  7 active torsions:
REMARK  status: ('A' for Active; 'I' for Inactive)
REMARK    1  A    between atoms: N_2  and  C_4 
REMARK       I    between atoms: N_7  and  C_8 
REMARK    2  A    between atoms: C_8  and  C_9 
REMARK    3  A    between atoms: N_12  and  C_13 
REMARK    4  A    between atoms: C_20  and  C_21 
REMARK    5  A    between atoms: C_21  and  N_22 
REMARK    6  A    between atoms: N_22  and  C_25 
REMARK    7  A    between atoms: C_25  and  C_26 
ROOT
HETATM    1  C   UNL     1      42.398 -13.134   4.767  1.00  0.00     0.719 A 
HETATM    2  N   UNL     1      41.355 -12.724   3.947  1.00  0.00    -0.154 N 
HETATM    3  C   UNL     1      40.748 -13.902   3.495  1.00  0.00     0.083 A 
HETATM    4  C   UNL     1      39.591 -13.796   2.672  1.00  0.00     0.033 A 
HETATM    5  C   UNL     1      39.148 -12.578   2.309  1.00  0.00     0.004 A 
HETATM    6  C   UNL     1      39.837 -11.371   2.720  1.00  0.00     0.018 A 
HETATM    7  C   UNL     1      40.913 -11.467   3.520  1.00  0.00     0.115 A 
HETATM    8  C   UNL     1      41.517 -14.940   3.971  1.00  0.00     0.107 A 
HETATM    9  N   UNL     1      42.542 -14.455   4.756  1.00  0.00    -0.064 NA
ENDROOT
BRANCH   1  10
HETATM   10  N   UNL     1      43.234 -12.323   5.546  1.00  0.00    -0.147 N 
HETATM   11  C   UNL     1      44.239 -11.522   5.038  1.00  0.00     0.233 A 
HETATM   12  N   UNL     1      44.874 -10.841   5.966  1.00  0.00    -0.236 NA
HETATM   13  C   UNL     1      44.308 -11.229   7.160  1.00  0.00     0.142 A 
HETATM   14  C   UNL     1      43.308 -12.155   6.907  1.00  0.00     0.153 A 
BRANCH  13  15
HETATM   15  C   UNL     1      44.647 -10.720   8.501  1.00  0.00     0.273 C 
HETATM   16  N   UNL     1      43.661 -10.077   9.282  1.00  0.00    -0.347 N 
HETATM   17  C   UNL     1      42.605  -9.256   8.697  1.00  0.00     0.128 C 
HETATM   18  C   UNL     1      44.045  -9.753  10.653  1.00  0.00     0.128 C 
HETATM   19  C   UNL     1      41.388  -9.177   9.609  1.00  0.00     0.053 C 
HETATM   20  C   UNL     1      41.748  -8.720  11.030  1.00  0.00     0.190 C 
HETATM   21  C   UNL     1      42.837  -9.652  11.577  1.00  0.00     0.053 C 
HETATM   22  O   UNL     1      45.785 -10.884   8.944  1.00  0.00    -0.266 OA
BRANCH  20  23
HETATM   23  N   UNL     1      42.184  -7.243  11.080  1.00  0.00    -0.074 N 
HETATM   24  C   UNL     1      42.519  -6.780  12.485  1.00  0.00     0.269 C 
HETATM   25  H   UNL     1      43.043  -7.128  10.529  1.00  0.00     0.279 HD
HETATM   26  C   UNL     1      41.166  -6.290  10.488  1.00  0.00     0.269 C 
ENDBRANCH  20  23
ENDBRANCH  13  15
ENDBRANCH   1  10
BRANCH   8  27
HETATM   27  C   UNL     1      41.367 -16.407   3.753  1.00  0.00     0.294 C 
BRANCH  27  28
HETATM   28  N   UNL     1      41.737 -16.765   2.363  1.00  0.00    -0.064 N 
HETATM   29  H   UNL     1      41.120 -17.527   2.052  1.00  0.00     0.278 HD
HETATM   30  H   UNL     1      41.495 -15.994   1.729  1.00  0.00     0.278 HD
BRANCH  28  31
HETATM   31  C   UNL     1      43.154 -17.142   2.145  1.00  0.00     0.297 C 
BRANCH  31  32
HETATM   32  C   UNL     1      43.446 -18.510   2.635  1.00  0.00     0.078 A 
HETATM   33  O   UNL     1      43.969 -18.613   3.894  1.00  0.00    -0.325 OA
HETATM   34  C   UNL     1      44.146 -19.938   4.140  1.00  0.00     0.142 A 
HETATM   35  C   UNL     1      43.741 -20.686   3.060  1.00  0.00     0.027 A 
HETATM   36  C   UNL     1      43.288 -19.764   2.086  1.00  0.00     0.036 A 
ENDBRANCH  31  32
ENDBRANCH  28  31
ENDBRANCH  27  28
ENDBRANCH   8  27
TORSDOF 7
ENDMDL
MODEL 8
REMARK VINA RESULT:      -8.3      2.473      4.077
REMARK  7 active torsions:
REMARK  status: ('A' for Active; 'I' for Inactive)
REMARK    1  A    between atoms: N_2  and  C_4 
REMARK       I    between atoms: N_7  and  C_8 
REMARK    2  A    between atoms: C_8  and  C_9 
REMARK    3  A    between atoms: N_12  and  C_13 
REMARK    4  A    between atoms: C_20  and  C_21 
REMARK    5  A    between atoms: C_21  and  N_22 
REMARK    6  A    between atoms: N_22  and  C_25 
REMARK    7  A    between atoms: C_25  and  C_26 
ROOT
HETATM    1  C   UNL     1      43.446 -12.749   5.702  1.00  0.00     0.719 A 
HETATM    2  N   UNL     1      43.132 -14.063   6.023  1.00  0.00    -0.154 N 
HETATM    3  C   UNL     1      42.891 -14.700   4.799  1.00  0.00     0.083 A 
HETATM    4  C   UNL     1      42.602 -16.094   4.806  1.00  0.00     0.033 A 
HETATM    5  C   UNL     1      42.514 -16.744   5.981  1.00  0.00     0.004 A 
HETATM    6  C   UNL     1      42.685 -16.051   7.242  1.00  0.00     0.018 A 
HETATM    7  C   UNL     1      42.987 -14.742   7.237  1.00  0.00     0.115 A 
HETATM    8  C   UNL     1      42.964 -13.722   3.834  1.00  0.00     0.107 A 
HETATM    9  N   UNL     1      43.304 -12.512   4.402  1.00  0.00    -0.064 NA
ENDROOT
BRANCH   1  10
HETATM   10  N   UNL     1      43.874 -11.742   6.578  1.00  0.00    -0.147 N 
HETATM   11  C   UNL     1      45.181 -11.570   6.992  1.00  0.00     0.233 A 
HETATM   12  N   UNL     1      45.335 -10.544   7.799  1.00  0.00    -0.236 NA
HETATM   13  C   UNL     1      44.072 -10.024   7.979  1.00  0.00     0.142 A 
HETATM   14  C   UNL     1      43.166 -10.769   7.241  1.00  0.00     0.153 A 
BRANCH  13  15
HETATM   15  C   UNL     1      43.716  -8.834   8.774  1.00  0.00     0.273 C 
HETATM   16  N   UNL     1      43.364  -8.973  10.135  1.00  0.00    -0.347 N 
HETATM   17  C   UNL     1      42.650 -10.139  10.647  1.00  0.00     0.128 C 
HETATM   18  C   UNL     1      43.186  -7.729  10.878  1.00  0.00     0.128 C 
HETATM   19  C   UNL     1      42.905 -10.341  12.136  1.00  0.00     0.053 C 
HETATM   20  C   UNL     1      42.609  -9.079  12.959  1.00  0.00     0.190 C 
HETATM   21  C   UNL     1      43.420  -7.917  12.373  1.00  0.00     0.053 C 
HETATM   22  O   UNL     1      43.754  -7.720   8.250  1.00  0.00    -0.266 OA
BRANCH  20  23
HETATM   23  N   UNL     1      41.104  -8.753  13.014  1.00  0.00    -0.074 N 
HETATM   24  C   UNL     1      40.786  -7.622  13.974  1.00  0.00     0.269 C 
HETATM   25  H   UNL     1      40.795  -8.437  12.087  1.00  0.00     0.279 HD
HETATM   26  C   UNL     1      40.238  -9.945  13.368  1.00  0.00     0.269 C 
ENDBRANCH  20  23
ENDBRANCH  13  15
ENDBRANCH   1  10
BRANCH   8  27
HETATM   27  C   UNL     1      42.741 -13.823   2.363  1.00  0.00     0.294 C 
BRANCH  27  28
HETATM   28  N   UNL     1      41.316 -14.114   2.074  1.00  0.00    -0.064 N 
HETATM   29  H   UNL     1      40.907 -14.568   2.902  1.00  0.00     0.278 HD
HETATM   30  H   UNL     1      40.789 -13.235   2.004  1.00  0.00     0.278 HD
BRANCH  28  31
HETATM   31  C   UNL     1      41.053 -14.933   0.868  1.00  0.00     0.297 C 
BRANCH  31  32
HETATM   32  C   UNL     1      40.111 -14.265  -0.061  1.00  0.00     0.078 A 
HETATM   33  O   UNL     1      39.771 -12.974   0.232  1.00  0.00    -0.325 OA
HETATM   34  C   UNL     1      38.919 -12.559  -0.742  1.00  0.00     0.142 A 
HETATM   35  C   UNL     1      38.711 -13.563  -1.659  1.00  0.00     0.027 A 
HETATM   36  C   UNL     1      39.480 -14.667  -1.220  1.00  0.00     0.036 A 
ENDBRANCH  31  32
ENDBRANCH  28  31
ENDBRANCH  27  28
ENDBRANCH   8  27
TORSDOF 7
ENDMDL
MODEL 9
REMARK VINA RESULT:      -7.9      1.634      2.669
REMARK  7 active torsions:
REMARK  status: ('A' for Active; 'I' for Inactive)
REMARK    1  A    between atoms: N_2  and  C_4 
REMARK       I    between atoms: N_7  and  C_8 
REMARK    2  A    between atoms: C_8  and  C_9 
REMARK    3  A    between atoms: N_12  and  C_13 
REMARK    4  A    between atoms: C_20  and  C_21 
REMARK    5  A    between atoms: C_21  and  N_22 
REMARK    6  A    between atoms: N_22  and  C_25 
REMARK    7  A    between atoms: C_25  and  C_26 
ROOT
HETATM    1  C   UNL     1      43.586 -12.768   5.898  1.00  0.00     0.719 A 
HETATM    2  N   UNL     1      43.243 -14.016   6.404  1.00  0.00    -0.154 N 
HETATM    3  C   UNL     1      42.865 -14.780   5.293  1.00  0.00     0.083 A 
HETATM    4  C   UNL     1      42.515 -16.145   5.496  1.00  0.00     0.033 A 
HETATM    5  C   UNL     1      42.505 -16.645   6.746  1.00  0.00     0.004 A 
HETATM    6  C   UNL     1      42.821 -15.817   7.893  1.00  0.00     0.018 A 
HETATM    7  C   UNL     1      43.179 -14.536   7.701  1.00  0.00     0.115 A 
HETATM    8  C   UNL     1      42.893 -13.929   4.212  1.00  0.00     0.107 A 
HETATM    9  N   UNL     1      43.337 -12.681   4.596  1.00  0.00    -0.064 NA
ENDROOT
BRANCH   1  10
HETATM   10  N   UNL     1      44.136 -11.690   6.603  1.00  0.00    -0.147 N 
HETATM   11  C   UNL     1      45.490 -11.488   6.790  1.00  0.00     0.233 A 
HETATM   12  N   UNL     1      45.759 -10.395   7.469  1.00  0.00    -0.236 NA
HETATM   13  C   UNL     1      44.536  -9.855   7.799  1.00  0.00     0.142 A 
HETATM   14  C   UNL     1      43.532 -10.659   7.281  1.00  0.00     0.153 A 
BRANCH  13  15
HETATM   15  C   UNL     1      44.297  -8.599   8.531  1.00  0.00     0.273 C 
HETATM   16  N   UNL     1      43.210  -8.499   9.428  1.00  0.00    -0.347 N 
HETATM   17  C   UNL     1      41.941  -9.186   9.204  1.00  0.00     0.128 C 
HETATM   18  C   UNL     1      43.151  -7.277  10.225  1.00  0.00     0.128 C 
HETATM   19  C   UNL     1      41.192  -9.413  10.512  1.00  0.00     0.053 C 
HETATM   20  C   UNL     1      41.008  -8.117  11.315  1.00  0.00     0.190 C 
HETATM   21  C   UNL     1      42.388  -7.481  11.528  1.00  0.00     0.053 C 
HETATM   22  O   UNL     1      45.067  -7.650   8.377  1.00  0.00    -0.266 OA
BRANCH  20  23
HETATM   23  N   UNL     1      40.027  -7.140  10.640  1.00  0.00    -0.074 N 
HETATM   24  C   UNL     1      39.743  -5.916  11.490  1.00  0.00     0.269 C 
HETATM   25  H   UNL     1      40.447  -6.791   9.769  1.00  0.00     0.279 HD
HETATM   26  C   UNL     1      38.708  -7.776  10.252  1.00  0.00     0.269 C 
ENDBRANCH  20  23
ENDBRANCH  13  15
ENDBRANCH   1  10
BRANCH   8  27
HETATM   27  C   UNL     1      42.533 -14.192   2.789  1.00  0.00     0.294 C 
BRANCH  27  28
HETATM   28  N   UNL     1      43.327 -15.323   2.254  1.00  0.00    -0.064 N 
HETATM   29  H   UNL     1      43.887 -14.977   1.463  1.00  0.00     0.278 HD
HETATM   30  H   UNL     1      44.039 -15.604   2.940  1.00  0.00     0.278 HD
BRANCH  28  31
HETATM   31  C   UNL     1      42.557 -16.521   1.842  1.00  0.00     0.297 C 
BRANCH  31  32
HETATM   32  C   UNL     1      43.142 -17.770   2.382  1.00  0.00     0.078 A 
HETATM   33  O   UNL     1      44.002 -17.640   3.437  1.00  0.00    -0.325 OA
HETATM   34  C   UNL     1      44.406 -18.893   3.775  1.00  0.00     0.142 A 
HETATM   35  C   UNL     1      43.814 -19.826   2.956  1.00  0.00     0.027 A 
HETATM   36  C   UNL     1      42.997 -19.102   2.055  1.00  0.00     0.036 A 
ENDBRANCH  31  32
ENDBRANCH  28  31
ENDBRANCH  27  28
ENDBRANCH   8  27
TORSDOF 7
ENDMDL
MODEL 10
REMARK VINA RESULT:      -7.8      2.403     10.061
REMARK  7 active torsions:
REMARK  status: ('A' for Active; 'I' for Inactive)
REMARK    1  A    between atoms: N_2  and  C_4 
REMARK       I    between atoms: N_7  and  C_8 
REMARK    2  A    between atoms: C_8  and  C_9 
REMARK    3  A    between atoms: N_12  and  C_13 
REMARK    4  A    between atoms: C_20  and  C_21 
REMARK    5  A    between atoms: C_21  and  N_22 
REMARK    6  A    between atoms: N_22  and  C_25 
REMARK    7  A    between atoms: C_25  and  C_26 
ROOT
HETATM    1  C   UNL     1      42.213 -10.059   7.702  1.00  0.00     0.719 A 
HETATM    2  N   UNL     1      43.359  -9.953   8.479  1.00  0.00    -0.154 N 
HETATM    3  C   UNL     1      42.980  -9.210   9.605  1.00  0.00     0.083 A 
HETATM    4  C   UNL     1      43.946  -8.988  10.628  1.00  0.00     0.033 A 
HETATM    5  C   UNL     1      45.200  -9.447  10.461  1.00  0.00     0.004 A 
HETATM    6  C   UNL     1      45.596 -10.143   9.253  1.00  0.00     0.018 A 
HETATM    7  C   UNL     1      44.679 -10.378   8.299  1.00  0.00     0.115 A 
HETATM    8  C   UNL     1      41.677  -8.822   9.391  1.00  0.00     0.107 A 
HETATM    9  N   UNL     1      41.209  -9.349   8.206  1.00  0.00    -0.064 NA
ENDROOT
BRANCH   1  10
HETATM   10  N   UNL     1      42.052 -10.806   6.527  1.00  0.00    -0.147 N 
HETATM   11  C   UNL     1      40.854 -10.959   5.857  1.00  0.00     0.233 A 
HETATM   12  N   UNL     1      40.961 -11.690   4.770  1.00  0.00    -0.236 NA
HETATM   13  C   UNL     1      42.278 -12.091   4.724  1.00  0.00     0.142 A 
HETATM   14  C   UNL     1      42.951 -11.562   5.814  1.00  0.00     0.153 A 
BRANCH  13  15
HETATM   15  C   UNL     1      42.915 -12.902   3.670  1.00  0.00     0.273 C 
HETATM   16  N   UNL     1      42.698 -14.296   3.624  1.00  0.00    -0.347 N 
HETATM   17  C   UNL     1      42.521 -15.105   4.827  1.00  0.00     0.128 C 
HETATM   18  C   UNL     1      43.235 -14.987   2.455  1.00  0.00     0.128 C 
HETATM   19  C   UNL     1      41.744 -16.382   4.532  1.00  0.00     0.053 C 
HETATM   20  C   UNL     1      42.360 -17.193   3.383  1.00  0.00     0.190 C 
HETATM   21  C   UNL     1      42.481 -16.278   2.156  1.00  0.00     0.053 C 
HETATM   22  O   UNL     1      43.612 -12.351   2.817  1.00  0.00    -0.266 OA
BRANCH  20  23
HETATM   23  N   UNL     1      43.715 -17.817   3.764  1.00  0.00    -0.074 N 
HETATM   24  C   UNL     1      44.098 -18.978   2.865  1.00  0.00     0.269 C 
HETATM   25  H   UNL     1      44.454 -17.112   3.649  1.00  0.00     0.279 HD
HETATM   26  C   UNL     1      43.787 -18.278   5.206  1.00  0.00     0.269 C 
ENDBRANCH  20  23
ENDBRANCH  13  15
ENDBRANCH   1  10
BRANCH   8  27
HETATM   27  C   UNL     1      40.790  -7.972  10.236  1.00  0.00     0.294 C 
BRANCH  27  28
HETATM   28  N   UNL     1      39.575  -8.723  10.630  1.00  0.00    -0.064 N 
HETATM   29  H   UNL     1      38.846  -8.043  10.886  1.00  0.00     0.278 HD
HETATM   30  H   UNL     1      39.177  -9.196   9.809  1.00  0.00     0.278 HD
BRANCH  28  31
HETATM   31  C   UNL     1      39.747  -9.712  11.720  1.00  0.00     0.297 C 
BRANCH  31  32
HETATM   32  C   UNL     1      40.472  -9.140  12.879  1.00  0.00     0.078 A 
HETATM   33  O   UNL     1      41.684  -9.695  13.181  1.00  0.00    -0.325 OA
HETATM   34  C   UNL     1      42.171  -9.020  14.256  1.00  0.00     0.142 A 
HETATM   35  C   UNL     1      41.292  -8.037  14.645  1.00  0.00     0.027 A 
HETATM   36  C   UNL     1      40.192  -8.113  13.756  1.00  0.00     0.036 A 
ENDBRANCH  31  32
ENDBRANCH  28  31
ENDBRANCH  27  28
ENDBRANCH   8  27
TORSDOF 7
ENDMDL
