MODEL 1
REMARK VINA RESULT:      -7.4      0.000      0.000
REMARK  5 active torsions:
REMARK  status: ('A' for Active; 'I' for Inactive)
REMARK    1  A    between atoms: C_7  and  O_8 
REMARK    2  A    between atoms: O_8  and  C_9 
REMARK    3  A    between atoms: C_12  and  N_13 
REMARK    4  A    between atoms: N_13  and  C_16 
REMARK    5  A    between atoms: C_16  and  C_17 
ROOT
HETATM    1  C   UNL     1      43.062 -17.576   2.600  1.00  0.00     0.028 A 
HETATM    2  C   UNL     1      43.651 -18.758   3.038  1.00  0.00     0.062 A 
HETATM    3  C   UNL     1      43.691 -19.923   2.214  1.00  0.00     0.101 C 
HETATM    4  N   UNL     1      43.738 -20.881   1.563  1.00  0.00    -0.191 NA
HETATM    5  C   UNL     1      44.207 -18.777   4.313  1.00  0.00     0.142 A 
HETATM    6  N   UNL     1      44.217 -17.717   5.166  1.00  0.00    -0.236 NA
HETATM    7  C   UNL     1      43.635 -16.586   4.703  1.00  0.00     0.164 A 
HETATM    8  C   UNL     1      43.054 -16.471   3.447  1.00  0.00     0.059 A 
ENDROOT
BRANCH   7   9
HETATM    9  O   UNL     1      43.587 -15.450   5.476  1.00  0.00    -0.329 OA
BRANCH   9  10
HETATM   10  C   UNL     1      42.596 -14.457   5.229  1.00  0.00     0.130 C 
HETATM   11  C   UNL     1      43.169 -13.084   4.855  1.00  0.00     0.034 C 
HETATM   12  C   UNL     1      42.059 -12.097   4.498  1.00  0.00     0.035 C 
HETATM   13  C   UNL     1      40.964 -12.006   5.566  1.00  0.00     0.186 C 
HETATM   14  C   UNL     1      40.410 -13.391   5.923  1.00  0.00     0.035 C 
HETATM   15  C   UNL     1      41.498 -14.395   6.300  1.00  0.00     0.034 C 
BRANCH  13  16
HETATM   16  N   UNL     1      41.483 -11.357   6.816  1.00  0.00    -0.067 N 
HETATM   17  H   UNL     1      40.681 -11.040   7.379  1.00  0.00     0.278 HD
HETATM   18  H   UNL     1      41.973 -12.037   7.418  1.00  0.00     0.278 HD
BRANCH  16  19
HETATM   19  C   UNL     1      42.374 -10.169   6.613  1.00  0.00     0.280 C 
BRANCH  19  20
HETATM   20  C   UNL     1      43.538 -10.191   7.533  1.00  0.00     0.027 A 
HETATM   21  S   UNL     1      43.920  -8.846   8.530  1.00  0.00    -0.084 SA
HETATM   22  C   UNL     1      45.261  -9.713   9.160  1.00  0.00     0.166 A 
HETATM   23  N   UNL     1      45.441 -10.917   8.666  1.00  0.00    -0.265 NA
HETATM   24  C   UNL     1      44.450 -11.203   7.753  1.00  0.00     0.133 A 
ENDBRANCH  19  20
ENDBRANCH  16  19
ENDBRANCH  13  16
ENDBRANCH   9  10
ENDBRANCH   7   9
TORSDOF 5
ENDMDL
MODEL 2
REMARK VINA RESULT:      -7.2      3.454      5.096
REMARK  5 active torsions:
REMARK  status: ('A' for Active; 'I' for Inactive)
REMARK    1  A    between atoms: C_7  and  O_8 
REMARK    2  A    between atoms: O_8  and  C_9 
REMARK    3  A    between atoms: C_12  and  N_13 
REMARK    4  A    between atoms: N_13  and  C_16 
REMARK    5  A    between atoms: C_16  and  C_17 
ROOT
HETATM    1  C   UNL     1      43.477 -17.607   2.746  1.00  0.00     0.028 A 
HETATM    2  C   UNL     1      43.743 -18.915   3.141  1.00  0.00     0.062 A 
HETATM    3  C   UNL     1      43.677 -20.003   2.219  1.00  0.00     0.101 C 
HETATM    4  N   UNL     1      43.631 -20.901   1.488  1.00  0.00    -0.191 NA
HETATM    5  C   UNL     1      44.082 -19.139   4.471  1.00  0.00     0.142 A 
HETATM    6  N   UNL     1      44.172 -18.167   5.419  1.00  0.00    -0.236 NA
HETATM    7  C   UNL     1      43.906 -16.910   4.996  1.00  0.00     0.164 A 
HETATM    8  C   UNL     1      43.560 -16.587   3.690  1.00  0.00     0.059 A 
ENDROOT
BRANCH   7   9
HETATM    9  O   UNL     1      43.967 -15.845   5.864  1.00  0.00    -0.329 OA
BRANCH   9  10
HETATM   10  C   UNL     1      42.805 -15.064   6.123  1.00  0.00     0.130 C 
HETATM   11  C   UNL     1      41.502 -15.875   6.153  1.00  0.00     0.034 C 
HETATM   12  C   UNL     1      40.311 -15.001   6.542  1.00  0.00     0.035 C 
HETATM   13  C   UNL     1      40.193 -13.729   5.696  1.00  0.00     0.186 C 
HETATM   14  C   UNL     1      41.507 -12.939   5.681  1.00  0.00     0.035 C 
HETATM   15  C   UNL     1      42.714 -13.786   5.279  1.00  0.00     0.034 C 
BRANCH  13  16
HETATM   16  N   UNL     1      39.811 -14.057   4.281  1.00  0.00    -0.067 N 
HETATM   17  H   UNL     1      40.497 -14.722   3.901  1.00  0.00     0.278 HD
HETATM   18  H   UNL     1      38.910 -14.558   4.241  1.00  0.00     0.278 HD
BRANCH  16  19
HETATM   19  C   UNL     1      39.753 -12.895   3.336  1.00  0.00     0.280 C 
BRANCH  19  20
HETATM   20  C   UNL     1      39.784 -13.336   1.920  1.00  0.00     0.027 A 
HETATM   21  S   UNL     1      40.299 -14.915   1.482  1.00  0.00    -0.084 SA
HETATM   22  C   UNL     1      40.020 -14.533  -0.168  1.00  0.00     0.166 A 
HETATM   23  N   UNL     1      39.588 -13.314  -0.403  1.00  0.00    -0.265 NA
HETATM   24  C   UNL     1      39.433 -12.634   0.785  1.00  0.00     0.133 A 
ENDBRANCH  19  20
ENDBRANCH  16  19
ENDBRANCH  13  16
ENDBRANCH   9  10
ENDBRANCH   7   9
TORSDOF 5
ENDMDL
MODEL 3
REMARK VINA RESULT:      -6.8      1.510      2.080
REMARK  5 active torsions:
REMARK  status: ('A' for Active; 'I' for Inactive)
REMARK    1  A    between atoms: C_7  and  O_8 
REMARK    2  A    between atoms: O_8  and  C_9 
REMARK    3  A    between atoms: C_12  and  N_13 
REMARK    4  A    between atoms: N_13  and  C_16 
REMARK    5  A    between atoms: C_16  and  C_17 
ROOT
HETATM    1  C   UNL     1      43.777 -18.318   4.306  1.00  0.00     0.028 A 
HETATM    2  C   UNL     1      43.296 -18.608   3.032  1.00  0.00     0.062 A 
HETATM    3  C   UNL     1      43.718 -19.770   2.320  1.00  0.00     0.101 C 
HETATM    4  N   UNL     1      44.045 -20.709   1.723  1.00  0.00    -0.191 NA
HETATM    5  C   UNL     1      42.382 -17.727   2.464  1.00  0.00     0.142 A 
HETATM    6  N   UNL     1      41.921 -16.597   3.067  1.00  0.00    -0.236 NA
HETATM    7  C   UNL     1      42.413 -16.351   4.303  1.00  0.00     0.164 A 
HETATM    8  C   UNL     1      43.328 -17.170   4.952  1.00  0.00     0.059 A 
ENDROOT
BRANCH   7   9
HETATM    9  O   UNL     1      42.019 -15.240   5.011  1.00  0.00    -0.329 OA
BRANCH   9  10
HETATM   10  C   UNL     1      42.904 -14.133   5.159  1.00  0.00     0.130 C 
HETATM   11  C   UNL     1      43.298 -13.840   6.613  1.00  0.00     0.034 C 
HETATM   12  C   UNL     1      44.329 -12.716   6.693  1.00  0.00     0.035 C 
HETATM   13  C   UNL     1      43.910 -11.455   5.931  1.00  0.00     0.186 C 
HETATM   14  C   UNL     1      43.520 -11.775   4.483  1.00  0.00     0.035 C 
HETATM   15  C   UNL     1      42.476 -12.886   4.373  1.00  0.00     0.034 C 
BRANCH  13  16
HETATM   16  N   UNL     1      42.751 -10.778   6.604  1.00  0.00    -0.067 N 
HETATM   17  H   UNL     1      42.014 -10.615   5.905  1.00  0.00     0.278 HD
HETATM   18  H   UNL     1      42.313 -11.393   7.308  1.00  0.00     0.278 HD
BRANCH  16  19
HETATM   19  C   UNL     1      43.050  -9.457   7.245  1.00  0.00     0.280 C 
BRANCH  19  20
HETATM   20  C   UNL     1      43.830  -9.617   8.497  1.00  0.00     0.027 A 
HETATM   21  S   UNL     1      45.475  -9.132   8.599  1.00  0.00    -0.084 SA
HETATM   22  C   UNL     1      45.511  -9.651  10.235  1.00  0.00     0.166 A 
HETATM   23  N   UNL     1      44.392 -10.168  10.691  1.00  0.00    -0.265 NA
HETATM   24  C   UNL     1      43.425 -10.133   9.711  1.00  0.00     0.133 A 
ENDBRANCH  19  20
ENDBRANCH  16  19
ENDBRANCH  13  16
ENDBRANCH   9  10
ENDBRANCH   7   9
TORSDOF 5
ENDMDL
MODEL 4
REMARK VINA RESULT:      -6.8      3.316      3.868
REMARK  5 active torsions:
REMARK  status: ('A' for Active; 'I' for Inactive)
REMARK    1  A    between atoms: C_7  and  O_8 
REMARK    2  A    between atoms: O_8  and  C_9 
REMARK    3  A    between atoms: C_12  and  N_13 
REMARK    4  A    between atoms: N_13  and  C_16 
REMARK    5  A    between atoms: C_16  and  C_17 
ROOT
HETATM    1  C   UNL     1      43.589 -19.177   2.678  1.00  0.00     0.028 A 
HETATM    2  C   UNL     1      43.843 -18.969   4.030  1.00  0.00     0.062 A 
HETATM    3  C   UNL     1      44.049 -20.059   4.929  1.00  0.00     0.101 C 
HETATM    4  N   UNL     1      44.222 -20.928   5.677  1.00  0.00    -0.191 NA
HETATM    5  C   UNL     1      43.893 -17.657   4.491  1.00  0.00     0.142 A 
HETATM    6  N   UNL     1      43.712 -16.558   3.710  1.00  0.00    -0.236 NA
HETATM    7  C   UNL     1      43.467 -16.802   2.402  1.00  0.00     0.164 A 
HETATM    8  C   UNL     1      43.398 -18.075   1.850  1.00  0.00     0.059 A 
ENDROOT
BRANCH   7   9
HETATM    9  O   UNL     1      43.269 -15.769   1.516  1.00  0.00    -0.329 OA
BRANCH   9  10
HETATM   10  C   UNL     1      42.192 -14.857   1.709  1.00  0.00     0.130 C 
HETATM   11  C   UNL     1      42.459 -13.795   2.785  1.00  0.00     0.034 C 
HETATM   12  C   UNL     1      41.316 -12.786   2.865  1.00  0.00     0.035 C 
HETATM   13  C   UNL     1      39.939 -13.442   3.015  1.00  0.00     0.186 C 
HETATM   14  C   UNL     1      39.698 -14.499   1.931  1.00  0.00     0.035 C 
HETATM   15  C   UNL     1      40.820 -15.533   1.838  1.00  0.00     0.034 C 
BRANCH  13  16
HETATM   16  N   UNL     1      39.795 -14.091   4.362  1.00  0.00    -0.067 N 
HETATM   17  H   UNL     1      38.795 -14.136   4.599  1.00  0.00     0.278 HD
HETATM   18  H   UNL     1      40.104 -15.076   4.340  1.00  0.00     0.278 HD
BRANCH  16  19
HETATM   19  C   UNL     1      40.487 -13.399   5.497  1.00  0.00     0.280 C 
BRANCH  19  20
HETATM   20  C   UNL     1      41.351 -14.329   6.264  1.00  0.00     0.027 A 
HETATM   21  S   UNL     1      42.975 -13.931   6.655  1.00  0.00    -0.084 SA
HETATM   22  C   UNL     1      43.137 -15.442   7.454  1.00  0.00     0.166 A 
HETATM   23  N   UNL     1      42.073 -16.213   7.431  1.00  0.00    -0.265 NA
HETATM   24  C   UNL     1      41.045 -15.576   6.772  1.00  0.00     0.133 A 
ENDBRANCH  19  20
ENDBRANCH  16  19
ENDBRANCH  13  16
ENDBRANCH   9  10
ENDBRANCH   7   9
TORSDOF 5
ENDMDL
MODEL 5
REMARK VINA RESULT:      -6.7      1.924      2.670
REMARK  5 active torsions:
REMARK  status: ('A' for Active; 'I' for Inactive)
REMARK    1  A    between atoms: C_7  and  O_8 
REMARK    2  A    between atoms: O_8  and  C_9 
REMARK    3  A    between atoms: C_12  and  N_13 
REMARK    4  A    between atoms: N_13  and  C_16 
REMARK    5  A    between atoms: C_16  and  C_17 
ROOT
HETATM    1  C   UNL     1      43.114 -17.553   2.476  1.00  0.00     0.028 A 
HETATM    2  C   UNL     1      43.645 -18.727   3.000  1.00  0.00     0.062 A 
HETATM    3  C   UNL     1      43.701 -19.930   2.233  1.00  0.00     0.101 C 
HETATM    4  N   UNL     1      43.758 -20.918   1.630  1.00  0.00    -0.191 NA
HETATM    5  C   UNL     1      44.127 -18.701   4.305  1.00  0.00     0.142 A 
HETATM    6  N   UNL     1      44.117 -17.603   5.109  1.00  0.00    -0.236 NA
HETATM    7  C   UNL     1      43.593 -16.481   4.562  1.00  0.00     0.164 A 
HETATM    8  C   UNL     1      43.088 -16.410   3.271  1.00  0.00     0.059 A 
ENDROOT
BRANCH   7   9
HETATM    9  O   UNL     1      43.532 -15.310   5.280  1.00  0.00    -0.329 OA
BRANCH   9  10
HETATM   10  C   UNL     1      42.422 -14.431   5.123  1.00  0.00     0.130 C 
HETATM   11  C   UNL     1      42.810 -13.001   4.721  1.00  0.00     0.034 C 
HETATM   12  C   UNL     1      41.574 -12.141   4.464  1.00  0.00     0.035 C 
HETATM   13  C   UNL     1      40.563 -12.176   5.615  1.00  0.00     0.186 C 
HETATM   14  C   UNL     1      40.194 -13.614   5.997  1.00  0.00     0.035 C 
HETATM   15  C   UNL     1      41.412 -14.494   6.276  1.00  0.00     0.034 C 
BRANCH  13  16
HETATM   16  N   UNL     1      41.104 -11.477   6.829  1.00  0.00    -0.067 N 
HETATM   17  H   UNL     1      40.404 -11.537   7.581  1.00  0.00     0.278 HD
HETATM   18  H   UNL     1      41.934 -11.963   7.204  1.00  0.00     0.278 HD
BRANCH  16  19
HETATM   19  C   UNL     1      41.439 -10.027   6.652  1.00  0.00     0.280 C 
BRANCH  19  20
HETATM   20  C   UNL     1      40.430  -9.148   7.293  1.00  0.00     0.027 A 
HETATM   21  S   UNL     1      40.155  -7.545   6.741  1.00  0.00    -0.084 SA
HETATM   22  C   UNL     1      38.956  -7.349   7.953  1.00  0.00     0.166 A 
HETATM   23  N   UNL     1      38.766  -8.387   8.737  1.00  0.00    -0.265 NA
HETATM   24  C   UNL     1      39.590  -9.422   8.353  1.00  0.00     0.133 A 
ENDBRANCH  19  20
ENDBRANCH  16  19
ENDBRANCH  13  16
ENDBRANCH   9  10
ENDBRANCH   7   9
TORSDOF 5
ENDMDL
MODEL 6
REMARK VINA RESULT:      -6.7      4.812      6.670
REMARK  5 active torsions:
REMARK  status: ('A' for Active; 'I' for Inactive)
REMARK    1  A    between atoms: C_7  and  O_8 
REMARK    2  A    between atoms: O_8  and  C_9 
REMARK    3  A    between atoms: C_12  and  N_13 
REMARK    4  A    between atoms: N_13  and  C_16 
REMARK    5  A    between atoms: C_16  and  C_17 
ROOT
HETATM    1  C   UNL     1      43.774 -18.242   4.534  1.00  0.00     0.028 A 
HETATM    2  C   UNL     1      43.590 -18.480   3.176  1.00  0.00     0.062 A 
HETATM    3  C   UNL     1      43.734 -19.787   2.620  1.00  0.00     0.101 C 
HETATM    4  N   UNL     1      43.845 -20.839   2.146  1.00  0.00    -0.191 NA
HETATM    5  C   UNL     1      43.256 -17.402   2.363  1.00  0.00     0.142 A 
HETATM    6  N   UNL     1      43.094 -16.125   2.803  1.00  0.00    -0.236 NA
HETATM    7  C   UNL     1      43.282 -15.934   4.129  1.00  0.00     0.164 A 
HETATM    8  C   UNL     1      43.617 -16.946   5.019  1.00  0.00     0.059 A 
ENDROOT
BRANCH   7   9
HETATM    9  O   UNL     1      43.145 -14.685   4.689  1.00  0.00    -0.329 OA
BRANCH   9  10
HETATM   10  C   UNL     1      42.306 -13.712   4.074  1.00  0.00     0.130 C 
HETATM   11  C   UNL     1      40.899 -14.225   3.736  1.00  0.00     0.034 C 
HETATM   12  C   UNL     1      40.019 -13.107   3.181  1.00  0.00     0.035 C 
HETATM   13  C   UNL     1      40.665 -12.351   2.016  1.00  0.00     0.186 C 
HETATM   14  C   UNL     1      42.069 -11.851   2.378  1.00  0.00     0.035 C 
HETATM   15  C   UNL     1      42.978 -12.953   2.921  1.00  0.00     0.034 C 
BRANCH  13  16
HETATM   16  N   UNL     1      40.762 -13.220   0.796  1.00  0.00    -0.067 N 
HETATM   17  H   UNL     1      41.590 -13.824   0.888  1.00  0.00     0.278 HD
HETATM   18  H   UNL     1      39.966 -13.875   0.736  1.00  0.00     0.278 HD
BRANCH  16  19
HETATM   19  C   UNL     1      40.885 -12.498  -0.512  1.00  0.00     0.280 C 
BRANCH  19  20
HETATM   20  C   UNL     1      39.949 -13.038  -1.528  1.00  0.00     0.027 A 
HETATM   21  S   UNL     1      38.265 -12.706  -1.464  1.00  0.00    -0.084 SA
HETATM   22  C   UNL     1      38.042 -13.644  -2.885  1.00  0.00     0.166 A 
HETATM   23  N   UNL     1      39.129 -14.189  -3.382  1.00  0.00    -0.265 NA
HETATM   24  C   UNL     1      40.223 -13.831  -2.624  1.00  0.00     0.133 A 
ENDBRANCH  19  20
ENDBRANCH  16  19
ENDBRANCH  13  16
ENDBRANCH   9  10
ENDBRANCH   7   9
TORSDOF 5
ENDMDL
MODEL 7
REMARK VINA RESULT:      -6.6      3.177      7.948
REMARK  5 active torsions:
REMARK  status: ('A' for Active; 'I' for Inactive)
REMARK    1  A    between atoms: C_7  and  O_8 
REMARK    2  A    between atoms: O_8  and  C_9 
REMARK    3  A    between atoms: C_12  and  N_13 
REMARK    4  A    between atoms: N_13  and  C_16 
REMARK    5  A    between atoms: C_16  and  C_17 
ROOT
HETATM    1  C   UNL     1      44.554 -11.347   5.386  1.00  0.00     0.028 A 
HETATM    2  C   UNL     1      43.755 -11.482   6.517  1.00  0.00     0.062 A 
HETATM    3  C   UNL     1      44.264 -11.229   7.827  1.00  0.00     0.101 C 
HETATM    4  N   UNL     1      44.655 -11.028   8.900  1.00  0.00    -0.191 NA
HETATM    5  C   UNL     1      42.431 -11.871   6.340  1.00  0.00     0.142 A 
HETATM    6  N   UNL     1      41.859 -12.129   5.132  1.00  0.00    -0.236 NA
HETATM    7  C   UNL     1      42.668 -11.988   4.058  1.00  0.00     0.164 A 
HETATM    8  C   UNL     1      44.001 -11.605   4.134  1.00  0.00     0.059 A 
ENDROOT
BRANCH   7   9
HETATM    9  O   UNL     1      42.200 -12.222   2.786  1.00  0.00    -0.329 OA
BRANCH   9  10
HETATM   10  C   UNL     1      42.002 -13.556   2.329  1.00  0.00     0.130 C 
HETATM   11  C   UNL     1      40.882 -14.307   3.063  1.00  0.00     0.034 C 
HETATM   12  C   UNL     1      40.649 -15.689   2.454  1.00  0.00     0.035 C 
HETATM   13  C   UNL     1      41.930 -16.519   2.329  1.00  0.00     0.186 C 
HETATM   14  C   UNL     1      43.033 -15.746   1.595  1.00  0.00     0.035 C 
HETATM   15  C   UNL     1      43.299 -14.365   2.193  1.00  0.00     0.034 C 
BRANCH  13  16
HETATM   16  N   UNL     1      42.444 -16.925   3.681  1.00  0.00    -0.067 N 
HETATM   17  H   UNL     1      42.408 -16.108   4.305  1.00  0.00     0.278 HD
HETATM   18  H   UNL     1      41.825 -17.621   4.125  1.00  0.00     0.278 HD
BRANCH  16  19
HETATM   19  C   UNL     1      43.849 -17.444   3.715  1.00  0.00     0.280 C 
BRANCH  19  20
HETATM   20  C   UNL     1      43.891 -18.924   3.615  1.00  0.00     0.027 A 
HETATM   21  S   UNL     1      44.117 -19.912   5.002  1.00  0.00    -0.084 SA
HETATM   22  C   UNL     1      44.033 -21.307   4.003  1.00  0.00     0.166 A 
HETATM   23  N   UNL     1      43.863 -21.076   2.721  1.00  0.00    -0.265 NA
HETATM   24  C   UNL     1      43.762 -19.721   2.496  1.00  0.00     0.133 A 
ENDBRANCH  19  20
ENDBRANCH  16  19
ENDBRANCH  13  16
ENDBRANCH   9  10
ENDBRANCH   7   9
TORSDOF 5
ENDMDL
MODEL 8
REMARK VINA RESULT:      -6.6      4.698      6.360
REMARK  5 active torsions:
REMARK  status: ('A' for Active; 'I' for Inactive)
REMARK    1  A    between atoms: C_7  and  O_8 
REMARK    2  A    between atoms: O_8  and  C_9 
REMARK    3  A    between atoms: C_12  and  N_13 
REMARK    4  A    between atoms: N_13  and  C_16 
REMARK    5  A    between atoms: C_16  and  C_17 
ROOT
HETATM    1  C   UNL     1      43.647 -18.949   2.854  1.00  0.00     0.028 A 
HETATM    2  C   UNL     1      43.957 -18.968   4.210  1.00  0.00     0.062 A 
HETATM    3  C   UNL     1      44.245 -20.187   4.894  1.00  0.00     0.101 C 
HETATM    4  N   UNL     1      44.485 -21.164   5.471  1.00  0.00    -0.191 NA
HETATM    5  C   UNL     1      43.980 -17.755   4.892  1.00  0.00     0.142 A 
HETATM    6  N   UNL     1      43.722 -16.546   4.324  1.00  0.00    -0.236 NA
HETATM    7  C   UNL     1      43.425 -16.569   3.005  1.00  0.00     0.164 A 
HETATM    8  C   UNL     1      43.376 -17.728   2.240  1.00  0.00     0.059 A 
ENDROOT
BRANCH   7   9
HETATM    9  O   UNL     1      43.147 -15.408   2.323  1.00  0.00    -0.329 OA
BRANCH   9  10
HETATM   10  C   UNL     1      42.038 -14.600   2.705  1.00  0.00     0.130 C 
HETATM   11  C   UNL     1      40.790 -14.802   1.835  1.00  0.00     0.034 C 
HETATM   12  C   UNL     1      39.608 -13.992   2.362  1.00  0.00     0.035 C 
HETATM   13  C   UNL     1      39.939 -12.512   2.582  1.00  0.00     0.186 C 
HETATM   14  C   UNL     1      41.190 -12.338   3.452  1.00  0.00     0.035 C 
HETATM   15  C   UNL     1      42.394 -13.126   2.938  1.00  0.00     0.034 C 
BRANCH  13  16
HETATM   16  N   UNL     1      40.160 -11.809   1.274  1.00  0.00    -0.067 N 
HETATM   17  H   UNL     1      40.161 -10.794   1.443  1.00  0.00     0.278 HD
HETATM   18  H   UNL     1      41.097 -12.012   0.891  1.00  0.00     0.278 HD
BRANCH  16  19
HETATM   19  C   UNL     1      39.140 -12.077   0.209  1.00  0.00     0.280 C 
BRANCH  19  20
HETATM   20  C   UNL     1      39.776 -12.417  -1.088  1.00  0.00     0.027 A 
HETATM   21  S   UNL     1      41.021 -11.444  -1.761  1.00  0.00    -0.084 SA
HETATM   22  C   UNL     1      41.110 -12.512  -3.102  1.00  0.00     0.166 A 
HETATM   23  N   UNL     1      40.270 -13.522  -3.080  1.00  0.00    -0.265 NA
HETATM   24  C   UNL     1      39.520 -13.485  -1.925  1.00  0.00     0.133 A 
ENDBRANCH  19  20
ENDBRANCH  16  19
ENDBRANCH  13  16
ENDBRANCH   9  10
ENDBRANCH   7   9
TORSDOF 5
ENDMDL
MODEL 9
REMARK VINA RESULT:      -6.5      5.284     10.970
REMARK  5 active torsions:
REMARK  status: ('A' for Active; 'I' for Inactive)
REMARK    1  A    between atoms: C_7  and  O_8 
REMARK    2  A    between atoms: O_8  and  C_9 
REMARK    3  A    between atoms: C_12  and  N_13 
REMARK    4  A    between atoms: N_13  and  C_16 
REMARK    5  A    between atoms: C_16  and  C_17 
ROOT
HETATM    1  C   UNL     1      43.124  -6.921  14.645  1.00  0.00     0.028 A 
HETATM    2  C   UNL     1      42.130  -7.201  15.578  1.00  0.00     0.062 A 
HETATM    3  C   UNL     1      41.983  -6.428  16.769  1.00  0.00     0.101 C 
HETATM    4  N   UNL     1      41.844  -5.813  17.743  1.00  0.00    -0.191 NA
HETATM    5  C   UNL     1      41.271  -8.264  15.319  1.00  0.00     0.142 A 
HETATM    6  N   UNL     1      41.332  -9.053  14.212  1.00  0.00    -0.236 NA
HETATM    7  C   UNL     1      42.312  -8.749  13.329  1.00  0.00     0.164 A 
HETATM    8  C   UNL     1      43.216  -7.709  13.501  1.00  0.00     0.059 A 
ENDROOT
BRANCH   7   9
HETATM    9  O   UNL     1      42.470  -9.477  12.173  1.00  0.00    -0.329 OA
BRANCH   9  10
HETATM   10  C   UNL     1      43.436  -9.081  11.204  1.00  0.00     0.130 C 
HETATM   11  C   UNL     1      42.847  -8.303  10.019  1.00  0.00     0.034 C 
HETATM   12  C   UNL     1      43.944  -7.815   9.075  1.00  0.00     0.035 C 
HETATM   13  C   UNL     1      44.900  -8.927   8.632  1.00  0.00     0.186 C 
HETATM   14  C   UNL     1      45.472  -9.689   9.834  1.00  0.00     0.035 C 
HETATM   15  C   UNL     1      44.395 -10.204  10.788  1.00  0.00     0.034 C 
BRANCH  13  16
HETATM   16  N   UNL     1      44.208  -9.905   7.726  1.00  0.00    -0.067 N 
HETATM   17  H   UNL     1      43.541 -10.454   8.285  1.00  0.00     0.278 HD
HETATM   18  H   UNL     1      43.626  -9.420   7.025  1.00  0.00     0.278 HD
BRANCH  16  19
HETATM   19  C   UNL     1      45.098 -10.880   7.017  1.00  0.00     0.280 C 
BRANCH  19  20
HETATM   20  C   UNL     1      44.316 -11.890   6.263  1.00  0.00     0.027 A 
HETATM   21  S   UNL     1      43.789 -11.600   4.654  1.00  0.00    -0.084 SA
HETATM   22  C   UNL     1      43.056 -13.152   4.630  1.00  0.00     0.166 A 
HETATM   23  N   UNL     1      43.170 -13.850   5.738  1.00  0.00    -0.265 NA
HETATM   24  C   UNL     1      43.904 -13.144   6.665  1.00  0.00     0.133 A 
ENDBRANCH  19  20
ENDBRANCH  16  19
ENDBRANCH  13  16
ENDBRANCH   9  10
ENDBRANCH   7   9
TORSDOF 5
ENDMDL
MODEL 10
REMARK VINA RESULT:      -6.5      2.918      8.370
REMARK  5 active torsions:
REMARK  status: ('A' for Active; 'I' for Inactive)
REMARK    1  A    between atoms: C_7  and  O_8 
REMARK    2  A    between atoms: O_8  and  C_9 
REMARK    3  A    between atoms: C_12  and  N_13 
REMARK    4  A    between atoms: N_13  and  C_16 
REMARK    5  A    between atoms: C_16  and  C_17 
ROOT
HETATM    1  C   UNL     1      43.078 -10.113   7.771  1.00  0.00     0.028 A 
HETATM    2  C   UNL     1      44.256 -10.335   8.477  1.00  0.00     0.062 A 
HETATM    3  C   UNL     1      44.436  -9.841   9.804  1.00  0.00     0.101 C 
HETATM    4  N   UNL     1      44.606  -9.452  10.883  1.00  0.00    -0.191 NA
HETATM    5  C   UNL     1      45.265 -11.061   7.852  1.00  0.00     0.142 A 
HETATM    6  N   UNL     1      45.181 -11.572   6.594  1.00  0.00    -0.236 NA
HETATM    7  C   UNL     1      44.021 -11.334   5.941  1.00  0.00     0.164 A 
HETATM    8  C   UNL     1      42.958 -10.621   6.480  1.00  0.00     0.059 A 
ENDROOT
BRANCH   7   9
HETATM    9  O   UNL     1      43.821 -11.802   4.663  1.00  0.00    -0.329 OA
BRANCH   9  10
HETATM   10  C   UNL     1      43.003 -12.947   4.439  1.00  0.00     0.130 C 
HETATM   11  C   UNL     1      43.216 -14.075   5.457  1.00  0.00     0.034 C 
HETATM   12  C   UNL     1      42.236 -15.224   5.227  1.00  0.00     0.035 C 
HETATM   13  C   UNL     1      42.227 -15.730   3.781  1.00  0.00     0.186 C 
HETATM   14  C   UNL     1      42.014 -14.584   2.785  1.00  0.00     0.035 C 
HETATM   15  C   UNL     1      42.993 -13.427   2.981  1.00  0.00     0.034 C 
BRANCH  13  16
HETATM   16  N   UNL     1      43.513 -16.429   3.446  1.00  0.00    -0.067 N 
HETATM   17  H   UNL     1      44.178 -15.735   3.080  1.00  0.00     0.278 HD
HETATM   18  H   UNL     1      43.967 -16.806   4.292  1.00  0.00     0.278 HD
BRANCH  16  19
HETATM   19  C   UNL     1      43.413 -17.524   2.428  1.00  0.00     0.280 C 
BRANCH  19  20
HETATM   20  C   UNL     1      43.646 -18.859   3.033  1.00  0.00     0.027 A 
HETATM   21  S   UNL     1      44.054 -19.035   4.692  1.00  0.00    -0.084 SA
HETATM   22  C   UNL     1      44.115 -20.738   4.480  1.00  0.00     0.166 A 
HETATM   23  N   UNL     1      43.867 -21.168   3.263  1.00  0.00    -0.265 NA
HETATM   24  C   UNL     1      43.579 -20.103   2.438  1.00  0.00     0.133 A 
ENDBRANCH  19  20
ENDBRANCH  16  19
ENDBRANCH  13  16
ENDBRANCH   9  10
ENDBRANCH   7   9
TORSDOF 5
ENDMDL
