MODEL 1
REMARK VINA RESULT:      -7.7      0.000      0.000
REMARK  2 active torsions:
REMARK  status: ('A' for Active; 'I' for Inactive)
REMARK    1  A    between atoms: C_8  and  S_9 
REMARK    2  A    between atoms: S_9  and  C_10 
ROOT
HETATM    1  C   UNL     1      43.874 -20.876   3.250  1.00  0.00     0.002 A 
HETATM    2  C   UNL     1      43.581 -19.714   2.538  1.00  0.00     0.034 A 
HETATM    3  C   UNL     1      43.494 -18.482   3.172  1.00  0.00     0.087 A 
HETATM    4  C   UNL     1      43.711 -18.408   4.573  1.00  0.00     0.087 A 
HETATM    5  N   UNL     1      43.637 -17.237   5.234  1.00  0.00    -0.232 NA
HETATM    6  C   UNL     1      43.383 -16.132   4.497  1.00  0.00     0.164 A 
HETATM    7 CL   UNL     1      43.242 -14.708   5.438  1.00  0.00    -0.059 Cl
HETATM    8  C   UNL     1      43.171 -16.205   3.132  1.00  0.00     0.165 A 
HETATM    9  N   UNL     1      43.201 -17.380   2.450  1.00  0.00    -0.234 NA
HETATM   10  C   UNL     1      43.998 -19.574   5.271  1.00  0.00     0.034 A 
HETATM   11  C   UNL     1      44.081 -20.806   4.622  1.00  0.00     0.002 A 
ENDROOT
BRANCH   8  12
HETATM   12  S   UNL     1      42.786 -14.880   2.005  1.00  0.00     0.076 S 
HETATM   13  O   UNL     1      43.622 -13.693   2.367  1.00  0.00    -0.251 OA
BRANCH  12  14
HETATM   14  C   UNL     1      41.070 -14.523   2.561  1.00  0.00     0.089 C 
HETATM   15  C   UNL     1      40.057 -15.460   1.894  1.00  0.00     0.045 C 
HETATM   16  C   UNL     1      39.898 -15.190   0.404  1.00  0.00     0.233 C 
HETATM   17  N   UNL     1      39.571 -13.749   0.192  1.00  0.00    -0.075 N 
HETATM   18  H   UNL     1      38.637 -13.542   0.573  1.00  0.00     0.277 HD
HETATM   19  H   UNL     1      39.491 -13.573  -0.821  1.00  0.00     0.277 HD
HETATM   20  C   UNL     1      40.568 -12.793   0.763  1.00  0.00     0.233 C 
HETATM   21  C   UNL     1      40.721 -13.059   2.253  1.00  0.00     0.045 C 
ENDBRANCH  12  14
ENDBRANCH   8  12
TORSDOF 2
ENDMDL
MODEL 2
REMARK VINA RESULT:      -7.3      2.141      2.804
REMARK  2 active torsions:
REMARK  status: ('A' for Active; 'I' for Inactive)
REMARK    1  A    between atoms: C_8  and  S_9 
REMARK    2  A    between atoms: S_9  and  C_10 
ROOT
HETATM    1  C   UNL     1      44.014 -20.930   5.272  1.00  0.00     0.002 A 
HETATM    2  C   UNL     1      43.778 -19.612   5.661  1.00  0.00     0.034 A 
HETATM    3  C   UNL     1      43.631 -18.598   4.724  1.00  0.00     0.087 A 
HETATM    4  C   UNL     1      43.718 -18.915   3.343  1.00  0.00     0.087 A 
HETATM    5  N   UNL     1      43.582 -17.968   2.396  1.00  0.00    -0.232 NA
HETATM    6  C   UNL     1      43.323 -16.710   2.819  1.00  0.00     0.164 A 
HETATM    7 CL   UNL     1      43.235 -15.570   1.543  1.00  0.00    -0.059 Cl
HETATM    8  C   UNL     1      43.238 -16.403   4.165  1.00  0.00     0.165 A 
HETATM    9  N   UNL     1      43.411 -17.333   5.140  1.00  0.00    -0.234 NA
HETATM   10  C   UNL     1      43.957 -20.232   2.969  1.00  0.00     0.034 A 
HETATM   11  C   UNL     1      44.106 -21.240   3.921  1.00  0.00     0.002 A 
ENDROOT
BRANCH   8  12
HETATM   12  S   UNL     1      42.946 -14.813   4.915  1.00  0.00     0.076 S 
HETATM   13  O   UNL     1      43.754 -14.726   6.171  1.00  0.00    -0.251 OA
BRANCH  12  14
HETATM   14  C   UNL     1      41.193 -15.053   5.414  1.00  0.00     0.089 C 
HETATM   15  C   UNL     1      40.348 -15.598   4.258  1.00  0.00     0.045 C 
HETATM   16  C   UNL     1      40.153 -14.581   3.141  1.00  0.00     0.233 C 
HETATM   17  N   UNL     1      39.597 -13.319   3.711  1.00  0.00    -0.075 N 
HETATM   18  H   UNL     1      38.639 -13.481   4.055  1.00  0.00     0.277 HD
HETATM   19  H   UNL     1      39.493 -12.630   2.950  1.00  0.00     0.277 HD
HETATM   20  C   UNL     1      40.423 -12.706   4.795  1.00  0.00     0.233 C 
HETATM   21  C   UNL     1      40.611 -13.721   5.914  1.00  0.00     0.045 C 
ENDBRANCH  12  14
ENDBRANCH   8  12
TORSDOF 2
ENDMDL
MODEL 3
REMARK VINA RESULT:      -7.0      1.375      1.564
REMARK  2 active torsions:
REMARK  status: ('A' for Active; 'I' for Inactive)
REMARK    1  A    between atoms: C_8  and  S_9 
REMARK    2  A    between atoms: S_9  and  C_10 
ROOT
HETATM    1  C   UNL     1      43.608 -20.270   2.094  1.00  0.00     0.002 A 
HETATM    2  C   UNL     1      43.252 -18.924   2.017  1.00  0.00     0.034 A 
HETATM    3  C   UNL     1      43.349 -18.088   3.123  1.00  0.00     0.087 A 
HETATM    4  C   UNL     1      43.825 -18.618   4.351  1.00  0.00     0.087 A 
HETATM    5  N   UNL     1      43.937 -17.848   5.450  1.00  0.00    -0.232 NA
HETATM    6  C   UNL     1      43.611 -16.543   5.320  1.00  0.00     0.164 A 
HETATM    7 CL   UNL     1      43.723 -15.668   6.789  1.00  0.00    -0.059 Cl
HETATM    8  C   UNL     1      43.147 -16.028   4.123  1.00  0.00     0.165 A 
HETATM    9  N   UNL     1      42.987 -16.793   3.011  1.00  0.00    -0.234 NA
HETATM   10  C   UNL     1      44.173 -19.962   4.413  1.00  0.00     0.034 A 
HETATM   11  C   UNL     1      44.069 -20.791   3.296  1.00  0.00     0.002 A 
ENDROOT
BRANCH   8  12
HETATM   12  S   UNL     1      42.633 -14.360   3.768  1.00  0.00     0.076 S 
HETATM   13  O   UNL     1      43.179 -13.459   4.830  1.00  0.00    -0.251 OA
BRANCH  12  14
HETATM   14  C   UNL     1      40.832 -14.544   4.088  1.00  0.00     0.089 C 
HETATM   15  C   UNL     1      40.088 -15.053   2.848  1.00  0.00     0.045 C 
HETATM   16  C   UNL     1      40.039 -14.022   1.728  1.00  0.00     0.233 C 
HETATM   17  N   UNL     1      39.471 -12.745   2.251  1.00  0.00    -0.075 N 
HETATM   18  H   UNL     1      38.479 -12.878   2.497  1.00  0.00     0.277 HD
HETATM   19  H   UNL     1      39.466 -12.049   1.491  1.00  0.00     0.277 HD
HETATM   20  C   UNL     1      40.204 -12.168   3.419  1.00  0.00     0.233 C 
HETATM   21  C   UNL     1      40.247 -13.197   4.540  1.00  0.00     0.045 C 
ENDBRANCH  12  14
ENDBRANCH   8  12
TORSDOF 2
ENDMDL
MODEL 4
REMARK VINA RESULT:      -7.0      3.354      4.366
REMARK  2 active torsions:
REMARK  status: ('A' for Active; 'I' for Inactive)
REMARK    1  A    between atoms: C_8  and  S_9 
REMARK    2  A    between atoms: S_9  and  C_10 
ROOT
HETATM    1  C   UNL     1      43.346 -18.415   2.270  1.00  0.00     0.002 A 
HETATM    2  C   UNL     1      42.872 -17.154   2.630  1.00  0.00     0.034 A 
HETATM    3  C   UNL     1      42.922 -16.713   3.946  1.00  0.00     0.087 A 
HETATM    4  C   UNL     1      43.471 -17.565   4.940  1.00  0.00     0.087 A 
HETATM    5  N   UNL     1      43.541 -17.182   6.230  1.00  0.00    -0.232 NA
HETATM    6  C   UNL     1      43.099 -15.940   6.526  1.00  0.00     0.164 A 
HETATM    7 CL   UNL     1      43.169 -15.577   8.199  1.00  0.00    -0.059 Cl
HETATM    8  C   UNL     1      42.564 -15.111   5.556  1.00  0.00     0.165 A 
HETATM    9  N   UNL     1      42.446 -15.489   4.256  1.00  0.00    -0.234 NA
HETATM   10  C   UNL     1      43.936 -18.820   4.569  1.00  0.00     0.034 A 
HETATM   11  C   UNL     1      43.878 -19.252   3.243  1.00  0.00     0.002 A 
ENDROOT
BRANCH   8  12
HETATM   12  S   UNL     1      41.898 -13.471   5.755  1.00  0.00     0.076 S 
HETATM   13  O   UNL     1      40.896 -13.231   4.669  1.00  0.00    -0.251 OA
BRANCH  12  14
HETATM   14  C   UNL     1      43.400 -12.501   5.327  1.00  0.00     0.089 C 
HETATM   15  C   UNL     1      44.398 -12.467   6.490  1.00  0.00     0.045 C 
HETATM   16  C   UNL     1      43.898 -11.645   7.670  1.00  0.00     0.233 C 
HETATM   17  N   UNL     1      43.520 -10.280   7.200  1.00  0.00    -0.075 N 
HETATM   18  H   UNL     1      44.360  -9.769   6.893  1.00  0.00     0.277 HD
HETATM   19  H   UNL     1      43.159  -9.741   8.003  1.00  0.00     0.277 HD
HETATM   20  C   UNL     1      42.494 -10.256   6.113  1.00  0.00     0.233 C 
HETATM   21  C   UNL     1      42.998 -11.072   4.932  1.00  0.00     0.045 C 
ENDBRANCH  12  14
ENDBRANCH   8  12
TORSDOF 2
ENDMDL
MODEL 5
REMARK VINA RESULT:      -7.0      2.419      3.052
REMARK  2 active torsions:
REMARK  status: ('A' for Active; 'I' for Inactive)
REMARK    1  A    between atoms: C_8  and  S_9 
REMARK    2  A    between atoms: S_9  and  C_10 
ROOT
HETATM    1  C   UNL     1      43.230 -19.190   2.265  1.00  0.00     0.002 A 
HETATM    2  C   UNL     1      42.543 -17.977   2.235  1.00  0.00     0.034 A 
HETATM    3  C   UNL     1      42.715 -17.026   3.233  1.00  0.00     0.087 A 
HETATM    4  C   UNL     1      43.612 -17.297   4.300  1.00  0.00     0.087 A 
HETATM    5  N   UNL     1      43.812 -16.407   5.290  1.00  0.00    -0.232 NA
HETATM    6  C   UNL     1      43.149 -15.232   5.203  1.00  0.00     0.164 A 
HETATM    7 CL   UNL     1      43.421 -14.200   6.543  1.00  0.00    -0.059 Cl
HETATM    8  C   UNL     1      42.276 -14.970   4.163  1.00  0.00     0.165 A 
HETATM    9  N   UNL     1      42.027 -15.867   3.174  1.00  0.00    -0.234 NA
HETATM   10  C   UNL     1      44.287 -18.511   4.318  1.00  0.00     0.034 A 
HETATM   11  C   UNL     1      44.103 -19.459   3.311  1.00  0.00     0.002 A 
ENDROOT
BRANCH   8  12
HETATM   12  S   UNL     1      41.289 -13.511   3.896  1.00  0.00     0.076 S 
HETATM   13  O   UNL     1      40.160 -13.863   2.979  1.00  0.00    -0.251 OA
BRANCH  12  14
HETATM   14  C   UNL     1      42.494 -12.528   2.917  1.00  0.00     0.089 C 
HETATM   15  C   UNL     1      43.432 -11.722   3.823  1.00  0.00     0.045 C 
HETATM   16  C   UNL     1      42.718 -10.590   4.549  1.00  0.00     0.233 C 
HETATM   17  N   UNL     1      42.006  -9.733   3.556  1.00  0.00    -0.075 N 
HETATM   18  H   UNL     1      42.690  -9.241   2.963  1.00  0.00     0.277 HD
HETATM   19  H   UNL     1      41.506  -8.985   4.062  1.00  0.00     0.277 HD
HETATM   20  C   UNL     1      41.025 -10.460   2.694  1.00  0.00     0.233 C 
HETATM   21  C   UNL     1      41.741 -11.587   1.963  1.00  0.00     0.045 C 
ENDBRANCH  12  14
ENDBRANCH   8  12
TORSDOF 2
ENDMDL
MODEL 6
REMARK VINA RESULT:      -6.8      2.283      6.624
REMARK  2 active torsions:
REMARK  status: ('A' for Active; 'I' for Inactive)
REMARK    1  A    between atoms: C_8  and  S_9 
REMARK    2  A    between atoms: S_9  and  C_10 
ROOT
HETATM    1  C   UNL     1      38.864 -14.436  -2.914  1.00  0.00     0.002 A 
HETATM    2  C   UNL     1      39.132 -15.048  -1.690  1.00  0.00     0.034 A 
HETATM    3  C   UNL     1      39.843 -14.389  -0.695  1.00  0.00     0.087 A 
HETATM    4  C   UNL     1      40.300 -13.066  -0.931  1.00  0.00     0.087 A 
HETATM    5  N   UNL     1      40.993 -12.387   0.003  1.00  0.00    -0.232 NA
HETATM    6  C   UNL     1      41.201 -13.008   1.185  1.00  0.00     0.164 A 
HETATM    7 CL   UNL     1      42.148 -12.087   2.276  1.00  0.00    -0.059 Cl
HETATM    8  C   UNL     1      40.756 -14.297   1.414  1.00  0.00     0.165 A 
HETATM    9  N   UNL     1      40.089 -15.018   0.474  1.00  0.00    -0.234 NA
HETATM   10  C   UNL     1      40.029 -12.470  -2.156  1.00  0.00     0.034 A 
HETATM   11  C   UNL     1      39.316 -13.143  -3.149  1.00  0.00     0.002 A 
ENDROOT
BRANCH   8  12
HETATM   12  S   UNL     1      40.965 -15.291   2.877  1.00  0.00     0.076 S 
HETATM   13  O   UNL     1      40.550 -14.480   4.064  1.00  0.00    -0.251 OA
BRANCH  12  14
HETATM   14  C   UNL     1      42.801 -15.381   2.899  1.00  0.00     0.089 C 
HETATM   15  C   UNL     1      43.325 -16.426   1.908  1.00  0.00     0.045 C 
HETATM   16  C   UNL     1      43.000 -17.853   2.331  1.00  0.00     0.233 C 
HETATM   17  N   UNL     1      43.493 -18.084   3.720  1.00  0.00    -0.075 N 
HETATM   18  H   UNL     1      44.523 -18.060   3.735  1.00  0.00     0.277 HD
HETATM   19  H   UNL     1      43.245 -19.044   4.004  1.00  0.00     0.277 HD
HETATM   20  C   UNL     1      42.954 -17.134   4.740  1.00  0.00     0.233 C 
HETATM   21  C   UNL     1      43.286 -15.709   4.320  1.00  0.00     0.045 C 
ENDBRANCH  12  14
ENDBRANCH   8  12
TORSDOF 2
ENDMDL
MODEL 7
REMARK VINA RESULT:      -6.7      2.983      3.794
REMARK  2 active torsions:
REMARK  status: ('A' for Active; 'I' for Inactive)
REMARK    1  A    between atoms: C_8  and  S_9 
REMARK    2  A    between atoms: S_9  and  C_10 
ROOT
HETATM    1  C   UNL     1      44.394 -19.096   4.468  1.00  0.00     0.002 A 
HETATM    2  C   UNL     1      44.142 -17.747   4.717  1.00  0.00     0.034 A 
HETATM    3  C   UNL     1      43.426 -16.969   3.817  1.00  0.00     0.087 A 
HETATM    4  C   UNL     1      42.939 -17.563   2.624  1.00  0.00     0.087 A 
HETATM    5  N   UNL     1      42.239 -16.850   1.720  1.00  0.00    -0.232 NA
HETATM    6  C   UNL     1      41.993 -15.554   2.019  1.00  0.00     0.164 A 
HETATM    7 CL   UNL     1      41.157 -14.720   0.778  1.00  0.00    -0.059 Cl
HETATM    8  C   UNL     1      42.469 -14.977   3.182  1.00  0.00     0.165 A 
HETATM    9  N   UNL     1      43.211 -15.665   4.090  1.00  0.00    -0.234 NA
HETATM   10  C   UNL     1      43.199 -18.906   2.386  1.00  0.00     0.034 A 
HETATM   11  C   UNL     1      43.922 -19.677   3.298  1.00  0.00     0.002 A 
ENDROOT
BRANCH   8  12
HETATM   12  S   UNL     1      42.285 -13.291   3.730  1.00  0.00     0.076 S 
HETATM   13  O   UNL     1      43.545 -12.549   3.411  1.00  0.00    -0.251 OA
BRANCH  12  14
HETATM   14  C   UNL     1      42.274 -13.582   5.545  1.00  0.00     0.089 C 
HETATM   15  C   UNL     1      40.855 -13.836   6.066  1.00  0.00     0.045 C 
HETATM   16  C   UNL     1      39.976 -12.594   6.006  1.00  0.00     0.233 C 
HETATM   17  N   UNL     1      40.654 -11.471   6.718  1.00  0.00    -0.075 N 
HETATM   18  H   UNL     1      40.708 -11.676   7.726  1.00  0.00     0.277 HD
HETATM   19  H   UNL     1      40.061 -10.630   6.649  1.00  0.00     0.277 HD
HETATM   20  C   UNL     1      42.015 -11.136   6.200  1.00  0.00     0.233 C 
HETATM   21  C   UNL     1      42.895 -12.376   6.267  1.00  0.00     0.045 C 
ENDBRANCH  12  14
ENDBRANCH   8  12
TORSDOF 2
ENDMDL
MODEL 8
REMARK VINA RESULT:      -6.7      3.380      4.413
REMARK  2 active torsions:
REMARK  status: ('A' for Active; 'I' for Inactive)
REMARK    1  A    between atoms: C_8  and  S_9 
REMARK    2  A    between atoms: S_9  and  C_10 
ROOT
HETATM    1  C   UNL     1      44.350 -18.769   3.937  1.00  0.00     0.002 A 
HETATM    2  C   UNL     1      43.958 -17.692   4.732  1.00  0.00     0.034 A 
HETATM    3  C   UNL     1      42.961 -16.817   4.320  1.00  0.00     0.087 A 
HETATM    4  C   UNL     1      42.329 -17.029   3.067  1.00  0.00     0.087 A 
HETATM    5  N   UNL     1      41.357 -16.209   2.624  1.00  0.00    -0.232 NA
HETATM    6  C   UNL     1      40.988 -15.198   3.442  1.00  0.00     0.164 A 
HETATM    7 CL   UNL     1      39.795 -14.175   2.759  1.00  0.00    -0.059 Cl
HETATM    8  C   UNL     1      41.605 -14.992   4.663  1.00  0.00     0.165 A 
HETATM    9  N   UNL     1      42.615 -15.782   5.114  1.00  0.00    -0.234 NA
HETATM   10  C   UNL     1      42.732 -18.104   2.284  1.00  0.00     0.034 A 
HETATM   11  C   UNL     1      43.737 -18.974   2.708  1.00  0.00     0.002 A 
ENDROOT
BRANCH   8  12
HETATM   12  S   UNL     1      41.289 -13.704   5.852  1.00  0.00     0.076 S 
HETATM   13  O   UNL     1      39.812 -13.606   6.064  1.00  0.00    -0.251 OA
BRANCH  12  14
HETATM   14  C   UNL     1      41.788 -12.253   4.839  1.00  0.00     0.089 C 
HETATM   15  C   UNL     1      43.309 -12.189   4.659  1.00  0.00     0.045 C 
HETATM   16  C   UNL     1      44.041 -11.855   5.952  1.00  0.00     0.233 C 
HETATM   17  N   UNL     1      43.480 -10.598   6.530  1.00  0.00    -0.075 N 
HETATM   18  H   UNL     1      43.702  -9.801   5.918  1.00  0.00     0.277 HD
HETATM   19  H   UNL     1      43.966 -10.396   7.417  1.00  0.00     0.277 HD
HETATM   20  C   UNL     1      42.009 -10.635   6.792  1.00  0.00     0.233 C 
HETATM   21  C   UNL     1      41.278 -10.962   5.498  1.00  0.00     0.045 C 
ENDBRANCH  12  14
ENDBRANCH   8  12
TORSDOF 2
ENDMDL
MODEL 9
REMARK VINA RESULT:      -6.6      1.960      2.494
REMARK  2 active torsions:
REMARK  status: ('A' for Active; 'I' for Inactive)
REMARK    1  A    between atoms: C_8  and  S_9 
REMARK    2  A    between atoms: S_9  and  C_10 
ROOT
HETATM    1  C   UNL     1      44.062 -19.256   2.999  1.00  0.00     0.002 A 
HETATM    2  C   UNL     1      43.142 -18.455   2.324  1.00  0.00     0.034 A 
HETATM    3  C   UNL     1      42.616 -17.311   2.910  1.00  0.00     0.087 A 
HETATM    4  C   UNL     1      43.030 -16.952   4.220  1.00  0.00     0.087 A 
HETATM    5  N   UNL     1      42.549 -15.852   4.830  1.00  0.00    -0.232 NA
HETATM    6  C   UNL     1      41.683 -15.088   4.126  1.00  0.00     0.164 A 
HETATM    7 CL   UNL     1      41.080 -13.753   5.014  1.00  0.00    -0.059 Cl
HETATM    8  C   UNL     1      41.281 -15.440   2.850  1.00  0.00     0.165 A 
HETATM    9  N   UNL     1      41.721 -16.565   2.229  1.00  0.00    -0.234 NA
HETATM   10  C   UNL     1      43.944 -17.761   4.881  1.00  0.00     0.034 A 
HETATM   11  C   UNL     1      44.463 -18.909   4.283  1.00  0.00     0.002 A 
ENDROOT
BRANCH   8  12
HETATM   12  S   UNL     1      40.129 -14.593   1.787  1.00  0.00     0.076 S 
HETATM   13  O   UNL     1      39.683 -15.542   0.720  1.00  0.00    -0.251 OA
BRANCH  12  14
HETATM   14  C   UNL     1      41.291 -13.404   1.001  1.00  0.00     0.089 C 
HETATM   15  C   UNL     1      41.511 -12.168   1.880  1.00  0.00     0.045 C 
HETATM   16  C   UNL     1      40.274 -11.284   1.973  1.00  0.00     0.233 C 
HETATM   17  N   UNL     1      39.809 -10.934   0.599  1.00  0.00    -0.075 N 
HETATM   18  H   UNL     1      40.502 -10.326   0.139  1.00  0.00     0.277 HD
HETATM   19  H   UNL     1      38.957 -10.357   0.675  1.00  0.00     0.277 HD
HETATM   20  C   UNL     1      39.511 -12.107  -0.277  1.00  0.00     0.233 C 
HETATM   21  C   UNL     1      40.750 -12.985  -0.375  1.00  0.00     0.045 C 
ENDBRANCH  12  14
ENDBRANCH   8  12
TORSDOF 2
ENDMDL
MODEL 10
REMARK VINA RESULT:      -6.4      2.911      3.993
REMARK  2 active torsions:
REMARK  status: ('A' for Active; 'I' for Inactive)
REMARK    1  A    between atoms: C_8  and  S_9 
REMARK    2  A    between atoms: S_9  and  C_10 
ROOT
HETATM    1  C   UNL     1      44.133 -17.619   5.082  1.00  0.00     0.002 A 
HETATM    2  C   UNL     1      43.386 -16.443   5.151  1.00  0.00     0.034 A 
HETATM    3  C   UNL     1      42.619 -16.013   4.076  1.00  0.00     0.087 A 
HETATM    4  C   UNL     1      42.594 -16.790   2.888  1.00  0.00     0.087 A 
HETATM    5  N   UNL     1      41.865 -16.414   1.820  1.00  0.00    -0.232 NA
HETATM    6  C   UNL     1      41.132 -15.285   1.944  1.00  0.00     0.164 A 
HETATM    7 CL   UNL     1      40.296 -14.859   0.510  1.00  0.00    -0.059 Cl
HETATM    8  C   UNL     1      41.158 -14.529   3.102  1.00  0.00     0.165 A 
HETATM    9  N   UNL     1      41.916 -14.866   4.178  1.00  0.00    -0.234 NA
HETATM   10  C   UNL     1      43.346 -17.956   2.832  1.00  0.00     0.034 A 
HETATM   11  C   UNL     1      44.114 -18.377   3.918  1.00  0.00     0.002 A 
ENDROOT
BRANCH   8  12
HETATM   12  S   UNL     1      40.301 -13.004   3.440  1.00  0.00     0.076 S 
HETATM   13  O   UNL     1      38.902 -13.121   2.921  1.00  0.00    -0.251 OA
BRANCH  12  14
HETATM   14  C   UNL     1      41.215 -11.902   2.286  1.00  0.00     0.089 C 
HETATM   15  C   UNL     1      42.662 -11.686   2.743  1.00  0.00     0.045 C 
HETATM   16  C   UNL     1      42.759 -10.852   4.014  1.00  0.00     0.233 C 
HETATM   17  N   UNL     1      42.021  -9.569   3.824  1.00  0.00    -0.075 N 
HETATM   18  H   UNL     1      42.501  -8.989   3.121  1.00  0.00     0.277 HD
HETATM   19  H   UNL     1      42.073  -9.025   4.699  1.00  0.00     0.277 HD
HETATM   20  C   UNL     1      40.583  -9.726   3.447  1.00  0.00     0.233 C 
HETATM   21  C   UNL     1      40.488 -10.553   2.173  1.00  0.00     0.045 C 
ENDBRANCH  12  14
ENDBRANCH   8  12
TORSDOF 2
ENDMDL
