MODEL 1
REMARK VINA RESULT:      -6.8      0.000      0.000
REMARK  3 active torsions:
REMARK  status: ('A' for Active; 'I' for Inactive)
REMARK    1  A    between atoms: N_7  and  O_8 
REMARK    2  A    between atoms: O_8  and  C_9 
REMARK    3  A    between atoms: C_9  and  C_10 
ROOT
HETATM    1  O   UNL     1      42.567 -14.303   1.939  1.00  0.00    -0.170 OA
ENDROOT
BRANCH   1   2
HETATM    2  N   UNL     1      41.635 -13.252   1.997  1.00  0.00    -0.134 NA
HETATM    3  C   UNL     1      40.467 -13.578   1.553  1.00  0.00     0.043 C 
HETATM    4  C   UNL     1      40.067 -14.908   0.976  1.00  0.00     0.084 C 
HETATM    5  C   UNL     1      39.428 -12.494   1.445  1.00  0.00     0.084 C 
HETATM    6  C   UNL     1      39.849 -14.674  -0.511  1.00  0.00     0.240 C 
HETATM    7  N   UNL     1      38.838 -13.553  -0.729  1.00  0.00    -0.074 N 
HETATM    8  C   UNL     1      38.586 -13.331  -2.200  1.00  0.00     0.269 C 
HETATM    9  H   UNL     1      37.938 -13.850  -0.327  1.00  0.00     0.279 HD
HETATM   10  C   UNL     1      39.244 -12.252  -0.043  1.00  0.00     0.240 C 
ENDBRANCH   1   2
BRANCH   1  11
HETATM   11  C   UNL     1      42.932 -14.645   3.217  1.00  0.00     0.317 C 
HETATM   12  O   UNL     1      43.097 -13.880   4.156  1.00  0.00    -0.257 OA
BRANCH  11  13
HETATM   13  C   UNL     1      43.208 -16.106   3.315  1.00  0.00     0.041 A 
HETATM   14  C   UNL     1      42.942 -16.894   2.184  1.00  0.00     0.019 A 
HETATM   15  C   UNL     1      43.153 -18.275   2.217  1.00  0.00     0.020 A 
HETATM   16  C   UNL     1      43.634 -18.870   3.380  1.00  0.00     0.011 A 
HETATM   17 BR   UNL     1      43.906 -20.740   3.432  1.00  0.00    -0.051 Br
HETATM   18  C   UNL     1      43.913 -18.098   4.507  1.00  0.00     0.020 A 
HETATM   19  C   UNL     1      43.704 -16.714   4.477  1.00  0.00     0.019 A 
ENDBRANCH  11  13
ENDBRANCH   1  11
TORSDOF 3
ENDMDL
MODEL 2
REMARK VINA RESULT:      -6.7      3.291      4.253
REMARK  3 active torsions:
REMARK  status: ('A' for Active; 'I' for Inactive)
REMARK    1  A    between atoms: N_7  and  O_8 
REMARK    2  A    between atoms: O_8  and  C_9 
REMARK    3  A    between atoms: C_9  and  C_10 
ROOT
HETATM    1  O   UNL     1      42.118 -14.557   3.373  1.00  0.00    -0.170 OA
ENDROOT
BRANCH   1   2
HETATM    2  N   UNL     1      42.617 -13.342   3.874  1.00  0.00    -0.134 NA
HETATM    3  C   UNL     1      42.248 -13.098   5.088  1.00  0.00     0.043 C 
HETATM    4  C   UNL     1      41.346 -13.949   5.939  1.00  0.00     0.084 C 
HETATM    5  C   UNL     1      42.615 -11.763   5.680  1.00  0.00     0.084 C 
HETATM    6  C   UNL     1      40.045 -13.174   6.079  1.00  0.00     0.240 C 
HETATM    7  N   UNL     1      40.315 -11.780   6.632  1.00  0.00    -0.074 N 
HETATM    8  C   UNL     1      39.030 -11.009   6.809  1.00  0.00     0.269 C 
HETATM    9  H   UNL     1      40.718 -11.881   7.574  1.00  0.00     0.279 HD
HETATM   10  C   UNL     1      41.311 -10.991   5.785  1.00  0.00     0.240 C 
ENDBRANCH   1   2
BRANCH   1  11
HETATM   11  C   UNL     1      43.121 -15.203   2.693  1.00  0.00     0.317 C 
HETATM   12  O   UNL     1      43.658 -14.828   1.661  1.00  0.00    -0.257 OA
BRANCH  11  13
HETATM   13  C   UNL     1      43.430 -16.514   3.328  1.00  0.00     0.041 A 
HETATM   14  C   UNL     1      43.363 -17.659   2.518  1.00  0.00     0.019 A 
HETATM   15  C   UNL     1      43.615 -18.923   3.057  1.00  0.00     0.020 A 
HETATM   16  C   UNL     1      43.938 -19.045   4.406  1.00  0.00     0.011 A 
HETATM   17 BR   UNL     1      44.265 -20.755   5.140  1.00  0.00    -0.051 Br
HETATM   18  C   UNL     1      44.018 -17.915   5.220  1.00  0.00     0.020 A 
HETATM   19  C   UNL     1      43.767 -16.647   4.682  1.00  0.00     0.019 A 
ENDBRANCH  11  13
ENDBRANCH   1  11
TORSDOF 3
ENDMDL
MODEL 3
REMARK VINA RESULT:      -6.6      1.793      2.233
REMARK  3 active torsions:
REMARK  status: ('A' for Active; 'I' for Inactive)
REMARK    1  A    between atoms: N_7  and  O_8 
REMARK    2  A    between atoms: O_8  and  C_9 
REMARK    3  A    between atoms: C_9  and  C_10 
ROOT
HETATM    1  O   UNL     1      42.700 -14.163   3.926  1.00  0.00    -0.170 OA
ENDROOT
BRANCH   1   2
HETATM    2  N   UNL     1      41.755 -13.350   4.577  1.00  0.00    -0.134 NA
HETATM    3  C   UNL     1      40.553 -13.503   4.132  1.00  0.00     0.043 C 
HETATM    4  C   UNL     1      40.121 -14.405   3.008  1.00  0.00     0.084 C 
HETATM    5  C   UNL     1      39.483 -12.589   4.666  1.00  0.00     0.084 C 
HETATM    6  C   UNL     1      39.732 -13.488   1.859  1.00  0.00     0.240 C 
HETATM    7  N   UNL     1      38.678 -12.485   2.313  1.00  0.00    -0.074 N 
HETATM    8  C   UNL     1      38.257 -11.589   1.175  1.00  0.00     0.269 C 
HETATM    9  H   UNL     1      37.836 -13.009   2.590  1.00  0.00     0.279 HD
HETATM   10  C   UNL     1      39.127 -11.662   3.517  1.00  0.00     0.240 C 
ENDBRANCH   1   2
BRANCH   1  11
HETATM   11  C   UNL     1      43.205 -15.067   4.826  1.00  0.00     0.317 C 
HETATM   12  O   UNL     1      43.545 -14.836   5.977  1.00  0.00    -0.257 OA
BRANCH  11  13
HETATM   13  C   UNL     1      43.389 -16.400   4.188  1.00  0.00     0.041 A 
HETATM   14  C   UNL     1      42.945 -16.555   2.864  1.00  0.00     0.019 A 
HETATM   15  C   UNL     1      43.064 -17.786   2.216  1.00  0.00     0.020 A 
HETATM   16  C   UNL     1      43.628 -18.867   2.888  1.00  0.00     0.011 A 
HETATM   17 BR   UNL     1      43.776 -20.538   2.018  1.00  0.00    -0.051 Br
HETATM   18  C   UNL     1      44.084 -18.726   4.199  1.00  0.00     0.020 A 
HETATM   19  C   UNL     1      43.967 -17.492   4.851  1.00  0.00     0.019 A 
ENDBRANCH  11  13
ENDBRANCH   1  11
TORSDOF 3
ENDMDL
MODEL 4
REMARK VINA RESULT:      -6.5      3.375      6.629
REMARK  3 active torsions:
REMARK  status: ('A' for Active; 'I' for Inactive)
REMARK    1  A    between atoms: N_7  and  O_8 
REMARK    2  A    between atoms: O_8  and  C_9 
REMARK    3  A    between atoms: C_9  and  C_10 
ROOT
HETATM    1  O   UNL     1      40.813 -15.980   3.173  1.00  0.00    -0.170 OA
ENDROOT
BRANCH   1   2
HETATM    2  N   UNL     1      41.831 -16.202   4.118  1.00  0.00    -0.134 NA
HETATM    3  C   UNL     1      42.854 -16.823   3.633  1.00  0.00     0.043 C 
HETATM    4  C   UNL     1      43.010 -17.331   2.226  1.00  0.00     0.084 C 
HETATM    5  C   UNL     1      43.947 -17.230   4.586  1.00  0.00     0.084 C 
HETATM    6  C   UNL     1      42.952 -18.848   2.317  1.00  0.00     0.240 C 
HETATM    7  N   UNL     1      43.998 -19.361   3.300  1.00  0.00    -0.074 N 
HETATM    8  C   UNL     1      43.976 -20.868   3.377  1.00  0.00     0.269 C 
HETATM    9  H   UNL     1      44.929 -19.108   2.940  1.00  0.00     0.279 HD
HETATM   10  C   UNL     1      43.856 -18.742   4.689  1.00  0.00     0.240 C 
ENDBRANCH   1   2
BRANCH   1  11
HETATM   11  C   UNL     1      40.503 -14.643   3.159  1.00  0.00     0.317 C 
HETATM   12  O   UNL     1      40.479 -13.892   4.123  1.00  0.00    -0.257 OA
BRANCH  11  13
HETATM   13  C   UNL     1      40.090 -14.212   1.795  1.00  0.00     0.041 A 
HETATM   14  C   UNL     1      40.141 -15.167   0.767  1.00  0.00     0.019 A 
HETATM   15  C   UNL     1      39.794 -14.821  -0.540  1.00  0.00     0.020 A 
HETATM   16  C   UNL     1      39.391 -13.519  -0.824  1.00  0.00     0.011 A 
HETATM   17 BR   UNL     1      38.934 -13.045  -2.596  1.00  0.00    -0.051 Br
HETATM   18  C   UNL     1      39.325 -12.562   0.188  1.00  0.00     0.020 A 
HETATM   19  C   UNL     1      39.672 -12.906   1.500  1.00  0.00     0.019 A 
ENDBRANCH  11  13
ENDBRANCH   1  11
TORSDOF 3
ENDMDL
MODEL 5
REMARK VINA RESULT:      -6.3      3.888      5.968
REMARK  3 active torsions:
REMARK  status: ('A' for Active; 'I' for Inactive)
REMARK    1  A    between atoms: N_7  and  O_8 
REMARK    2  A    between atoms: O_8  and  C_9 
REMARK    3  A    between atoms: C_9  and  C_10 
ROOT
HETATM    1  O   UNL     1      43.185 -13.831   5.284  1.00  0.00    -0.170 OA
ENDROOT
BRANCH   1   2
HETATM    2  N   UNL     1      42.473 -12.761   5.852  1.00  0.00    -0.134 NA
HETATM    3  C   UNL     1      43.164 -11.673   5.938  1.00  0.00     0.043 C 
HETATM    4  C   UNL     1      44.602 -11.491   5.537  1.00  0.00     0.084 C 
HETATM    5  C   UNL     1      42.544 -10.501   6.651  1.00  0.00     0.084 C 
HETATM    6  C   UNL     1      45.382 -11.319   6.831  1.00  0.00     0.240 C 
HETATM    7  N   UNL     1      44.800 -10.176   7.653  1.00  0.00    -0.074 N 
HETATM    8  C   UNL     1      45.584  -9.970   8.926  1.00  0.00     0.269 C 
HETATM    9  H   UNL     1      44.903  -9.306   7.112  1.00  0.00     0.279 HD
HETATM   10  C   UNL     1      43.314 -10.361   7.953  1.00  0.00     0.240 C 
ENDBRANCH   1   2
BRANCH   1  11
HETATM   11  C   UNL     1      42.594 -14.177   4.094  1.00  0.00     0.317 C 
HETATM   12  O   UNL     1      41.844 -13.482   3.425  1.00  0.00    -0.257 OA
BRANCH  11  13
HETATM   13  C   UNL     1      42.908 -15.589   3.740  1.00  0.00     0.041 A 
HETATM   14  C   UNL     1      42.626 -16.009   2.430  1.00  0.00     0.019 A 
HETATM   15  C   UNL     1      42.870 -17.328   2.040  1.00  0.00     0.020 A 
HETATM   16  C   UNL     1      43.400 -18.230   2.958  1.00  0.00     0.011 A 
HETATM   17 BR   UNL     1      43.719 -20.019   2.437  1.00  0.00    -0.051 Br
HETATM   18  C   UNL     1      43.696 -17.825   4.260  1.00  0.00     0.020 A 
HETATM   19  C   UNL     1      43.453 -16.504   4.653  1.00  0.00     0.019 A 
ENDBRANCH  11  13
ENDBRANCH   1  11
TORSDOF 3
ENDMDL
MODEL 6
REMARK VINA RESULT:      -6.3      1.629      2.076
REMARK  3 active torsions:
REMARK  status: ('A' for Active; 'I' for Inactive)
REMARK    1  A    between atoms: N_7  and  O_8 
REMARK    2  A    between atoms: O_8  and  C_9 
REMARK    3  A    between atoms: C_9  and  C_10 
ROOT
HETATM    1  O   UNL     1      41.682 -12.302   2.813  1.00  0.00    -0.170 OA
ENDROOT
BRANCH   1   2
HETATM    2  N   UNL     1      41.739 -11.446   1.699  1.00  0.00    -0.134 NA
HETATM    3  C   UNL     1      40.762 -11.616   0.871  1.00  0.00     0.043 C 
HETATM    4  C   UNL     1      39.657 -12.630   0.985  1.00  0.00     0.084 C 
HETATM    5  C   UNL     1      40.794 -10.846  -0.422  1.00  0.00     0.084 C 
HETATM    6  C   UNL     1      39.908 -13.652  -0.113  1.00  0.00     0.240 C 
HETATM    7  N   UNL     1      40.003 -12.961  -1.469  1.00  0.00    -0.074 N 
HETATM    8  C   UNL     1      40.218 -13.966  -2.574  1.00  0.00     0.269 C 
HETATM    9  H   UNL     1      39.097 -12.513  -1.664  1.00  0.00     0.279 HD
HETATM   10  C   UNL     1      41.074 -11.875  -1.503  1.00  0.00     0.240 C 
ENDBRANCH   1   2
BRANCH   1  11
HETATM   11  C   UNL     1      42.951 -12.728   3.113  1.00  0.00     0.317 C 
HETATM   12  O   UNL     1      43.917 -12.020   3.361  1.00  0.00    -0.257 OA
BRANCH  11  13
HETATM   13  C   UNL     1      43.050 -14.210   3.006  1.00  0.00     0.041 A 
HETATM   14  C   UNL     1      43.242 -14.758   1.728  1.00  0.00     0.019 A 
HETATM   15  C   UNL     1      43.316 -16.142   1.554  1.00  0.00     0.020 A 
HETATM   16  C   UNL     1      43.201 -16.982   2.658  1.00  0.00     0.011 A 
HETATM   17 BR   UNL     1      43.286 -18.855   2.424  1.00  0.00    -0.051 Br
HETATM   18  C   UNL     1      43.020 -16.451   3.936  1.00  0.00     0.020 A 
HETATM   19  C   UNL     1      42.947 -15.065   4.113  1.00  0.00     0.019 A 
ENDBRANCH  11  13
ENDBRANCH   1  11
TORSDOF 3
ENDMDL
MODEL 7
REMARK VINA RESULT:      -6.1     14.623     16.384
REMARK  3 active torsions:
REMARK  status: ('A' for Active; 'I' for Inactive)
REMARK    1  A    between atoms: N_7  and  O_8 
REMARK    2  A    between atoms: O_8  and  C_9 
REMARK    3  A    between atoms: C_9  and  C_10 
ROOT
HETATM    1  O   UNL     1      44.918 -28.564  -0.583  1.00  0.00    -0.170 OA
ENDROOT
BRANCH   1   2
HETATM    2  N   UNL     1      45.524 -28.619   0.684  1.00  0.00    -0.134 NA
HETATM    3  C   UNL     1      46.775 -28.297   0.669  1.00  0.00     0.043 C 
HETATM    4  C   UNL     1      47.591 -27.929  -0.540  1.00  0.00     0.084 C 
HETATM    5  C   UNL     1      47.556 -28.447   1.947  1.00  0.00     0.084 C 
HETATM    6  C   UNL     1      48.555 -29.083  -0.764  1.00  0.00     0.240 C 
HETATM    7  N   UNL     1      49.368 -29.348   0.498  1.00  0.00    -0.074 N 
HETATM    8  C   UNL     1      50.354 -30.469   0.281  1.00  0.00     0.269 C 
HETATM    9  H   UNL     1      49.931 -28.509   0.700  1.00  0.00     0.279 HD
HETATM   10  C   UNL     1      48.492 -29.621   1.718  1.00  0.00     0.240 C 
ENDBRANCH   1   2
BRANCH   1  11
HETATM   11  C   UNL     1      44.252 -29.743  -0.810  1.00  0.00     0.317 C 
HETATM   12  O   UNL     1      43.778 -30.485   0.038  1.00  0.00    -0.257 OA
BRANCH  11  13
HETATM   13  C   UNL     1      44.254 -30.079  -2.261  1.00  0.00     0.041 A 
HETATM   14  C   UNL     1      44.183 -31.436  -2.613  1.00  0.00     0.019 A 
HETATM   15  C   UNL     1      44.208 -31.822  -3.955  1.00  0.00     0.020 A 
HETATM   16  C   UNL     1      44.300 -30.852  -4.949  1.00  0.00     0.011 A 
HETATM   17 BR   UNL     1      44.347 -31.372  -6.766  1.00  0.00    -0.051 Br
HETATM   18  C   UNL     1      44.359 -29.499  -4.615  1.00  0.00     0.020 A 
HETATM   19  C   UNL     1      44.334 -29.109  -3.270  1.00  0.00     0.019 A 
ENDBRANCH  11  13
ENDBRANCH   1  11
TORSDOF 3
ENDMDL
MODEL 8
REMARK VINA RESULT:      -6.1      9.679     11.316
REMARK  3 active torsions:
REMARK  status: ('A' for Active; 'I' for Inactive)
REMARK    1  A    between atoms: N_7  and  O_8 
REMARK    2  A    between atoms: O_8  and  C_9 
REMARK    3  A    between atoms: C_9  and  C_10 
ROOT
HETATM    1  O   UNL     1      43.424 -10.149  10.253  1.00  0.00    -0.170 OA
ENDROOT
BRANCH   1   2
HETATM    2  N   UNL     1      44.545 -10.623   9.548  1.00  0.00    -0.134 NA
HETATM    3  C   UNL     1      44.483 -10.400   8.277  1.00  0.00     0.043 C 
HETATM    4  C   UNL     1      43.349  -9.746   7.537  1.00  0.00     0.084 C 
HETATM    5  C   UNL     1      45.567 -10.979   7.408  1.00  0.00     0.084 C 
HETATM    6  C   UNL     1      42.693 -10.845   6.715  1.00  0.00     0.240 C 
HETATM    7  N   UNL     1      43.724 -11.531   5.827  1.00  0.00    -0.074 N 
HETATM    8  C   UNL     1      43.082 -12.602   4.981  1.00  0.00     0.269 C 
HETATM    9  H   UNL     1      44.096 -10.832   5.168  1.00  0.00     0.279 HD
HETATM   10  C   UNL     1      44.903 -12.094   6.617  1.00  0.00     0.240 C 
ENDBRANCH   1   2
BRANCH   1  11
HETATM   11  C   UNL     1      43.511 -10.565  11.558  1.00  0.00     0.317 C 
HETATM   12  O   UNL     1      43.965 -11.628  11.954  1.00  0.00    -0.257 OA
BRANCH  11  13
HETATM   13  C   UNL     1      42.879  -9.573  12.471  1.00  0.00     0.041 A 
HETATM   14  C   UNL     1      43.493  -8.316  12.592  1.00  0.00     0.019 A 
HETATM   15  C   UNL     1      42.967  -7.349  13.452  1.00  0.00     0.020 A 
HETATM   16  C   UNL     1      41.823  -7.635  14.191  1.00  0.00     0.011 A 
HETATM   17 BR   UNL     1      41.117  -6.334  15.366  1.00  0.00    -0.051 Br
HETATM   18  C   UNL     1      41.195  -8.875  14.073  1.00  0.00     0.020 A 
HETATM   19  C   UNL     1      41.720  -9.846  13.212  1.00  0.00     0.019 A 
ENDBRANCH  11  13
ENDBRANCH   1  11
TORSDOF 3
ENDMDL
MODEL 9
REMARK VINA RESULT:      -6.0      3.107      3.853
REMARK  3 active torsions:
REMARK  status: ('A' for Active; 'I' for Inactive)
REMARK    1  A    between atoms: N_7  and  O_8 
REMARK    2  A    between atoms: O_8  and  C_9 
REMARK    3  A    between atoms: C_9  and  C_10 
ROOT
HETATM    1  O   UNL     1      42.630 -14.315   4.640  1.00  0.00    -0.170 OA
ENDROOT
BRANCH   1   2
HETATM    2  N   UNL     1      42.921 -13.086   5.259  1.00  0.00    -0.134 NA
HETATM    3  C   UNL     1      41.918 -12.273   5.280  1.00  0.00     0.043 C 
HETATM    4  C   UNL     1      40.556 -12.515   4.690  1.00  0.00     0.084 C 
HETATM    5  C   UNL     1      42.153 -10.880   5.800  1.00  0.00     0.084 C 
HETATM    6  C   UNL     1      40.447 -11.588   3.489  1.00  0.00     0.240 C 
HETATM    7  N   UNL     1      40.715 -10.147   3.905  1.00  0.00    -0.074 N 
HETATM    8  C   UNL     1      40.577  -9.210   2.730  1.00  0.00     0.269 C 
HETATM    9  H   UNL     1      39.989  -9.866   4.579  1.00  0.00     0.279 HD
HETATM   10  C   UNL     1      42.070  -9.972   4.585  1.00  0.00     0.240 C 
ENDBRANCH   1   2
BRANCH   1  11
HETATM   11  C   UNL     1      43.345 -15.307   5.264  1.00  0.00     0.317 C 
HETATM   12  O   UNL     1      43.946 -15.215   6.324  1.00  0.00    -0.257 OA
BRANCH  11  13
HETATM   13  C   UNL     1      43.388 -16.536   4.422  1.00  0.00     0.041 A 
HETATM   14  C   UNL     1      44.148 -17.619   4.891  1.00  0.00     0.019 A 
HETATM   15  C   UNL     1      44.252 -18.790   4.138  1.00  0.00     0.020 A 
HETATM   16  C   UNL     1      43.594 -18.884   2.915  1.00  0.00     0.011 A 
HETATM   17 BR   UNL     1      43.745 -20.463   1.888  1.00  0.00    -0.051 Br
HETATM   18  C   UNL     1      42.826 -17.820   2.441  1.00  0.00     0.020 A 
HETATM   19  C   UNL     1      42.719 -16.645   3.194  1.00  0.00     0.019 A 
ENDBRANCH  11  13
ENDBRANCH   1  11
TORSDOF 3
ENDMDL
MODEL 10
REMARK VINA RESULT:      -5.8     14.437     16.403
REMARK  3 active torsions:
REMARK  status: ('A' for Active; 'I' for Inactive)
REMARK    1  A    between atoms: N_7  and  O_8 
REMARK    2  A    between atoms: O_8  and  C_9 
REMARK    3  A    between atoms: C_9  and  C_10 
ROOT
HETATM    1  O   UNL     1      43.939 -29.061  -3.323  1.00  0.00    -0.170 OA
ENDROOT
BRANCH   1   2
HETATM    2  N   UNL     1      43.989 -29.634  -4.606  1.00  0.00    -0.134 NA
HETATM    3  C   UNL     1      44.332 -30.879  -4.599  1.00  0.00     0.043 C 
HETATM    4  C   UNL     1      44.698 -31.700  -3.394  1.00  0.00     0.084 C 
HETATM    5  C   UNL     1      44.545 -31.557  -5.926  1.00  0.00     0.084 C 
HETATM    6  C   UNL     1      46.192 -31.963  -3.502  1.00  0.00     0.240 C 
HETATM    7  N   UNL     1      46.521 -32.613  -4.840  1.00  0.00    -0.074 N 
HETATM    8  C   UNL     1      47.997 -32.910  -4.949  1.00  0.00     0.269 C 
HETATM    9  H   UNL     1      46.043 -33.524  -4.881  1.00  0.00     0.279 HD
HETATM   10  C   UNL     1      46.043 -31.785  -6.031  1.00  0.00     0.240 C 
ENDBRANCH   1   2
BRANCH   1  11
HETATM   11  C   UNL     1      44.930 -28.117  -3.217  1.00  0.00     0.317 C 
HETATM   12  O   UNL     1      45.273 -27.322  -4.081  1.00  0.00    -0.257 OA
BRANCH  11  13
HETATM   13  C   UNL     1      45.635 -28.236  -1.911  1.00  0.00     0.041 A 
HETATM   14  C   UNL     1      44.888 -28.676  -0.807  1.00  0.00     0.019 A 
HETATM   15  C   UNL     1      45.481 -28.784   0.453  1.00  0.00     0.020 A 
HETATM   16  C   UNL     1      46.824 -28.454   0.612  1.00  0.00     0.011 A 
HETATM   17 BR   UNL     1      47.626 -28.585   2.319  1.00  0.00    -0.051 Br
HETATM   18  C   UNL     1      47.582 -28.025  -0.478  1.00  0.00     0.020 A 
HETATM   19  C   UNL     1      46.990 -27.917  -1.742  1.00  0.00     0.019 A 
ENDBRANCH  11  13
ENDBRANCH   1  11
TORSDOF 3
ENDMDL
