MODEL 1
REMARK VINA RESULT:      -9.5      0.000      0.000
REMARK  4 active torsions:
REMARK  status: ('A' for Active; 'I' for Inactive)
REMARK    1  A    between atoms: O_2  and  C_3 
REMARK    2  A    between atoms: C_9  and  C_13 
REMARK    3  A    between atoms: C_19  and  C_24 
REMARK    4  A    between atoms: C_28  and  N_29 
ROOT
HETATM    1  C   UNL     1      40.849 -13.114   2.651  1.00  0.00     0.112 A 
HETATM    2  N   UNL     1      41.660 -13.134   3.690  1.00  0.00    -0.230 NA
HETATM    3  C   UNL     1      42.169 -14.414   3.748  1.00  0.00     0.124 A 
HETATM    4  C   UNL     1      43.069 -15.013   4.640  1.00  0.00     0.148 A 
HETATM    5  F   UNL     1      43.603 -14.322   5.658  1.00  0.00    -0.203 F 
HETATM    6  C   UNL     1      43.425 -16.358   4.473  1.00  0.00     0.058 A 
HETATM    7  C   UNL     1      42.899 -17.137   3.426  1.00  0.00    -0.002 A 
HETATM    8  C   UNL     1      41.996 -16.532   2.523  1.00  0.00     0.046 A 
HETATM    9  C   UNL     1      41.656 -15.188   2.716  1.00  0.00     0.066 A 
HETATM   10  N   UNL     1      40.821 -14.343   2.035  1.00  0.00    -0.342 N 
HETATM   11  H   UNL     1      40.268 -14.578   1.220  1.00  0.00     0.167 HD
ENDROOT
BRANCH   1  12
HETATM   12  C   UNL     1      40.029 -11.934   2.201  1.00  0.00     0.084 C 
HETATM   13  C   UNL     1      40.875 -10.783   1.657  1.00  0.00     0.188 C 
HETATM   14  O   UNL     1      41.562 -11.103   0.439  1.00  0.00    -0.350 OA
HETATM   15  C   UNL     1      40.796 -11.721  -0.513  1.00  0.00     0.075 A 
HETATM   16  C   UNL     1      41.333 -11.762  -1.797  1.00  0.00     0.040 A 
HETATM   17  C   UNL     1      39.578 -12.349  -0.238  1.00  0.00    -0.021 A 
HETATM   18  C   UNL     1      40.639 -12.408  -2.821  1.00  0.00     0.039 A 
HETATM   19  C   UNL     1      39.407 -13.016  -2.571  1.00  0.00     0.068 A 
HETATM   20  C   UNL     1      38.880 -12.985  -1.279  1.00  0.00     0.046 A 
HETATM   21  C   UNL     1      38.995 -12.336   1.150  1.00  0.00     0.056 C 
BRANCH  19  22
HETATM   22  O   UNL     1      38.831 -13.607  -3.662  1.00  0.00    -0.356 OA
HETATM   23  C   UNL     1      38.262 -14.896  -3.471  1.00  0.00     0.210 C 
ENDBRANCH  19  22
ENDBRANCH   1  12
BRANCH   7  24
HETATM   24  C   UNL     1      43.275 -18.557   3.249  1.00  0.00     0.072 A 
HETATM   25  C   UNL     1      43.186 -19.213   2.037  1.00  0.00     0.052 A 
HETATM   26  C   UNL     1      43.575 -20.530   2.033  1.00  0.00     0.122 A 
HETATM   27  N   UNL     1      44.022 -21.175   3.123  1.00  0.00    -0.231 NA
HETATM   28  C   UNL     1      44.097 -20.457   4.245  1.00  0.00     0.199 A 
HETATM   29  N   UNL     1      43.731 -19.179   4.360  1.00  0.00    -0.218 NA
BRANCH  28  30
HETATM   30  N   UNL     1      44.537 -21.099   5.384  1.00  0.00    -0.271 NA
HETATM   31  H   UNL     1      43.760 -21.226   6.017  1.00  0.00     0.127 HD
HETATM   32  H   UNL     1      45.353 -20.625   5.743  1.00  0.00     0.127 HD
ENDBRANCH  28  30
ENDBRANCH   7  24
TORSDOF 4
ENDMDL
MODEL 2
REMARK VINA RESULT:      -8.9     13.259     16.504
REMARK  4 active torsions:
REMARK  status: ('A' for Active; 'I' for Inactive)
REMARK    1  A    between atoms: O_2  and  C_3 
REMARK    2  A    between atoms: C_9  and  C_13 
REMARK    3  A    between atoms: C_19  and  C_24 
REMARK    4  A    between atoms: C_28  and  N_29 
ROOT
HETATM    1  C   UNL     1      41.917  -7.032  15.897  1.00  0.00     0.112 A 
HETATM    2  N   UNL     1      41.099  -8.010  15.560  1.00  0.00    -0.230 NA
HETATM    3  C   UNL     1      41.572  -8.504  14.363  1.00  0.00     0.124 A 
HETATM    4  C   UNL     1      41.105  -9.536  13.538  1.00  0.00     0.148 A 
HETATM    5  F   UNL     1      40.015 -10.246  13.863  1.00  0.00    -0.203 F 
HETATM    6  C   UNL     1      41.783  -9.840  12.350  1.00  0.00     0.058 A 
HETATM    7  C   UNL     1      42.932  -9.132  11.952  1.00  0.00    -0.002 A 
HETATM    8  C   UNL     1      43.408  -8.095  12.787  1.00  0.00     0.046 A 
HETATM    9  C   UNL     1      42.708  -7.811  13.966  1.00  0.00     0.066 A 
HETATM   10  N   UNL     1      42.907  -6.883  14.953  1.00  0.00    -0.342 N 
HETATM   11  H   UNL     1      43.649  -6.195  14.986  1.00  0.00     0.167 HD
ENDROOT
BRANCH   1  12
HETATM   12  C   UNL     1      41.790  -6.164  17.119  1.00  0.00     0.084 C 
HETATM   13  C   UNL     1      40.340  -5.898  17.523  1.00  0.00     0.188 C 
HETATM   14  O   UNL     1      39.643  -7.072  17.964  1.00  0.00    -0.350 OA
HETATM   15  C   UNL     1      40.330  -7.851  18.857  1.00  0.00     0.075 A 
HETATM   16  C   UNL     1      39.580  -8.810  19.533  1.00  0.00     0.040 A 
HETATM   17  C   UNL     1      41.711  -7.770  19.052  1.00  0.00    -0.021 A 
HETATM   18  C   UNL     1      40.204  -9.675  20.432  1.00  0.00     0.039 A 
HETATM   19  C   UNL     1      41.579  -9.590  20.662  1.00  0.00     0.068 A 
HETATM   20  C   UNL     1      42.329  -8.637  19.970  1.00  0.00     0.046 A 
HETATM   21  C   UNL     1      42.541  -6.757  18.311  1.00  0.00     0.056 C 
BRANCH  19  22
HETATM   22  O   UNL     1      42.062 -10.491  21.570  1.00  0.00    -0.356 OA
HETATM   23  C   UNL     1      42.845 -11.564  21.059  1.00  0.00     0.210 C 
ENDBRANCH  19  22
ENDBRANCH   1  12
BRANCH   7  24
HETATM   24  C   UNL     1      43.649  -9.453  10.699  1.00  0.00     0.072 A 
HETATM   25  C   UNL     1      45.021  -9.367  10.574  1.00  0.00     0.052 A 
HETATM   26  C   UNL     1      45.539  -9.701   9.347  1.00  0.00     0.122 A 
HETATM   27  N   UNL     1      44.785 -10.094   8.306  1.00  0.00    -0.231 NA
HETATM   28  C   UNL     1      43.471 -10.171   8.524  1.00  0.00     0.199 A 
HETATM   29  N   UNL     1      42.868  -9.855   9.671  1.00  0.00    -0.218 NA
BRANCH  28  30
HETATM   30  N   UNL     1      42.672 -10.555   7.467  1.00  0.00    -0.271 NA
HETATM   31  H   UNL     1      41.728 -10.698   7.797  1.00  0.00     0.127 HD
HETATM   32  H   UNL     1      43.111 -11.320   6.975  1.00  0.00     0.127 HD
ENDBRANCH  28  30
ENDBRANCH   7  24
TORSDOF 4
ENDMDL
MODEL 3
REMARK VINA RESULT:      -8.8      1.434      1.781
REMARK  4 active torsions:
REMARK  status: ('A' for Active; 'I' for Inactive)
REMARK    1  A    between atoms: O_2  and  C_3 
REMARK    2  A    between atoms: C_9  and  C_13 
REMARK    3  A    between atoms: C_19  and  C_24 
REMARK    4  A    between atoms: C_28  and  N_29 
ROOT
HETATM    1  C   UNL     1      40.655 -13.174   4.045  1.00  0.00     0.112 A 
HETATM    2  N   UNL     1      41.672 -13.265   4.879  1.00  0.00    -0.230 NA
HETATM    3  C   UNL     1      42.210 -14.520   4.684  1.00  0.00     0.124 A 
HETATM    4  C   UNL     1      43.295 -15.167   5.290  1.00  0.00     0.148 A 
HETATM    5  F   UNL     1      44.022 -14.561   6.241  1.00  0.00    -0.203 F 
HETATM    6  C   UNL     1      43.635 -16.469   4.902  1.00  0.00     0.058 A 
HETATM    7  C   UNL     1      42.912 -17.159   3.912  1.00  0.00    -0.002 A 
HETATM    8  C   UNL     1      41.821 -16.505   3.296  1.00  0.00     0.046 A 
HETATM    9  C   UNL     1      41.502 -15.205   3.705  1.00  0.00     0.066 A 
HETATM   10  N   UNL     1      40.520 -14.332   3.317  1.00  0.00    -0.342 N 
HETATM   11  H   UNL     1      39.809 -14.506   2.617  1.00  0.00     0.167 HD
ENDROOT
BRANCH   1  12
HETATM   12  C   UNL     1      39.732 -11.992   3.915  1.00  0.00     0.084 C 
HETATM   13  C   UNL     1      40.452 -10.648   4.022  1.00  0.00     0.188 C 
HETATM   14  O   UNL     1      41.355 -10.394   2.937  1.00  0.00    -0.350 OA
HETATM   15  C   UNL     1      40.850 -10.649   1.691  1.00  0.00     0.075 A 
HETATM   16  C   UNL     1      41.572 -10.129   0.620  1.00  0.00     0.040 A 
HETATM   17  C   UNL     1      39.723 -11.443   1.461  1.00  0.00    -0.021 A 
HETATM   18  C   UNL     1      41.153 -10.374  -0.688  1.00  0.00     0.039 A 
HETATM   19  C   UNL     1      40.013 -11.140  -0.936  1.00  0.00     0.068 A 
HETATM   20  C   UNL     1      39.301 -11.673   0.139  1.00  0.00     0.046 A 
HETATM   21  C   UNL     1      38.945 -12.035   2.604  1.00  0.00     0.056 C 
BRANCH  19  22
HETATM   22  O   UNL     1      39.709 -11.299  -2.260  1.00  0.00    -0.356 OA
HETATM   23  C   UNL     1      40.803 -11.402  -3.164  1.00  0.00     0.210 C 
ENDBRANCH  19  22
ENDBRANCH   1  12
BRANCH   7  24
HETATM   24  C   UNL     1      43.271 -18.534   3.502  1.00  0.00     0.072 A 
HETATM   25  C   UNL     1      43.134 -18.992   2.207  1.00  0.00     0.052 A 
HETATM   26  C   UNL     1      43.514 -20.293   1.982  1.00  0.00     0.122 A 
HETATM   27  N   UNL     1      43.995 -21.101   2.942  1.00  0.00    -0.231 NA
HETATM   28  C   UNL     1      44.115 -20.567   4.158  1.00  0.00     0.199 A 
HETATM   29  N   UNL     1      43.763 -19.322   4.485  1.00  0.00    -0.218 NA
BRANCH  28  30
HETATM   30  N   UNL     1      44.590 -21.380   5.166  1.00  0.00    -0.271 NA
HETATM   31  H   UNL     1      45.586 -21.508   5.051  1.00  0.00     0.127 HD
HETATM   32  H   UNL     1      44.021 -22.212   5.224  1.00  0.00     0.127 HD
ENDBRANCH  28  30
ENDBRANCH   7  24
TORSDOF 4
ENDMDL
MODEL 4
REMARK VINA RESULT:      -8.7      6.194      9.600
REMARK  4 active torsions:
REMARK  status: ('A' for Active; 'I' for Inactive)
REMARK    1  A    between atoms: O_2  and  C_3 
REMARK    2  A    between atoms: C_9  and  C_13 
REMARK    3  A    between atoms: C_19  and  C_24 
REMARK    4  A    between atoms: C_28  and  N_29 
ROOT
HETATM    1  C   UNL     1      44.934 -11.155   7.611  1.00  0.00     0.112 A 
HETATM    2  N   UNL     1      44.237 -12.254   7.821  1.00  0.00    -0.230 NA
HETATM    3  C   UNL     1      43.531 -12.482   6.659  1.00  0.00     0.124 A 
HETATM    4  C   UNL     1      42.628 -13.495   6.308  1.00  0.00     0.148 A 
HETATM    5  F   UNL     1      42.315 -14.476   7.167  1.00  0.00    -0.203 F 
HETATM    6  C   UNL     1      42.037 -13.492   5.038  1.00  0.00     0.058 A 
HETATM    7  C   UNL     1      42.323 -12.491   4.091  1.00  0.00    -0.002 A 
HETATM    8  C   UNL     1      43.238 -11.473   4.443  1.00  0.00     0.046 A 
HETATM    9  C   UNL     1      43.811 -11.499   5.719  1.00  0.00     0.066 A 
HETATM   10  N   UNL     1      44.701 -10.668   6.346  1.00  0.00    -0.342 N 
HETATM   11  H   UNL     1      45.116  -9.833   5.954  1.00  0.00     0.167 HD
ENDROOT
BRANCH   1  12
HETATM   12  C   UNL     1      45.840 -10.487   8.611  1.00  0.00     0.084 C 
HETATM   13  C   UNL     1      46.339  -9.117   8.152  1.00  0.00     0.188 C 
HETATM   14  O   UNL     1      45.299  -8.134   8.045  1.00  0.00    -0.350 OA
HETATM   15  C   UNL     1      44.443  -8.079   9.112  1.00  0.00     0.075 A 
HETATM   16  C   UNL     1      43.629  -6.952   9.184  1.00  0.00     0.040 A 
HETATM   17  C   UNL     1      44.310  -9.106  10.051  1.00  0.00    -0.021 A 
HETATM   18  C   UNL     1      42.697  -6.831  10.216  1.00  0.00     0.039 A 
HETATM   19  C   UNL     1      42.570  -7.833  11.180  1.00  0.00     0.068 A 
HETATM   20  C   UNL     1      43.378  -8.968  11.095  1.00  0.00     0.046 A 
HETATM   21  C   UNL     1      45.163 -10.343   9.974  1.00  0.00     0.056 C 
BRANCH  19  22
HETATM   22  O   UNL     1      41.625  -7.587  12.137  1.00  0.00    -0.356 OA
HETATM   23  C   UNL     1      40.538  -8.500  12.219  1.00  0.00     0.210 C 
ENDBRANCH  19  22
ENDBRANCH   1  12
BRANCH   7  24
HETATM   24  C   UNL     1      41.699 -12.488   2.750  1.00  0.00     0.072 A 
HETATM   25  C   UNL     1      41.784 -11.416   1.884  1.00  0.00     0.052 A 
HETATM   26  C   UNL     1      41.154 -11.567   0.672  1.00  0.00     0.122 A 
HETATM   27  N   UNL     1      40.486 -12.677   0.316  1.00  0.00    -0.231 NA
HETATM   28  C   UNL     1      40.476 -13.671   1.206  1.00  0.00     0.199 A 
HETATM   29  N   UNL     1      41.042 -13.621   2.414  1.00  0.00    -0.218 NA
BRANCH  28  30
HETATM   30  N   UNL     1      39.783 -14.816   0.874  1.00  0.00    -0.271 NA
HETATM   31  H   UNL     1      39.955 -15.525   1.572  1.00  0.00     0.127 HD
HETATM   32  H   UNL     1      39.975 -15.058  -0.088  1.00  0.00     0.127 HD
ENDBRANCH  28  30
ENDBRANCH   7  24
TORSDOF 4
ENDMDL
MODEL 5
REMARK VINA RESULT:      -8.5      6.542      9.466
REMARK  4 active torsions:
REMARK  status: ('A' for Active; 'I' for Inactive)
REMARK    1  A    between atoms: O_2  and  C_3 
REMARK    2  A    between atoms: C_9  and  C_13 
REMARK    3  A    between atoms: C_19  and  C_24 
REMARK    4  A    between atoms: C_28  and  N_29 
ROOT
HETATM    1  C   UNL     1      44.601 -10.824   7.876  1.00  0.00     0.112 A 
HETATM    2  N   UNL     1      43.386 -10.425   7.555  1.00  0.00    -0.230 NA
HETATM    3  C   UNL     1      42.892 -11.377   6.688  1.00  0.00     0.124 A 
HETATM    4  C   UNL     1      41.661 -11.475   6.025  1.00  0.00     0.148 A 
HETATM    5  F   UNL     1      40.710 -10.542   6.183  1.00  0.00    -0.203 F 
HETATM    6  C   UNL     1      41.409 -12.564   5.181  1.00  0.00     0.058 A 
HETATM    7  C   UNL     1      42.366 -13.575   4.973  1.00  0.00    -0.002 A 
HETATM    8  C   UNL     1      43.605 -13.480   5.646  1.00  0.00     0.046 A 
HETATM    9  C   UNL     1      43.830 -12.379   6.481  1.00  0.00     0.066 A 
HETATM   10  N   UNL     1      44.905 -12.006   7.243  1.00  0.00    -0.342 N 
HETATM   11  H   UNL     1      45.781 -12.507   7.325  1.00  0.00     0.167 HD
ENDROOT
BRANCH   1  12
HETATM   12  C   UNL     1      45.556 -10.089   8.778  1.00  0.00     0.084 C 
HETATM   13  C   UNL     1      45.784  -8.636   8.362  1.00  0.00     0.188 C 
HETATM   14  O   UNL     1      44.616  -7.813   8.493  1.00  0.00    -0.350 OA
HETATM   15  C   UNL     1      43.942  -7.947   9.677  1.00  0.00     0.075 A 
HETATM   16  C   UNL     1      43.005  -6.958   9.962  1.00  0.00     0.040 A 
HETATM   17  C   UNL     1      44.103  -9.035  10.540  1.00  0.00    -0.021 A 
HETATM   18  C   UNL     1      42.242  -7.035  11.128  1.00  0.00     0.039 A 
HETATM   19  C   UNL     1      42.410  -8.100  12.016  1.00  0.00     0.068 A 
HETATM   20  C   UNL     1      43.340  -9.097  11.719  1.00  0.00     0.046 A 
HETATM   21  C   UNL     1      45.093 -10.126  10.235  1.00  0.00     0.056 C 
BRANCH  19  22
HETATM   22  O   UNL     1      41.606  -8.052  13.121  1.00  0.00    -0.356 OA
HETATM   23  C   UNL     1      41.059  -9.285  13.575  1.00  0.00     0.210 C 
ENDBRANCH  19  22
ENDBRANCH   1  12
BRANCH   7  24
HETATM   24  C   UNL     1      42.100 -14.726   4.083  1.00  0.00     0.072 A 
HETATM   25  C   UNL     1      42.934 -15.823   4.002  1.00  0.00     0.052 A 
HETATM   26  C   UNL     1      42.550 -16.812   3.130  1.00  0.00     0.122 A 
HETATM   27  N   UNL     1      41.434 -16.751   2.384  1.00  0.00    -0.231 NA
HETATM   28  C   UNL     1      40.676 -15.665   2.543  1.00  0.00     0.199 A 
HETATM   29  N   UNL     1      40.966 -14.643   3.351  1.00  0.00    -0.218 NA
BRANCH  28  30
HETATM   30  N   UNL     1      39.534 -15.568   1.776  1.00  0.00    -0.271 NA
HETATM   31  H   UNL     1      38.869 -14.966   2.242  1.00  0.00     0.127 HD
HETATM   32  H   UNL     1      39.220 -16.494   1.522  1.00  0.00     0.127 HD
ENDBRANCH  28  30
ENDBRANCH   7  24
TORSDOF 4
ENDMDL
MODEL 6
REMARK VINA RESULT:      -8.3     14.765     16.293
REMARK  4 active torsions:
REMARK  status: ('A' for Active; 'I' for Inactive)
REMARK    1  A    between atoms: O_2  and  C_3 
REMARK    2  A    between atoms: C_9  and  C_13 
REMARK    3  A    between atoms: C_19  and  C_24 
REMARK    4  A    between atoms: C_28  and  N_29 
ROOT
HETATM    1  C   UNL     1      44.968 -28.803  -0.374  1.00  0.00     0.112 A 
HETATM    2  N   UNL     1      45.608 -29.229   0.697  1.00  0.00    -0.230 NA
HETATM    3  C   UNL     1      44.661 -29.854   1.480  1.00  0.00     0.124 A 
HETATM    4  C   UNL     1      44.760 -30.486   2.727  1.00  0.00     0.148 A 
HETATM    5  F   UNL     1      45.933 -30.567   3.373  1.00  0.00    -0.203 F 
HETATM    6  C   UNL     1      43.621 -31.048   3.317  1.00  0.00     0.058 A 
HETATM    7  C   UNL     1      42.362 -30.996   2.690  1.00  0.00    -0.002 A 
HETATM    8  C   UNL     1      42.262 -30.364   1.430  1.00  0.00     0.046 A 
HETATM    9  C   UNL     1      43.416 -29.808   0.866  1.00  0.00     0.066 A 
HETATM   10  N   UNL     1      43.636 -29.136  -0.307  1.00  0.00    -0.342 N 
HETATM   11  H   UNL     1      42.939 -28.913  -1.006  1.00  0.00     0.167 HD
ENDROOT
BRANCH   1  12
HETATM   12  C   UNL     1      45.580 -28.028  -1.511  1.00  0.00     0.084 C 
HETATM   13  C   UNL     1      46.994 -28.487  -1.864  1.00  0.00     0.188 C 
HETATM   14  O   UNL     1      47.047 -29.818  -2.398  1.00  0.00    -0.350 OA
HETATM   15  C   UNL     1      46.121 -30.089  -3.369  1.00  0.00     0.075 A 
HETATM   16  C   UNL     1      46.341 -31.243  -4.116  1.00  0.00     0.040 A 
HETATM   17  C   UNL     1      44.973 -29.321  -3.580  1.00  0.00    -0.021 A 
HETATM   18  C   UNL     1      45.427 -31.620  -5.102  1.00  0.00     0.039 A 
HETATM   19  C   UNL     1      44.289 -30.849  -5.346  1.00  0.00     0.068 A 
HETATM   20  C   UNL     1      44.065 -29.701  -4.584  1.00  0.00     0.046 A 
HETATM   21  C   UNL     1      44.707 -28.085  -2.764  1.00  0.00     0.056 C 
BRANCH  19  22
HETATM   22  O   UNL     1      43.480 -31.325  -6.340  1.00  0.00    -0.356 OA
HETATM   23  C   UNL     1      44.027 -31.367  -7.652  1.00  0.00     0.210 C 
ENDBRANCH  19  22
ENDBRANCH   1  12
BRANCH   7  24
HETATM   24  C   UNL     1      41.159 -31.590   3.312  1.00  0.00     0.072 A 
HETATM   25  C   UNL     1      40.248 -32.354   2.609  1.00  0.00     0.052 A 
HETATM   26  C   UNL     1      39.183 -32.838   3.328  1.00  0.00     0.122 A 
HETATM   27  N   UNL     1      39.005 -32.605   4.639  1.00  0.00    -0.231 NA
HETATM   28  C   UNL     1      39.946 -31.877   5.242  1.00  0.00     0.199 A 
HETATM   29  N   UNL     1      41.009 -31.348   4.634  1.00  0.00    -0.218 NA
BRANCH  28  30
HETATM   30  N   UNL     1      39.779 -31.607   6.585  1.00  0.00    -0.271 NA
HETATM   31  H   UNL     1      40.662 -31.314   6.979  1.00  0.00     0.127 HD
HETATM   32  H   UNL     1      39.310 -32.384   7.028  1.00  0.00     0.127 HD
ENDBRANCH  28  30
ENDBRANCH   7  24
TORSDOF 4
ENDMDL
MODEL 7
REMARK VINA RESULT:      -8.2      3.820      5.364
REMARK  4 active torsions:
REMARK  status: ('A' for Active; 'I' for Inactive)
REMARK    1  A    between atoms: O_2  and  C_3 
REMARK    2  A    between atoms: C_9  and  C_13 
REMARK    3  A    between atoms: C_19  and  C_24 
REMARK    4  A    between atoms: C_28  and  N_29 
ROOT
HETATM    1  C   UNL     1      40.298 -14.096  -0.878  1.00  0.00     0.112 A 
HETATM    2  N   UNL     1      39.801 -14.914   0.029  1.00  0.00    -0.230 NA
HETATM    3  C   UNL     1      40.430 -14.592   1.213  1.00  0.00     0.124 A 
HETATM    4  C   UNL     1      40.306 -15.128   2.503  1.00  0.00     0.148 A 
HETATM    5  F   UNL     1      39.456 -16.133   2.759  1.00  0.00    -0.203 F 
HETATM    6  C   UNL     1      41.080 -14.610   3.549  1.00  0.00     0.058 A 
HETATM    7  C   UNL     1      41.990 -13.556   3.346  1.00  0.00    -0.002 A 
HETATM    8  C   UNL     1      42.110 -13.011   2.047  1.00  0.00     0.046 A 
HETATM    9  C   UNL     1      41.328 -13.550   1.020  1.00  0.00     0.066 A 
HETATM   10  N   UNL     1      41.228 -13.254  -0.314  1.00  0.00    -0.342 N 
HETATM   11  H   UNL     1      41.751 -12.542  -0.808  1.00  0.00     0.167 HD
ENDROOT
BRANCH   1  12
HETATM   12  C   UNL     1      39.941 -14.087  -2.340  1.00  0.00     0.084 C 
HETATM   13  C   UNL     1      38.435 -14.025  -2.594  1.00  0.00     0.188 C 
HETATM   14  O   UNL     1      37.833 -12.792  -2.172  1.00  0.00    -0.350 OA
HETATM   15  C   UNL     1      38.503 -11.660  -2.553  1.00  0.00     0.075 A 
HETATM   16  C   UNL     1      37.799 -10.465  -2.434  1.00  0.00     0.040 A 
HETATM   17  C   UNL     1      39.837 -11.654  -2.969  1.00  0.00    -0.021 A 
HETATM   18  C   UNL     1      38.417  -9.257  -2.761  1.00  0.00     0.039 A 
HETATM   19  C   UNL     1      39.740  -9.235  -3.207  1.00  0.00     0.068 A 
HETATM   20  C   UNL     1      40.447 -10.434  -3.309  1.00  0.00     0.046 A 
HETATM   21  C   UNL     1      40.621 -12.934  -3.078  1.00  0.00     0.056 C 
BRANCH  19  22
HETATM   22  O   UNL     1      40.222  -7.989  -3.498  1.00  0.00    -0.356 OA
HETATM   23  C   UNL     1      41.552  -7.913  -3.998  1.00  0.00     0.210 C 
ENDBRANCH  19  22
ENDBRANCH   1  12
BRANCH   7  24
HETATM   24  C   UNL     1      42.806 -13.009   4.451  1.00  0.00     0.072 A 
HETATM   25  C   UNL     1      43.597 -11.885   4.317  1.00  0.00     0.052 A 
HETATM   26  C   UNL     1      44.294 -11.499   5.436  1.00  0.00     0.122 A 
HETATM   27  N   UNL     1      44.233 -12.151   6.609  1.00  0.00    -0.231 NA
HETATM   28  C   UNL     1      43.425 -13.212   6.654  1.00  0.00     0.199 A 
HETATM   29  N   UNL     1      42.718 -13.678   5.623  1.00  0.00    -0.218 NA
BRANCH  28  30
HETATM   30  N   UNL     1      43.357 -13.910   7.842  1.00  0.00    -0.271 NA
HETATM   31  H   UNL     1      43.235 -13.261   8.605  1.00  0.00     0.127 HD
HETATM   32  H   UNL     1      44.136 -14.551   7.900  1.00  0.00     0.127 HD
ENDBRANCH  28  30
ENDBRANCH   7  24
TORSDOF 4
ENDMDL
MODEL 8
REMARK VINA RESULT:      -8.2      2.149      3.497
REMARK  4 active torsions:
REMARK  status: ('A' for Active; 'I' for Inactive)
REMARK    1  A    between atoms: O_2  and  C_3 
REMARK    2  A    between atoms: C_9  and  C_13 
REMARK    3  A    between atoms: C_19  and  C_24 
REMARK    4  A    between atoms: C_28  and  N_29 
ROOT
HETATM    1  C   UNL     1      40.359 -13.418   0.332  1.00  0.00     0.112 A 
HETATM    2  N   UNL     1      41.196 -12.881   1.197  1.00  0.00    -0.230 NA
HETATM    3  C   UNL     1      41.817 -13.937   1.830  1.00  0.00     0.124 A 
HETATM    4  C   UNL     1      42.790 -13.970   2.838  1.00  0.00     0.148 A 
HETATM    5  F   UNL     1      43.288 -12.840   3.360  1.00  0.00    -0.203 F 
HETATM    6  C   UNL     1      43.258 -15.201   3.315  1.00  0.00     0.058 A 
HETATM    7  C   UNL     1      42.774 -16.423   2.809  1.00  0.00    -0.002 A 
HETATM    8  C   UNL     1      41.798 -16.390   1.788  1.00  0.00     0.046 A 
HETATM    9  C   UNL     1      41.346 -15.146   1.333  1.00  0.00     0.066 A 
HETATM   10  N   UNL     1      40.422 -14.791   0.386  1.00  0.00    -0.342 N 
HETATM   11  H   UNL     1      39.871 -15.427  -0.177  1.00  0.00     0.167 HD
ENDROOT
BRANCH   1  12
HETATM   12  C   UNL     1      39.427 -12.659  -0.574  1.00  0.00     0.084 C 
HETATM   13  C   UNL     1      38.522 -11.679   0.172  1.00  0.00     0.188 C 
HETATM   14  O   UNL     1      39.234 -10.593   0.782  1.00  0.00    -0.350 OA
HETATM   15  C   UNL     1      40.161  -9.985  -0.022  1.00  0.00     0.075 A 
HETATM   16  C   UNL     1      40.638  -8.754   0.421  1.00  0.00     0.040 A 
HETATM   17  C   UNL     1      40.678 -10.564  -1.184  1.00  0.00    -0.021 A 
HETATM   18  C   UNL     1      41.614  -8.080  -0.315  1.00  0.00     0.039 A 
HETATM   19  C   UNL     1      42.121  -8.631  -1.494  1.00  0.00     0.068 A 
HETATM   20  C   UNL     1      41.651  -9.872  -1.925  1.00  0.00     0.046 A 
HETATM   21  C   UNL     1      40.192 -11.906  -1.663  1.00  0.00     0.056 C 
BRANCH  19  22
HETATM   22  O   UNL     1      43.067  -7.867  -2.119  1.00  0.00    -0.356 OA
HETATM   23  C   UNL     1      42.934  -6.455  -2.005  1.00  0.00     0.210 C 
ENDBRANCH  19  22
ENDBRANCH   1  12
BRANCH   7  24
HETATM   24  C   UNL     1      43.269 -17.722   3.311  1.00  0.00     0.072 A 
HETATM   25  C   UNL     1      43.675 -17.919   4.617  1.00  0.00     0.052 A 
HETATM   26  C   UNL     1      44.107 -19.184   4.932  1.00  0.00     0.122 A 
HETATM   27  N   UNL     1      44.146 -20.196   4.049  1.00  0.00    -0.231 NA
HETATM   28  C   UNL     1      43.714 -19.922   2.817  1.00  0.00     0.199 A 
HETATM   29  N   UNL     1      43.289 -18.726   2.405  1.00  0.00    -0.218 NA
BRANCH  28  30
HETATM   30  N   UNL     1      43.760 -20.938   1.885  1.00  0.00    -0.271 NA
HETATM   31  H   UNL     1      44.679 -21.357   1.893  1.00  0.00     0.127 HD
HETATM   32  H   UNL     1      43.415 -20.597   0.999  1.00  0.00     0.127 HD
ENDBRANCH  28  30
ENDBRANCH   7  24
TORSDOF 4
ENDMDL
MODEL 9
REMARK VINA RESULT:      -8.0      3.519      5.889
REMARK  4 active torsions:
REMARK  status: ('A' for Active; 'I' for Inactive)
REMARK    1  A    between atoms: O_2  and  C_3 
REMARK    2  A    between atoms: C_9  and  C_13 
REMARK    3  A    between atoms: C_19  and  C_24 
REMARK    4  A    between atoms: C_28  and  N_29 
ROOT
HETATM    1  C   UNL     1      40.882 -11.945   2.378  1.00  0.00     0.112 A 
HETATM    2  N   UNL     1      40.256 -12.781   1.574  1.00  0.00    -0.230 NA
HETATM    3  C   UNL     1      40.792 -14.026   1.831  1.00  0.00     0.124 A 
HETATM    4  C   UNL     1      40.519 -15.284   1.278  1.00  0.00     0.148 A 
HETATM    5  F   UNL     1      39.591 -15.436   0.321  1.00  0.00    -0.203 F 
HETATM    6  C   UNL     1      41.222 -16.410   1.725  1.00  0.00     0.058 A 
HETATM    7  C   UNL     1      42.209 -16.316   2.725  1.00  0.00    -0.002 A 
HETATM    8  C   UNL     1      42.479 -15.049   3.288  1.00  0.00     0.046 A 
HETATM    9  C   UNL     1      41.764 -13.941   2.820  1.00  0.00     0.066 A 
HETATM   10  N   UNL     1      41.804 -12.613   3.149  1.00  0.00    -0.342 N 
HETATM   11  H   UNL     1      42.411 -12.186   3.838  1.00  0.00     0.167 HD
ENDROOT
BRANCH   1  12
HETATM   12  C   UNL     1      40.661 -10.457   2.439  1.00  0.00     0.084 C 
HETATM   13  C   UNL     1      39.189 -10.069   2.573  1.00  0.00     0.188 C 
HETATM   14  O   UNL     1      38.601 -10.471   3.819  1.00  0.00    -0.350 OA
HETATM   15  C   UNL     1      39.349 -10.186   4.930  1.00  0.00     0.075 A 
HETATM   16  C   UNL     1      38.686 -10.275   6.151  1.00  0.00     0.040 A 
HETATM   17  C   UNL     1      40.715  -9.893   4.889  1.00  0.00    -0.021 A 
HETATM   18  C   UNL     1      39.381 -10.040   7.339  1.00  0.00     0.039 A 
HETATM   19  C   UNL     1      40.739  -9.717   7.316  1.00  0.00     0.068 A 
HETATM   20  C   UNL     1      41.402  -9.645   6.090  1.00  0.00     0.046 A 
HETATM   21  C   UNL     1      41.453  -9.818   3.580  1.00  0.00     0.056 C 
BRANCH  19  22
HETATM   22  O   UNL     1      41.296  -9.507   8.547  1.00  0.00    -0.356 OA
HETATM   23  C   UNL     1      40.428  -9.053   9.578  1.00  0.00     0.210 C 
ENDBRANCH  19  22
ENDBRANCH   1  12
BRANCH   7  24
HETATM   24  C   UNL     1      42.950 -17.505   3.198  1.00  0.00     0.072 A 
HETATM   25  C   UNL     1      43.568 -17.564   4.432  1.00  0.00     0.052 A 
HETATM   26  C   UNL     1      44.216 -18.738   4.728  1.00  0.00     0.122 A 
HETATM   27  N   UNL     1      44.266 -19.789   3.892  1.00  0.00    -0.231 NA
HETATM   28  C   UNL     1      43.622 -19.652   2.732  1.00  0.00     0.199 A 
HETATM   29  N   UNL     1      42.977 -18.552   2.342  1.00  0.00    -0.218 NA
BRANCH  28  30
HETATM   30  N   UNL     1      43.672 -20.709   1.848  1.00  0.00    -0.271 NA
HETATM   31  H   UNL     1      44.491 -20.618   1.264  1.00  0.00     0.127 HD
HETATM   32  H   UNL     1      42.780 -20.801   1.382  1.00  0.00     0.127 HD
ENDBRANCH  28  30
ENDBRANCH   7  24
TORSDOF 4
ENDMDL
MODEL 10
REMARK VINA RESULT:      -8.0      7.388     10.073
REMARK  4 active torsions:
REMARK  status: ('A' for Active; 'I' for Inactive)
REMARK    1  A    between atoms: O_2  and  C_3 
REMARK    2  A    between atoms: C_9  and  C_13 
REMARK    3  A    between atoms: C_19  and  C_24 
REMARK    4  A    between atoms: C_28  and  N_29 
ROOT
HETATM    1  C   UNL     1      42.854  -8.584   7.938  1.00  0.00     0.112 A 
HETATM    2  N   UNL     1      43.998  -9.236   8.011  1.00  0.00    -0.230 NA
HETATM    3  C   UNL     1      43.797 -10.428   7.347  1.00  0.00     0.124 A 
HETATM    4  C   UNL     1      44.654 -11.512   7.111  1.00  0.00     0.148 A 
HETATM    5  F   UNL     1      45.919 -11.507   7.555  1.00  0.00    -0.203 F 
HETATM    6  C   UNL     1      44.189 -12.624   6.398  1.00  0.00     0.058 A 
HETATM    7  C   UNL     1      42.872 -12.691   5.906  1.00  0.00    -0.002 A 
HETATM    8  C   UNL     1      42.010 -11.596   6.139  1.00  0.00     0.046 A 
HETATM    9  C   UNL     1      42.499 -10.499   6.857  1.00  0.00     0.066 A 
HETATM   10  N   UNL     1      41.921  -9.320   7.245  1.00  0.00    -0.342 N 
HETATM   11  H   UNL     1      40.967  -9.035   7.062  1.00  0.00     0.167 HD
ENDROOT
BRANCH   1  12
HETATM   12  C   UNL     1      42.571  -7.238   8.549  1.00  0.00     0.084 C 
HETATM   13  C   UNL     1      41.084  -6.888   8.579  1.00  0.00     0.188 C 
HETATM   14  O   UNL     1      40.314  -7.734   9.445  1.00  0.00    -0.350 OA
HETATM   15  C   UNL     1      40.856  -7.939  10.686  1.00  0.00     0.075 A 
HETATM   16  C   UNL     1      40.004  -8.486  11.641  1.00  0.00     0.040 A 
HETATM   17  C   UNL     1      42.198  -7.699  10.993  1.00  0.00    -0.021 A 
HETATM   18  C   UNL     1      40.483  -8.767  12.922  1.00  0.00     0.039 A 
HETATM   19  C   UNL     1      41.813  -8.506  13.255  1.00  0.00     0.068 A 
HETATM   20  C   UNL     1      42.667  -7.973  12.289  1.00  0.00     0.046 A 
HETATM   21  C   UNL     1      43.139  -7.133   9.964  1.00  0.00     0.056 C 
BRANCH  19  22
HETATM   22  O   UNL     1      42.151  -8.822  14.542  1.00  0.00    -0.356 OA
HETATM   23  C   UNL     1      41.457  -8.136  15.578  1.00  0.00     0.210 C 
ENDBRANCH  19  22
ENDBRANCH   1  12
BRANCH   7  24
HETATM   24  C   UNL     1      42.383 -13.865   5.152  1.00  0.00     0.072 A 
HETATM   25  C   UNL     1      42.906 -14.248   3.933  1.00  0.00     0.052 A 
HETATM   26  C   UNL     1      42.347 -15.362   3.358  1.00  0.00     0.122 A 
HETATM   27  N   UNL     1      41.348 -16.065   3.919  1.00  0.00    -0.231 NA
HETATM   28  C   UNL     1      40.920 -15.637   5.107  1.00  0.00     0.199 A 
HETATM   29  N   UNL     1      41.385 -14.560   5.744  1.00  0.00    -0.218 NA
BRANCH  28  30
HETATM   30  N   UNL     1      39.884 -16.329   5.698  1.00  0.00    -0.271 NA
HETATM   31  H   UNL     1      39.862 -16.120   6.686  1.00  0.00     0.127 HD
HETATM   32  H   UNL     1      39.936 -17.303   5.434  1.00  0.00     0.127 HD
ENDBRANCH  28  30
ENDBRANCH   7  24
TORSDOF 4
ENDMDL
