MODEL 1
REMARK VINA RESULT:      -8.0      0.000      0.000
REMARK  4 active torsions:
REMARK  status: ('A' for Active; 'I' for Inactive)
REMARK    1  A    between atoms: C_4  and  C_5 
REMARK       I    between atoms: C_5  and  N_6 
REMARK    2  A    between atoms: N_6  and  C_7 
REMARK    3  A    between atoms: C_7  and  N_8 
REMARK    4  A    between atoms: N_8  and  C_9 
ROOT
HETATM    1  C   UNL     1      41.420 -15.722   1.785  1.00  0.00     0.257 C 
HETATM    2  N   UNL     1      42.034 -14.577   1.288  1.00  0.00    -0.299 N 
HETATM    3  O   UNL     1      40.231 -15.999   1.736  1.00  0.00    -0.267 OA
HETATM    4  H   UNL     1      42.925 -14.381   1.726  1.00  0.00     0.171 HD
ENDROOT
BRANCH   2   5
HETATM    5  C   UNL     1      41.393 -13.434   0.932  1.00  0.00     0.179 C 
HETATM    6  S   UNL     1      40.909 -12.393   2.149  1.00  0.00    -0.040 SA
BRANCH   5   7
HETATM    7  N   UNL     1      41.117 -13.109  -0.349  1.00  0.00    -0.332 N 
HETATM    8  H   UNL     1      41.931 -12.784  -0.861  1.00  0.00     0.168 HD
BRANCH   7   9
HETATM    9  C   UNL     1      39.997 -13.409  -1.156  1.00  0.00     0.051 A 
HETATM   10  C   UNL     1      38.865 -12.598  -1.043  1.00  0.00     0.145 A 
HETATM   11  N   UNL     1      37.753 -12.705  -1.810  1.00  0.00    -0.271 NA
HETATM   12  C   UNL     1      37.761 -13.681  -2.739  1.00  0.00     0.116 A 
HETATM   13  C   UNL     1      38.829 -14.540  -2.937  1.00  0.00     0.021 A 
HETATM   14  C   UNL     1      39.965 -14.394  -2.138  1.00  0.00     0.032 A 
ENDBRANCH   7   9
ENDBRANCH   5   7
ENDBRANCH   2   5
BRANCH   1  15
HETATM   15  C   UNL     1      42.357 -16.640   2.485  1.00  0.00     0.033 A 
HETATM   16  C   UNL     1      42.580 -17.909   1.943  1.00  0.00     0.023 A 
HETATM   17  C   UNL     1      43.385 -18.828   2.624  1.00  0.00    -0.061 A 
HETATM   18  C   UNL     1      43.608 -20.210   2.082  1.00  0.00     0.048 C 
HETATM   19  C   UNL     1      43.995 -18.444   3.829  1.00  0.00     0.013 A 
HETATM   20  C   UNL     1      43.806 -17.160   4.358  1.00  0.00    -0.061 A 
HETATM   21  C   UNL     1      42.969 -16.261   3.686  1.00  0.00     0.023 A 
HETATM   22  C   UNL     1      44.461 -16.781   5.654  1.00  0.00     0.048 C 
ENDBRANCH   1  15
TORSDOF 4
ENDMDL
MODEL 2
REMARK VINA RESULT:      -7.9      1.571      2.734
REMARK  4 active torsions:
REMARK  status: ('A' for Active; 'I' for Inactive)
REMARK    1  A    between atoms: C_4  and  C_5 
REMARK       I    between atoms: C_5  and  N_6 
REMARK    2  A    between atoms: N_6  and  C_7 
REMARK    3  A    between atoms: C_7  and  N_8 
REMARK    4  A    between atoms: N_8  and  C_9 
ROOT
HETATM    1  C   UNL     1      42.130 -14.898   2.266  1.00  0.00     0.257 C 
HETATM    2  N   UNL     1      40.781 -14.720   2.549  1.00  0.00    -0.299 N 
HETATM    3  O   UNL     1      42.818 -14.230   1.508  1.00  0.00    -0.267 OA
HETATM    4  H   UNL     1      40.335 -15.555   2.906  1.00  0.00     0.171 HD
ENDROOT
BRANCH   2   5
HETATM    5  C   UNL     1      39.917 -13.970   1.818  1.00  0.00     0.179 C 
HETATM    6  S   UNL     1      39.107 -12.726   2.590  1.00  0.00    -0.040 SA
BRANCH   5   7
HETATM    7  N   UNL     1      39.672 -14.189   0.508  1.00  0.00    -0.332 N 
HETATM    8  H   UNL     1      38.833 -14.738   0.348  1.00  0.00     0.168 HD
BRANCH   7   9
HETATM    9  C   UNL     1      40.195 -13.564  -0.646  1.00  0.00     0.051 A 
HETATM   10  C   UNL     1      39.977 -14.174  -1.884  1.00  0.00     0.145 A 
HETATM   11  N   UNL     1      40.338 -13.651  -3.081  1.00  0.00    -0.271 NA
HETATM   12  C   UNL     1      40.961 -12.457  -3.047  1.00  0.00     0.116 A 
HETATM   13  C   UNL     1      41.227 -11.765  -1.877  1.00  0.00     0.021 A 
HETATM   14  C   UNL     1      40.830 -12.325  -0.662  1.00  0.00     0.032 A 
ENDBRANCH   7   9
ENDBRANCH   5   7
ENDBRANCH   2   5
BRANCH   1  15
HETATM   15  C   UNL     1      42.728 -16.077   2.947  1.00  0.00     0.033 A 
HETATM   16  C   UNL     1      43.246 -15.913   4.236  1.00  0.00     0.023 A 
HETATM   17  C   UNL     1      43.894 -16.979   4.870  1.00  0.00    -0.061 A 
HETATM   18  C   UNL     1      44.492 -16.816   6.237  1.00  0.00     0.048 C 
HETATM   19  C   UNL     1      43.977 -18.217   4.214  1.00  0.00     0.013 A 
HETATM   20  C   UNL     1      43.427 -18.399   2.937  1.00  0.00    -0.061 A 
HETATM   21  C   UNL     1      42.813 -17.314   2.298  1.00  0.00     0.023 A 
HETATM   22  C   UNL     1      43.542 -19.730   2.255  1.00  0.00     0.048 C 
ENDBRANCH   1  15
TORSDOF 4
ENDMDL
MODEL 3
REMARK VINA RESULT:      -7.5      5.118      7.869
REMARK  4 active torsions:
REMARK  status: ('A' for Active; 'I' for Inactive)
REMARK    1  A    between atoms: C_4  and  C_5 
REMARK       I    between atoms: C_5  and  N_6 
REMARK    2  A    between atoms: N_6  and  C_7 
REMARK    3  A    between atoms: C_7  and  N_8 
REMARK    4  A    between atoms: N_8  and  C_9 
ROOT
HETATM    1  C   UNL     1      42.939 -14.879   6.252  1.00  0.00     0.257 C 
HETATM    2  N   UNL     1      42.733 -13.614   5.713  1.00  0.00    -0.299 N 
HETATM    3  O   UNL     1      42.943 -15.182   7.436  1.00  0.00    -0.267 OA
HETATM    4  H   UNL     1      43.108 -13.513   4.778  1.00  0.00     0.171 HD
ENDROOT
BRANCH   2   5
HETATM    5  C   UNL     1      42.799 -12.446   6.402  1.00  0.00     0.179 C 
HETATM    6  S   UNL     1      41.890 -11.154   5.848  1.00  0.00    -0.040 SA
BRANCH   5   7
HETATM    7  N   UNL     1      43.570 -12.275   7.496  1.00  0.00    -0.332 N 
HETATM    8  H   UNL     1      43.780 -13.145   7.975  1.00  0.00     0.168 HD
BRANCH   7   9
HETATM    9  C   UNL     1      44.351 -11.173   7.912  1.00  0.00     0.051 A 
HETATM   10  C   UNL     1      43.986 -10.508   9.085  1.00  0.00     0.145 A 
HETATM   11  N   UNL     1      44.685  -9.496   9.655  1.00  0.00    -0.271 NA
HETATM   12  C   UNL     1      45.809  -9.116   9.017  1.00  0.00     0.116 A 
HETATM   13  C   UNL     1      46.264  -9.705   7.849  1.00  0.00     0.021 A 
HETATM   14  C   UNL     1      45.527 -10.754   7.296  1.00  0.00     0.032 A 
ENDBRANCH   7   9
ENDBRANCH   5   7
ENDBRANCH   2   5
BRANCH   1  15
HETATM   15  C   UNL     1      43.233 -15.918   5.230  1.00  0.00     0.033 A 
HETATM   16  C   UNL     1      43.114 -15.580   3.879  1.00  0.00     0.023 A 
HETATM   17  C   UNL     1      43.298 -16.557   2.895  1.00  0.00    -0.061 A 
HETATM   18  C   UNL     1      43.137 -16.228   1.439  1.00  0.00     0.048 C 
HETATM   19  C   UNL     1      43.642 -17.862   3.281  1.00  0.00     0.013 A 
HETATM   20  C   UNL     1      43.799 -18.199   4.633  1.00  0.00    -0.061 A 
HETATM   21  C   UNL     1      43.578 -17.220   5.610  1.00  0.00     0.023 A 
HETATM   22  C   UNL     1      44.156 -19.604   5.018  1.00  0.00     0.048 C 
ENDBRANCH   1  15
TORSDOF 4
ENDMDL
MODEL 4
REMARK VINA RESULT:      -7.1      1.900      7.112
REMARK  4 active torsions:
REMARK  status: ('A' for Active; 'I' for Inactive)
REMARK    1  A    between atoms: C_4  and  C_5 
REMARK       I    between atoms: C_5  and  N_6 
REMARK    2  A    between atoms: N_6  and  C_7 
REMARK    3  A    between atoms: C_7  and  N_8 
REMARK    4  A    between atoms: N_8  and  C_9 
ROOT
HETATM    1  C   UNL     1      40.341 -14.809   1.147  1.00  0.00     0.257 C 
HETATM    2  N   UNL     1      41.018 -14.023   2.074  1.00  0.00    -0.299 N 
HETATM    3  O   UNL     1      39.967 -15.963   1.295  1.00  0.00    -0.267 OA
HETATM    4  H   UNL     1      41.529 -13.259   1.650  1.00  0.00     0.171 HD
ENDROOT
BRANCH   2   5
HETATM    5  C   UNL     1      41.646 -14.484   3.185  1.00  0.00     0.179 C 
HETATM    6  S   UNL     1      42.692 -13.450   3.983  1.00  0.00    -0.040 SA
BRANCH   5   7
HETATM    7  N   UNL     1      41.480 -15.736   3.664  1.00  0.00    -0.332 N 
HETATM    8  H   UNL     1      40.509 -16.030   3.679  1.00  0.00     0.168 HD
BRANCH   7   9
HETATM    9  C   UNL     1      42.413 -16.778   3.864  1.00  0.00     0.051 A 
HETATM   10  C   UNL     1      42.896 -17.458   2.744  1.00  0.00     0.145 A 
HETATM   11  N   UNL     1      43.856 -18.415   2.769  1.00  0.00    -0.271 NA
HETATM   12  C   UNL     1      44.359 -18.722   3.980  1.00  0.00     0.116 A 
HETATM   13  C   UNL     1      43.954 -18.110   5.156  1.00  0.00     0.021 A 
HETATM   14  C   UNL     1      42.973 -17.119   5.092  1.00  0.00     0.032 A 
ENDBRANCH   7   9
ENDBRANCH   5   7
ENDBRANCH   2   5
BRANCH   1  15
HETATM   15  C   UNL     1      40.128 -14.133  -0.160  1.00  0.00     0.033 A 
HETATM   16  C   UNL     1      39.321 -14.761  -1.113  1.00  0.00     0.023 A 
HETATM   17  C   UNL     1      39.171 -14.196  -2.384  1.00  0.00    -0.061 A 
HETATM   18  C   UNL     1      38.342 -14.871  -3.437  1.00  0.00     0.048 C 
HETATM   19  C   UNL     1      39.805 -12.977  -2.670  1.00  0.00     0.013 A 
HETATM   20  C   UNL     1      40.586 -12.323  -1.706  1.00  0.00    -0.061 A 
HETATM   21  C   UNL     1      40.757 -12.916  -0.450  1.00  0.00     0.023 A 
HETATM   22  C   UNL     1      41.261 -11.026  -2.044  1.00  0.00     0.048 C 
ENDBRANCH   1  15
TORSDOF 4
ENDMDL
MODEL 5
REMARK VINA RESULT:      -7.0      2.708      4.713
REMARK  4 active torsions:
REMARK  status: ('A' for Active; 'I' for Inactive)
REMARK    1  A    between atoms: C_4  and  C_5 
REMARK       I    between atoms: C_5  and  N_6 
REMARK    2  A    between atoms: N_6  and  C_7 
REMARK    3  A    between atoms: C_7  and  N_8 
REMARK    4  A    between atoms: N_8  and  C_9 
ROOT
HETATM    1  C   UNL     1      42.828 -15.327   2.225  1.00  0.00     0.257 C 
HETATM    2  N   UNL     1      41.487 -14.959   2.255  1.00  0.00    -0.299 N 
HETATM    3  O   UNL     1      43.746 -14.718   1.696  1.00  0.00    -0.267 OA
HETATM    4  H   UNL     1      40.864 -15.739   2.421  1.00  0.00     0.171 HD
ENDROOT
BRANCH   2   5
HETATM    5  C   UNL     1      40.911 -14.024   1.457  1.00  0.00     0.179 C 
HETATM    6  S   UNL     1      40.264 -14.527  -0.002  1.00  0.00    -0.040 SA
BRANCH   5   7
HETATM    7  N   UNL     1      40.850 -12.714   1.776  1.00  0.00    -0.332 N 
HETATM    8  H   UNL     1      40.167 -12.202   1.227  1.00  0.00     0.168 HD
BRANCH   7   9
HETATM    9  C   UNL     1      41.344 -12.014   2.900  1.00  0.00     0.051 A 
HETATM   10  C   UNL     1      42.675 -11.593   2.884  1.00  0.00     0.145 A 
HETATM   11  N   UNL     1      43.263 -10.838   3.845  1.00  0.00    -0.271 NA
HETATM   12  C   UNL     1      42.485 -10.489   4.888  1.00  0.00     0.116 A 
HETATM   13  C   UNL     1      41.153 -10.852   5.005  1.00  0.00     0.021 A 
HETATM   14  C   UNL     1      40.575 -11.618   3.991  1.00  0.00     0.032 A 
ENDBRANCH   7   9
ENDBRANCH   5   7
ENDBRANCH   2   5
BRANCH   1  15
HETATM   15  C   UNL     1      43.097 -16.637   2.874  1.00  0.00     0.033 A 
HETATM   16  C   UNL     1      43.247 -16.676   4.264  1.00  0.00     0.023 A 
HETATM   17  C   UNL     1      43.588 -17.876   4.896  1.00  0.00    -0.061 A 
HETATM   18  C   UNL     1      43.793 -17.936   6.382  1.00  0.00     0.048 C 
HETATM   19  C   UNL     1      43.736 -19.039   4.124  1.00  0.00     0.013 A 
HETATM   20  C   UNL     1      43.551 -19.015   2.735  1.00  0.00    -0.061 A 
HETATM   21  C   UNL     1      43.245 -17.800   2.109  1.00  0.00     0.023 A 
HETATM   22  C   UNL     1      43.727 -20.271   1.934  1.00  0.00     0.048 C 
ENDBRANCH   1  15
TORSDOF 4
ENDMDL
MODEL 6
REMARK VINA RESULT:      -6.9     14.044     15.496
REMARK  4 active torsions:
REMARK  status: ('A' for Active; 'I' for Inactive)
REMARK    1  A    between atoms: C_4  and  C_5 
REMARK       I    between atoms: C_5  and  N_6 
REMARK    2  A    between atoms: N_6  and  C_7 
REMARK    3  A    between atoms: C_7  and  N_8 
REMARK    4  A    between atoms: N_8  and  C_9 
ROOT
HETATM    1  C   UNL     1      47.004 -28.947   2.201  1.00  0.00     0.257 C 
HETATM    2  N   UNL     1      45.993 -29.901   2.227  1.00  0.00    -0.299 N 
HETATM    3  O   UNL     1      46.872 -27.738   2.080  1.00  0.00    -0.267 OA
HETATM    4  H   UNL     1      46.314 -30.829   1.985  1.00  0.00     0.171 HD
ENDROOT
BRANCH   2   5
HETATM    5  C   UNL     1      44.711 -29.698   1.826  1.00  0.00     0.179 C 
HETATM    6  S   UNL     1      43.502 -30.562   2.595  1.00  0.00    -0.040 SA
BRANCH   5   7
HETATM    7  N   UNL     1      44.372 -28.851   0.831  1.00  0.00    -0.332 N 
HETATM    8  H   UNL     1      44.141 -27.920   1.164  1.00  0.00     0.168 HD
BRANCH   7   9
HETATM    9  C   UNL     1      44.559 -28.946  -0.566  1.00  0.00     0.051 A 
HETATM   10  C   UNL     1      44.110 -30.097  -1.216  1.00  0.00     0.145 A 
HETATM   11  N   UNL     1      44.138 -30.294  -2.557  1.00  0.00    -0.271 NA
HETATM   12  C   UNL     1      44.652 -29.291  -3.295  1.00  0.00     0.116 A 
HETATM   13  C   UNL     1      45.125 -28.107  -2.755  1.00  0.00     0.021 A 
HETATM   14  C   UNL     1      45.069 -27.932  -1.371  1.00  0.00     0.032 A 
ENDBRANCH   7   9
ENDBRANCH   5   7
ENDBRANCH   2   5
BRANCH   1  15
HETATM   15  C   UNL     1      48.370 -29.529   2.278  1.00  0.00     0.033 A 
HETATM   16  C   UNL     1      49.022 -29.864   1.088  1.00  0.00     0.023 A 
HETATM   17  C   UNL     1      50.270 -30.494   1.128  1.00  0.00    -0.061 A 
HETATM   18  C   UNL     1      50.973 -30.899  -0.135  1.00  0.00     0.048 C 
HETATM   19  C   UNL     1      50.871 -30.745   2.371  1.00  0.00     0.013 A 
HETATM   20  C   UNL     1      50.240 -30.377   3.568  1.00  0.00    -0.061 A 
HETATM   21  C   UNL     1      48.974 -29.779   3.516  1.00  0.00     0.023 A 
HETATM   22  C   UNL     1      50.900 -30.668   4.883  1.00  0.00     0.048 C 
ENDBRANCH   1  15
TORSDOF 4
ENDMDL
MODEL 7
REMARK VINA RESULT:      -6.9      2.560      3.890
REMARK  4 active torsions:
REMARK  status: ('A' for Active; 'I' for Inactive)
REMARK    1  A    between atoms: C_4  and  C_5 
REMARK       I    between atoms: C_5  and  N_6 
REMARK    2  A    between atoms: N_6  and  C_7 
REMARK    3  A    between atoms: C_7  and  N_8 
REMARK    4  A    between atoms: N_8  and  C_9 
ROOT
HETATM    1  C   UNL     1      42.864 -14.964   2.168  1.00  0.00     0.257 C 
HETATM    2  N   UNL     1      41.502 -14.777   1.958  1.00  0.00    -0.299 N 
HETATM    3  O   UNL     1      43.772 -14.234   1.800  1.00  0.00    -0.267 OA
HETATM    4  H   UNL     1      40.967 -15.634   2.023  1.00  0.00     0.171 HD
ENDROOT
BRANCH   2   5
HETATM    5  C   UNL     1      40.957 -13.919   1.058  1.00  0.00     0.179 C 
HETATM    6  S   UNL     1      40.029 -14.561  -0.178  1.00  0.00    -0.040 SA
BRANCH   5   7
HETATM    7  N   UNL     1      41.140 -12.582   1.104  1.00  0.00    -0.332 N 
HETATM    8  H   UNL     1      41.047 -12.136   0.197  1.00  0.00     0.168 HD
BRANCH   7   9
HETATM    9  C   UNL     1      41.149 -11.689   2.199  1.00  0.00     0.051 A 
HETATM   10  C   UNL     1      39.940 -11.430   2.850  1.00  0.00     0.145 A 
HETATM   11  N   UNL     1      39.805 -10.671   3.965  1.00  0.00    -0.271 NA
HETATM   12  C   UNL     1      40.936 -10.129   4.457  1.00  0.00     0.116 A 
HETATM   13  C   UNL     1      42.187 -10.322   3.893  1.00  0.00     0.021 A 
HETATM   14  C   UNL     1      42.292 -11.120   2.753  1.00  0.00     0.032 A 
ENDBRANCH   7   9
ENDBRANCH   5   7
ENDBRANCH   2   5
BRANCH   1  15
HETATM   15  C   UNL     1      43.185 -16.233   2.872  1.00  0.00     0.033 A 
HETATM   16  C   UNL     1      43.230 -17.418   2.130  1.00  0.00     0.023 A 
HETATM   17  C   UNL     1      43.442 -18.640   2.777  1.00  0.00    -0.061 A 
HETATM   18  C   UNL     1      43.455 -19.929   2.008  1.00  0.00     0.048 C 
HETATM   19  C   UNL     1      43.650 -18.653   4.165  1.00  0.00     0.013 A 
HETATM   20  C   UNL     1      43.645 -17.465   4.909  1.00  0.00    -0.061 A 
HETATM   21  C   UNL     1      43.395 -16.252   4.256  1.00  0.00     0.023 A 
HETATM   22  C   UNL     1      43.859 -17.511   6.394  1.00  0.00     0.048 C 
ENDBRANCH   1  15
TORSDOF 4
ENDMDL
MODEL 8
REMARK VINA RESULT:      -6.9      2.769      7.456
REMARK  4 active torsions:
REMARK  status: ('A' for Active; 'I' for Inactive)
REMARK    1  A    between atoms: C_4  and  C_5 
REMARK       I    between atoms: C_5  and  N_6 
REMARK    2  A    between atoms: N_6  and  C_7 
REMARK    3  A    between atoms: C_7  and  N_8 
REMARK    4  A    between atoms: N_8  and  C_9 
ROOT
HETATM    1  C   UNL     1      42.236 -15.242   2.401  1.00  0.00     0.257 C 
HETATM    2  N   UNL     1      41.781 -15.731   3.621  1.00  0.00    -0.299 N 
HETATM    3  O   UNL     1      43.336 -15.423   1.900  1.00  0.00    -0.267 OA
HETATM    4  H   UNL     1      41.010 -15.197   4.001  1.00  0.00     0.171 HD
ENDROOT
BRANCH   2   5
HETATM    5  C   UNL     1      42.565 -16.242   4.604  1.00  0.00     0.179 C 
HETATM    6  S   UNL     1      42.156 -15.903   6.191  1.00  0.00    -0.040 SA
BRANCH   5   7
HETATM    7  N   UNL     1      43.662 -16.991   4.363  1.00  0.00    -0.332 N 
HETATM    8  H   UNL     1      44.518 -16.565   4.704  1.00  0.00     0.168 HD
BRANCH   7   9
HETATM    9  C   UNL     1      43.788 -18.349   3.995  1.00  0.00     0.051 A 
HETATM   10  C   UNL     1      44.142 -19.272   4.981  1.00  0.00     0.145 A 
HETATM   11  N   UNL     1      44.214 -20.613   4.801  1.00  0.00    -0.271 NA
HETATM   12  C   UNL     1      43.926 -21.065   3.565  1.00  0.00     0.116 A 
HETATM   13  C   UNL     1      43.563 -20.240   2.514  1.00  0.00     0.021 A 
HETATM   14  C   UNL     1      43.486 -18.864   2.737  1.00  0.00     0.032 A 
ENDBRANCH   7   9
ENDBRANCH   5   7
ENDBRANCH   2   5
BRANCH   1  15
HETATM   15  C   UNL     1      41.253 -14.368   1.709  1.00  0.00     0.033 A 
HETATM   16  C   UNL     1      40.804 -13.217   2.363  1.00  0.00     0.023 A 
HETATM   17  C   UNL     1      39.814 -12.421   1.777  1.00  0.00    -0.061 A 
HETATM   18  C   UNL     1      39.288 -11.202   2.478  1.00  0.00     0.048 C 
HETATM   19  C   UNL     1      39.313 -12.771   0.514  1.00  0.00     0.013 A 
HETATM   20  C   UNL     1      39.785 -13.903  -0.164  1.00  0.00    -0.061 A 
HETATM   21  C   UNL     1      40.750 -14.712   0.448  1.00  0.00     0.023 A 
HETATM   22  C   UNL     1      39.222 -14.260  -1.509  1.00  0.00     0.048 C 
ENDBRANCH   1  15
TORSDOF 4
ENDMDL
MODEL 9
REMARK VINA RESULT:      -6.8      3.460      5.749
REMARK  4 active torsions:
REMARK  status: ('A' for Active; 'I' for Inactive)
REMARK    1  A    between atoms: C_4  and  C_5 
REMARK       I    between atoms: C_5  and  N_6 
REMARK    2  A    between atoms: N_6  and  C_7 
REMARK    3  A    between atoms: C_7  and  N_8 
REMARK    4  A    between atoms: N_8  and  C_9 
ROOT
HETATM    1  C   UNL     1      41.779 -14.332   2.932  1.00  0.00     0.257 C 
HETATM    2  N   UNL     1      42.636 -13.342   2.464  1.00  0.00    -0.299 N 
HETATM    3  O   UNL     1      40.560 -14.277   3.000  1.00  0.00    -0.267 OA
HETATM    4  H   UNL     1      43.583 -13.439   2.809  1.00  0.00     0.171 HD
ENDROOT
BRANCH   2   5
HETATM    5  C   UNL     1      42.306 -12.038   2.281  1.00  0.00     0.179 C 
HETATM    6  S   UNL     1      41.260 -11.660   1.032  1.00  0.00    -0.040 SA
BRANCH   5   7
HETATM    7  N   UNL     1      42.791 -11.037   3.047  1.00  0.00    -0.332 N 
HETATM    8  H   UNL     1      42.719 -10.127   2.603  1.00  0.00     0.168 HD
BRANCH   7   9
HETATM    9  C   UNL     1      43.102 -10.997   4.425  1.00  0.00     0.051 A 
HETATM   10  C   UNL     1      42.168 -10.432   5.296  1.00  0.00     0.145 A 
HETATM   11  N   UNL     1      42.284 -10.402   6.646  1.00  0.00    -0.271 NA
HETATM   12  C   UNL     1      43.397 -10.959   7.161  1.00  0.00     0.116 A 
HETATM   13  C   UNL     1      44.386 -11.547   6.390  1.00  0.00     0.021 A 
HETATM   14  C   UNL     1      44.229 -11.572   5.003  1.00  0.00     0.032 A 
ENDBRANCH   7   9
ENDBRANCH   5   7
ENDBRANCH   2   5
BRANCH   1  15
HETATM   15  C   UNL     1      42.486 -15.537   3.439  1.00  0.00     0.033 A 
HETATM   16  C   UNL     1      43.133 -15.462   4.676  1.00  0.00     0.023 A 
HETATM   17  C   UNL     1      43.881 -16.549   5.141  1.00  0.00    -0.061 A 
HETATM   18  C   UNL     1      44.618 -16.479   6.447  1.00  0.00     0.048 C 
HETATM   19  C   UNL     1      43.936 -17.722   4.371  1.00  0.00     0.013 A 
HETATM   20  C   UNL     1      43.257 -17.817   3.148  1.00  0.00    -0.061 A 
HETATM   21  C   UNL     1      42.542 -16.710   2.676  1.00  0.00     0.023 A 
HETATM   22  C   UNL     1      43.343 -19.080   2.341  1.00  0.00     0.048 C 
ENDBRANCH   1  15
TORSDOF 4
ENDMDL
MODEL 10
REMARK VINA RESULT:      -6.8      2.417      7.237
REMARK  4 active torsions:
REMARK  status: ('A' for Active; 'I' for Inactive)
REMARK    1  A    between atoms: C_4  and  C_5 
REMARK       I    between atoms: C_5  and  N_6 
REMARK    2  A    between atoms: N_6  and  C_7 
REMARK    3  A    between atoms: C_7  and  N_8 
REMARK    4  A    between atoms: N_8  and  C_9 
ROOT
HETATM    1  C   UNL     1      40.979 -14.991   1.586  1.00  0.00     0.257 C 
HETATM    2  N   UNL     1      40.610 -15.333   2.882  1.00  0.00    -0.299 N 
HETATM    3  O   UNL     1      41.952 -15.397   0.967  1.00  0.00    -0.267 OA
HETATM    4  H   UNL     1      40.006 -14.647   3.318  1.00  0.00     0.171 HD
ENDROOT
BRANCH   2   5
HETATM    5  C   UNL     1      41.412 -15.939   3.794  1.00  0.00     0.179 C 
HETATM    6  S   UNL     1      40.842 -16.099   5.359  1.00  0.00    -0.040 SA
BRANCH   5   7
HETATM    7  N   UNL     1      42.646 -16.402   3.502  1.00  0.00    -0.332 N 
HETATM    8  H   UNL     1      43.373 -15.707   3.637  1.00  0.00     0.168 HD
BRANCH   7   9
HETATM    9  C   UNL     1      43.120 -17.722   3.331  1.00  0.00     0.051 A 
HETATM   10  C   UNL     1      43.800 -18.324   4.392  1.00  0.00     0.145 A 
HETATM   11  N   UNL     1      44.232 -19.608   4.410  1.00  0.00    -0.271 NA
HETATM   12  C   UNL     1      43.983 -20.336   3.304  1.00  0.00     0.116 A 
HETATM   13  C   UNL     1      43.316 -19.841   2.196  1.00  0.00     0.021 A 
HETATM   14  C   UNL     1      42.872 -18.517   2.216  1.00  0.00     0.032 A 
ENDBRANCH   7   9
ENDBRANCH   5   7
ENDBRANCH   2   5
BRANCH   1  15
HETATM   15  C   UNL     1      40.088 -13.977   0.963  1.00  0.00     0.033 A 
HETATM   16  C   UNL     1      39.859 -14.045  -0.414  1.00  0.00     0.023 A 
HETATM   17  C   UNL     1      39.097 -13.056  -1.046  1.00  0.00    -0.061 A 
HETATM   18  C   UNL     1      38.870 -13.085  -2.529  1.00  0.00     0.048 C 
HETATM   19  C   UNL     1      38.536 -12.027  -0.274  1.00  0.00     0.013 A 
HETATM   20  C   UNL     1      38.730 -11.974   1.114  1.00  0.00    -0.061 A 
HETATM   21  C   UNL     1      39.524 -12.950   1.729  1.00  0.00     0.023 A 
HETATM   22  C   UNL     1      38.127 -10.856   1.912  1.00  0.00     0.048 C 
ENDBRANCH   1  15
TORSDOF 4
ENDMDL
