MODEL 1
REMARK VINA RESULT:      -8.0      0.000      0.000
REMARK  7 active torsions:
REMARK  status: ('A' for Active; 'I' for Inactive)
REMARK    1  A    between atoms: C_3  and  C_4 
REMARK    2  A    between atoms: C_4  and  N_5 
REMARK       I    between atoms: N_5  and  C_6 
REMARK    3  A    between atoms: C_6  and  C_7 
REMARK    4  A    between atoms: C_7  and  N_8 
REMARK    5  A    between atoms: C_10  and  C_11 
REMARK    6  A    between atoms: C_11  and  N_12 
REMARK       I    between atoms: N_12  and  C_13 
REMARK       I    between atoms: C_13  and  N_14 
REMARK    7  A    between atoms: N_14  and  C_15 
ROOT
HETATM    1  N   UNL     1      41.212 -11.966   3.606  1.00  0.00    -0.057 N 
HETATM    2  H   UNL     1      40.339 -11.822   3.063  1.00  0.00     0.281 HD
HETATM    3  C   UNL     1      40.939 -13.262   4.383  1.00  0.00     0.206 C 
HETATM    4  C   UNL     1      39.701 -13.011   5.259  1.00  0.00     0.035 C 
HETATM    5  C   UNL     1      39.862 -11.796   6.169  1.00  0.00     0.004 C 
HETATM    6  C   UNL     1      40.195 -10.548   5.361  1.00  0.00     0.028 C 
HETATM    7  C   UNL     1      41.402 -10.744   4.455  1.00  0.00     0.236 C 
ENDROOT
BRANCH   1   8
HETATM    8  C   UNL     1      42.247 -12.109   2.484  1.00  0.00     0.337 C 
BRANCH   8   9
HETATM    9  C   UNL     1      41.850 -13.230   1.525  1.00  0.00     0.243 C 
HETATM   10  N   UNL     1      40.741 -12.994   0.763  1.00  0.00    -0.355 N 
HETATM   11  H   UNL     1      40.277 -12.093   0.759  1.00  0.00     0.162 HD
HETATM   12  O   UNL     1      42.506 -14.271   1.512  1.00  0.00    -0.272 OA
BRANCH  10  13
HETATM   13  C   UNL     1      40.194 -14.001  -0.127  1.00  0.00     0.169 C 
BRANCH  13  14
HETATM   14  C   UNL     1      39.125 -13.344  -0.947  1.00  0.00     0.006 A 
HETATM   15  C   UNL     1      38.491 -13.795  -2.097  1.00  0.00    -0.047 A 
HETATM   16  C   UNL     1      38.723 -15.103  -2.781  1.00  0.00     0.049 C 
HETATM   17  C   UNL     1      37.531 -12.834  -2.563  1.00  0.00     0.015 A 
HETATM   18  C   UNL     1      37.474 -11.709  -1.775  1.00  0.00     0.051 A 
HETATM   19  S   UNL     1      38.561 -11.792  -0.468  1.00  0.00    -0.104 SA
ENDBRANCH  13  14
ENDBRANCH  10  13
ENDBRANCH   8   9
ENDBRANCH   1   8
BRANCH   3  20
HETATM   20  C   UNL     1      42.183 -13.734   5.199  1.00  0.00     0.157 C 
BRANCH  20  21
HETATM   21  N   UNL     1      43.023 -14.707   4.523  1.00  0.00    -0.341 N 
HETATM   22  C   UNL     1      42.756 -16.058   4.662  1.00  0.00     0.320 C 
HETATM   23  N   UNL     1      43.652 -16.814   3.947  1.00  0.00    -0.309 N 
HETATM   24  O   UNL     1      41.850 -16.444   5.387  1.00  0.00    -0.247 OA
HETATM   25  H   UNL     1      44.391 -16.313   3.477  1.00  0.00     0.170 HD
HETATM   26  H   UNL     1      43.396 -14.445   3.619  1.00  0.00     0.164 HD
BRANCH  23  27
HETATM   27  C   UNL     1      43.736 -18.220   3.879  1.00  0.00     0.036 A 
HETATM   28  C   UNL     1      44.077 -19.035   4.960  1.00  0.00     0.029 A 
HETATM   29  C   UNL     1      44.153 -20.423   4.801  1.00  0.00     0.002 A 
HETATM   30  C   UNL     1      43.886 -21.006   3.565  1.00  0.00     0.000 A 
HETATM   31  C   UNL     1      43.539 -20.201   2.483  1.00  0.00     0.002 A 
HETATM   32  C   UNL     1      43.465 -18.815   2.640  1.00  0.00     0.029 A 
ENDBRANCH  23  27
ENDBRANCH  20  21
ENDBRANCH   3  20
TORSDOF 7
ENDMDL
MODEL 2
REMARK VINA RESULT:      -7.9      2.513      7.453
REMARK  7 active torsions:
REMARK  status: ('A' for Active; 'I' for Inactive)
REMARK    1  A    between atoms: C_3  and  C_4 
REMARK    2  A    between atoms: C_4  and  N_5 
REMARK       I    between atoms: N_5  and  C_6 
REMARK    3  A    between atoms: C_6  and  C_7 
REMARK    4  A    between atoms: C_7  and  N_8 
REMARK    5  A    between atoms: C_10  and  C_11 
REMARK    6  A    between atoms: C_11  and  N_12 
REMARK       I    between atoms: N_12  and  C_13 
REMARK       I    between atoms: C_13  and  N_14 
REMARK    7  A    between atoms: N_14  and  C_15 
ROOT
HETATM    1  N   UNL     1      42.500 -13.731   4.838  1.00  0.00    -0.057 N 
HETATM    2  H   UNL     1      43.367 -14.303   4.845  1.00  0.00     0.281 HD
HETATM    3  C   UNL     1      42.650 -12.873   3.574  1.00  0.00     0.206 C 
HETATM    4  C   UNL     1      43.935 -12.045   3.738  1.00  0.00     0.035 C 
HETATM    5  C   UNL     1      43.941 -11.218   5.021  1.00  0.00     0.004 C 
HETATM    6  C   UNL     1      43.725 -12.103   6.243  1.00  0.00     0.028 C 
HETATM    7  C   UNL     1      42.476 -12.965   6.128  1.00  0.00     0.236 C 
ENDROOT
BRANCH   1   8
HETATM    8  C   UNL     1      41.422 -14.816   4.742  1.00  0.00     0.337 C 
BRANCH   8   9
HETATM    9  C   UNL     1      41.765 -15.819   3.640  1.00  0.00     0.243 C 
HETATM   10  N   UNL     1      42.922 -16.523   3.819  1.00  0.00    -0.355 N 
HETATM   11  H   UNL     1      43.460 -16.460   4.676  1.00  0.00     0.162 HD
HETATM   12  O   UNL     1      41.024 -15.914   2.662  1.00  0.00    -0.272 OA
BRANCH  10  13
HETATM   13  C   UNL     1      43.420 -17.445   2.816  1.00  0.00     0.169 C 
BRANCH  13  14
HETATM   14  C   UNL     1      43.678 -18.754   3.497  1.00  0.00     0.006 A 
HETATM   15  C   UNL     1      43.682 -20.039   2.971  1.00  0.00    -0.047 A 
HETATM   16  C   UNL     1      43.450 -20.412   1.542  1.00  0.00     0.049 C 
HETATM   17  C   UNL     1      43.968 -21.010   3.989  1.00  0.00     0.015 A 
HETATM   18  C   UNL     1      44.160 -20.446   5.228  1.00  0.00     0.051 A 
HETATM   19  S   UNL     1      44.007 -18.751   5.185  1.00  0.00    -0.104 SA
ENDBRANCH  13  14
ENDBRANCH  10  13
ENDBRANCH   8   9
ENDBRANCH   1   8
BRANCH   3  20
HETATM   20  C   UNL     1      41.387 -11.997   3.302  1.00  0.00     0.157 C 
BRANCH  20  21
HETATM   21  N   UNL     1      40.331 -12.663   2.560  1.00  0.00    -0.341 N 
HETATM   22  C   UNL     1      40.346 -12.640   1.176  1.00  0.00     0.320 C 
HETATM   23  N   UNL     1      39.273 -13.324   0.660  1.00  0.00    -0.309 N 
HETATM   24  O   UNL     1      41.212 -12.025   0.572  1.00  0.00    -0.247 OA
HETATM   25  H   UNL     1      38.610 -13.693   1.326  1.00  0.00     0.170 HD
HETATM   26  H   UNL     1      39.949 -13.511   2.960  1.00  0.00     0.164 HD
BRANCH  23  27
HETATM   27  C   UNL     1      38.920 -13.481  -0.696  1.00  0.00     0.036 A 
HETATM   28  C   UNL     1      38.186 -12.543  -1.425  1.00  0.00     0.029 A 
HETATM   29  C   UNL     1      37.864 -12.786  -2.765  1.00  0.00     0.002 A 
HETATM   30  C   UNL     1      38.274 -13.963  -3.386  1.00  0.00     0.000 A 
HETATM   31  C   UNL     1      39.012 -14.901  -2.668  1.00  0.00     0.002 A 
HETATM   32  C   UNL     1      39.332 -14.660  -1.330  1.00  0.00     0.029 A 
ENDBRANCH  23  27
ENDBRANCH  20  21
ENDBRANCH   3  20
TORSDOF 7
ENDMDL
MODEL 3
REMARK VINA RESULT:      -7.9      2.446      5.923
REMARK  7 active torsions:
REMARK  status: ('A' for Active; 'I' for Inactive)
REMARK    1  A    between atoms: C_3  and  C_4 
REMARK    2  A    between atoms: C_4  and  N_5 
REMARK       I    between atoms: N_5  and  C_6 
REMARK    3  A    between atoms: C_6  and  C_7 
REMARK    4  A    between atoms: C_7  and  N_8 
REMARK    5  A    between atoms: C_10  and  C_11 
REMARK    6  A    between atoms: C_11  and  N_12 
REMARK       I    between atoms: N_12  and  C_13 
REMARK       I    between atoms: C_13  and  N_14 
REMARK    7  A    between atoms: N_14  and  C_15 
ROOT
HETATM    1  N   UNL     1      39.123 -11.683   0.942  1.00  0.00    -0.057 N 
HETATM    2  H   UNL     1      39.385 -10.690   1.095  1.00  0.00     0.281 HD
HETATM    3  C   UNL     1      40.367 -12.281   0.269  1.00  0.00     0.206 C 
HETATM    4  C   UNL     1      40.599 -11.495  -1.032  1.00  0.00     0.035 C 
HETATM    5  C   UNL     1      39.375 -11.494  -1.943  1.00  0.00     0.004 C 
HETATM    6  C   UNL     1      38.151 -10.953  -1.214  1.00  0.00     0.028 C 
HETATM    7  C   UNL     1      37.883 -11.678   0.097  1.00  0.00     0.236 C 
ENDROOT
BRANCH   1   8
HETATM    8  C   UNL     1      38.891 -12.160   2.380  1.00  0.00     0.337 C 
BRANCH   8   9
HETATM    9  C   UNL     1      40.011 -11.669   3.297  1.00  0.00     0.243 C 
HETATM   10  N   UNL     1      40.730 -12.644   3.928  1.00  0.00    -0.355 N 
HETATM   11  H   UNL     1      40.599 -13.627   3.720  1.00  0.00     0.162 HD
HETATM   12  O   UNL     1      40.181 -10.459   3.444  1.00  0.00    -0.272 OA
BRANCH  10  13
HETATM   13  C   UNL     1      41.765 -12.328   4.896  1.00  0.00     0.169 C 
BRANCH  13  14
HETATM   14  C   UNL     1      41.920 -13.517   5.793  1.00  0.00     0.006 A 
HETATM   15  C   UNL     1      42.980 -13.870   6.618  1.00  0.00    -0.047 A 
HETATM   16  C   UNL     1      44.239 -13.091   6.824  1.00  0.00     0.049 C 
HETATM   17  C   UNL     1      42.713 -15.107   7.297  1.00  0.00     0.015 A 
HETATM   18  C   UNL     1      41.491 -15.644   6.969  1.00  0.00     0.051 A 
HETATM   19  S   UNL     1      40.649 -14.674   5.852  1.00  0.00    -0.104 SA
ENDBRANCH  13  14
ENDBRANCH  10  13
ENDBRANCH   8   9
ENDBRANCH   1   8
BRANCH   3  20
HETATM   20  C   UNL     1      40.233 -13.819   0.041  1.00  0.00     0.157 C 
BRANCH  20  21
HETATM   21  N   UNL     1      41.438 -14.583   0.314  1.00  0.00    -0.341 N 
HETATM   22  C   UNL     1      41.507 -15.372   1.449  1.00  0.00     0.320 C 
HETATM   23  N   UNL     1      42.717 -16.016   1.530  1.00  0.00    -0.309 N 
HETATM   24  O   UNL     1      40.583 -15.397   2.249  1.00  0.00    -0.247 OA
HETATM   25  H   UNL     1      43.392 -15.798   0.812  1.00  0.00     0.170 HD
HETATM   26  H   UNL     1      41.941 -14.952  -0.483  1.00  0.00     0.164 HD
BRANCH  23  27
HETATM   27  C   UNL     1      43.178 -16.863   2.558  1.00  0.00     0.036 A 
HETATM   28  C   UNL     1      43.516 -16.423   3.839  1.00  0.00     0.029 A 
HETATM   29  C   UNL     1      43.982 -17.330   4.797  1.00  0.00     0.002 A 
HETATM   30  C   UNL     1      44.112 -18.681   4.483  1.00  0.00     0.000 A 
HETATM   31  C   UNL     1      43.771 -19.130   3.210  1.00  0.00     0.002 A 
HETATM   32  C   UNL     1      43.308 -18.225   2.253  1.00  0.00     0.029 A 
ENDBRANCH  23  27
ENDBRANCH  20  21
ENDBRANCH   3  20
TORSDOF 7
ENDMDL
MODEL 4
REMARK VINA RESULT:      -7.8      4.381      7.420
REMARK  7 active torsions:
REMARK  status: ('A' for Active; 'I' for Inactive)
REMARK    1  A    between atoms: C_3  and  C_4 
REMARK    2  A    between atoms: C_4  and  N_5 
REMARK       I    between atoms: N_5  and  C_6 
REMARK    3  A    between atoms: C_6  and  C_7 
REMARK    4  A    between atoms: C_7  and  N_8 
REMARK    5  A    between atoms: C_10  and  C_11 
REMARK    6  A    between atoms: C_11  and  N_12 
REMARK       I    between atoms: N_12  and  C_13 
REMARK       I    between atoms: C_13  and  N_14 
REMARK    7  A    between atoms: N_14  and  C_15 
ROOT
HETATM    1  N   UNL     1      41.405 -11.898   6.422  1.00  0.00    -0.057 N 
HETATM    2  H   UNL     1      41.398 -11.863   7.460  1.00  0.00     0.281 HD
HETATM    3  C   UNL     1      41.831 -13.341   6.117  1.00  0.00     0.206 C 
HETATM    4  C   UNL     1      43.217 -13.548   6.752  1.00  0.00     0.035 C 
HETATM    5  C   UNL     1      44.238 -12.516   6.282  1.00  0.00     0.004 C 
HETATM    6  C   UNL     1      43.744 -11.098   6.546  1.00  0.00     0.028 C 
HETATM    7  C   UNL     1      42.364 -10.841   5.960  1.00  0.00     0.236 C 
ENDROOT
BRANCH   1   8
HETATM    8  C   UNL     1      39.939 -11.591   6.098  1.00  0.00     0.337 C 
BRANCH   8   9
HETATM    9  C   UNL     1      39.433 -10.426   6.949  1.00  0.00     0.243 C 
HETATM   10  N   UNL     1      39.800 -10.450   8.265  1.00  0.00    -0.355 N 
HETATM   11  H   UNL     1      40.451 -11.137   8.627  1.00  0.00     0.162 HD
HETATM   12  O   UNL     1      38.715  -9.571   6.432  1.00  0.00    -0.272 OA
BRANCH  10  13
HETATM   13  C   UNL     1      39.321  -9.460   9.211  1.00  0.00     0.169 C 
BRANCH  13  14
HETATM   14  C   UNL     1      40.292  -9.423  10.352  1.00  0.00     0.006 A 
HETATM   15  C   UNL     1      41.603  -8.968  10.384  1.00  0.00    -0.047 A 
HETATM   16  C   UNL     1      42.357  -8.361   9.245  1.00  0.00     0.049 C 
HETATM   17  C   UNL     1      42.172  -9.132  11.692  1.00  0.00     0.015 A 
HETATM   18  C   UNL     1      41.298  -9.698  12.588  1.00  0.00     0.051 A 
HETATM   19  S   UNL     1      39.788 -10.035  11.878  1.00  0.00    -0.104 SA
ENDBRANCH  13  14
ENDBRANCH  10  13
ENDBRANCH   8   9
ENDBRANCH   1   8
BRANCH   3  20
HETATM   20  C   UNL     1      41.805 -13.654   4.588  1.00  0.00     0.157 C 
BRANCH  20  21
HETATM   21  N   UNL     1      42.801 -14.613   4.145  1.00  0.00    -0.341 N 
HETATM   22  C   UNL     1      42.475 -15.957   4.071  1.00  0.00     0.320 C 
HETATM   23  N   UNL     1      43.541 -16.700   3.629  1.00  0.00    -0.309 N 
HETATM   24  O   UNL     1      41.372 -16.351   4.421  1.00  0.00    -0.247 OA
HETATM   25  H   UNL     1      44.405 -16.201   3.474  1.00  0.00     0.170 HD
HETATM   26  H   UNL     1      43.459 -14.304   3.440  1.00  0.00     0.164 HD
BRANCH  23  27
HETATM   27  C   UNL     1      43.613 -18.099   3.472  1.00  0.00     0.036 A 
HETATM   28  C   UNL     1      43.210 -18.778   2.320  1.00  0.00     0.029 A 
HETATM   29  C   UNL     1      43.301 -20.172   2.254  1.00  0.00     0.002 A 
HETATM   30  C   UNL     1      43.797 -20.897   3.336  1.00  0.00     0.000 A 
HETATM   31  C   UNL     1      44.206 -20.229   4.486  1.00  0.00     0.002 A 
HETATM   32  C   UNL     1      44.114 -18.836   4.553  1.00  0.00     0.029 A 
ENDBRANCH  23  27
ENDBRANCH  20  21
ENDBRANCH   3  20
TORSDOF 7
ENDMDL
MODEL 5
REMARK VINA RESULT:      -7.8      4.012      7.434
REMARK  7 active torsions:
REMARK  status: ('A' for Active; 'I' for Inactive)
REMARK    1  A    between atoms: C_3  and  C_4 
REMARK    2  A    between atoms: C_4  and  N_5 
REMARK       I    between atoms: N_5  and  C_6 
REMARK    3  A    between atoms: C_6  and  C_7 
REMARK    4  A    between atoms: C_7  and  N_8 
REMARK    5  A    between atoms: C_10  and  C_11 
REMARK    6  A    between atoms: C_11  and  N_12 
REMARK       I    between atoms: N_12  and  C_13 
REMARK       I    between atoms: C_13  and  N_14 
REMARK    7  A    between atoms: N_14  and  C_15 
ROOT
HETATM    1  N   UNL     1      41.272 -11.642   4.653  1.00  0.00    -0.057 N 
HETATM    2  H   UNL     1      41.638 -10.761   4.243  1.00  0.00     0.281 HD
HETATM    3  C   UNL     1      42.530 -12.503   4.829  1.00  0.00     0.206 C 
HETATM    4  C   UNL     1      43.153 -12.683   3.435  1.00  0.00     0.035 C 
HETATM    5  C   UNL     1      42.171 -13.267   2.423  1.00  0.00     0.004 C 
HETATM    6  C   UNL     1      40.911 -12.415   2.329  1.00  0.00     0.028 C 
HETATM    7  C   UNL     1      40.260 -12.182   3.686  1.00  0.00     0.236 C 
ENDROOT
BRANCH   1   8
HETATM    8  C   UNL     1      40.664 -11.136   5.966  1.00  0.00     0.337 C 
BRANCH   8   9
HETATM    9  C   UNL     1      41.489  -9.979   6.530  1.00  0.00     0.243 C 
HETATM   10  N   UNL     1      42.171 -10.245   7.683  1.00  0.00    -0.355 N 
HETATM   11  H   UNL     1      42.212 -11.178   8.079  1.00  0.00     0.162 HD
HETATM   12  O   UNL     1      41.471  -8.891   5.956  1.00  0.00    -0.272 OA
BRANCH  10  13
HETATM   13  C   UNL     1      42.924  -9.220   8.381  1.00  0.00     0.169 C 
BRANCH  13  14
HETATM   14  C   UNL     1      42.786  -9.481   9.850  1.00  0.00     0.006 A 
HETATM   15  C   UNL     1      43.749  -9.864  10.775  1.00  0.00    -0.047 A 
HETATM   16  C   UNL     1      45.202 -10.079  10.502  1.00  0.00     0.049 C 
HETATM   17  C   UNL     1      43.173 -10.017  12.081  1.00  0.00     0.015 A 
HETATM   18  C   UNL     1      41.824  -9.757  12.105  1.00  0.00     0.051 A 
HETATM   19  S   UNL     1      41.232  -9.324  10.569  1.00  0.00    -0.104 SA
ENDBRANCH  13  14
ENDBRANCH  10  13
ENDBRANCH   8   9
ENDBRANCH   1   8
BRANCH   3  20
HETATM   20  C   UNL     1      42.224 -13.857   5.542  1.00  0.00     0.157 C 
BRANCH  20  21
HETATM   21  N   UNL     1      43.210 -14.900   5.320  1.00  0.00    -0.341 N 
HETATM   22  C   UNL     1      42.818 -16.109   4.772  1.00  0.00     0.320 C 
HETATM   23  N   UNL     1      43.887 -16.959   4.636  1.00  0.00    -0.309 N 
HETATM   24  O   UNL     1      41.642 -16.326   4.517  1.00  0.00    -0.247 OA
HETATM   25  H   UNL     1      44.773 -16.630   4.989  1.00  0.00     0.170 HD
HETATM   26  H   UNL     1      44.142 -14.606   5.059  1.00  0.00     0.164 HD
BRANCH  23  27
HETATM   27  C   UNL     1      43.879 -18.289   4.165  1.00  0.00     0.036 A 
HETATM   28  C   UNL     1      43.683 -18.643   2.829  1.00  0.00     0.029 A 
HETATM   29  C   UNL     1      43.675 -19.990   2.451  1.00  0.00     0.002 A 
HETATM   30  C   UNL     1      43.865 -20.990   3.401  1.00  0.00     0.000 A 
HETATM   31  C   UNL     1      44.067 -20.646   4.735  1.00  0.00     0.002 A 
HETATM   32  C   UNL     1      44.073 -19.301   5.115  1.00  0.00     0.029 A 
ENDBRANCH  23  27
ENDBRANCH  20  21
ENDBRANCH   3  20
TORSDOF 7
ENDMDL
MODEL 6
REMARK VINA RESULT:      -7.7      4.401      7.648
REMARK  7 active torsions:
REMARK  status: ('A' for Active; 'I' for Inactive)
REMARK    1  A    between atoms: C_3  and  C_4 
REMARK    2  A    between atoms: C_4  and  N_5 
REMARK       I    between atoms: N_5  and  C_6 
REMARK    3  A    between atoms: C_6  and  C_7 
REMARK    4  A    between atoms: C_7  and  N_8 
REMARK    5  A    between atoms: C_10  and  C_11 
REMARK    6  A    between atoms: C_11  and  N_12 
REMARK       I    between atoms: N_12  and  C_13 
REMARK       I    between atoms: C_13  and  N_14 
REMARK    7  A    between atoms: N_14  and  C_15 
ROOT
HETATM    1  N   UNL     1      42.525 -13.038   6.422  1.00  0.00    -0.057 N 
HETATM    2  H   UNL     1      42.160 -12.654   7.316  1.00  0.00     0.281 HD
HETATM    3  C   UNL     1      41.254 -13.309   5.605  1.00  0.00     0.206 C 
HETATM    4  C   UNL     1      40.404 -14.309   6.407  1.00  0.00     0.035 C 
HETATM    5  C   UNL     1      41.169 -15.583   6.754  1.00  0.00     0.004 C 
HETATM    6  C   UNL     1      42.454 -15.262   7.507  1.00  0.00     0.028 C 
HETATM    7  C   UNL     1      43.328 -14.256   6.771  1.00  0.00     0.236 C 
ENDROOT
BRANCH   1   8
HETATM    8  C   UNL     1      43.368 -11.866   5.910  1.00  0.00     0.337 C 
BRANCH   8   9
HETATM    9  C   UNL     1      44.448 -11.494   6.926  1.00  0.00     0.243 C 
HETATM   10  N   UNL     1      43.997 -10.965   8.102  1.00  0.00    -0.355 N 
HETATM   11  H   UNL     1      43.010 -10.922   8.327  1.00  0.00     0.162 HD
HETATM   12  O   UNL     1      45.632 -11.651   6.630  1.00  0.00    -0.272 OA
BRANCH  10  13
HETATM   13  C   UNL     1      44.908 -10.485   9.124  1.00  0.00     0.169 C 
BRANCH  13  14
HETATM   14  C   UNL     1      44.092  -9.760  10.150  1.00  0.00     0.006 A 
HETATM   15  C   UNL     1      43.638  -8.448  10.153  1.00  0.00    -0.047 A 
HETATM   16  C   UNL     1      43.848  -7.436   9.073  1.00  0.00     0.049 C 
HETATM   17  C   UNL     1      42.895  -8.164  11.349  1.00  0.00     0.015 A 
HETATM   18  C   UNL     1      42.816  -9.242  12.198  1.00  0.00     0.051 A 
HETATM   19  S   UNL     1      43.623 -10.605  11.573  1.00  0.00    -0.104 SA
ENDBRANCH  13  14
ENDBRANCH  10  13
ENDBRANCH   8   9
ENDBRANCH   1   8
BRANCH   3  20
HETATM   20  C   UNL     1      41.575 -13.799   4.158  1.00  0.00     0.157 C 
BRANCH  20  21
HETATM   21  N   UNL     1      42.646 -14.775   4.069  1.00  0.00    -0.341 N 
HETATM   22  C   UNL     1      42.354 -16.085   3.730  1.00  0.00     0.320 C 
HETATM   23  N   UNL     1      43.492 -16.851   3.693  1.00  0.00    -0.309 N 
HETATM   24  O   UNL     1      41.197 -16.440   3.552  1.00  0.00    -0.247 OA
HETATM   25  H   UNL     1      44.352 -16.394   3.960  1.00  0.00     0.170 HD
HETATM   26  H   UNL     1      43.543 -14.447   3.734  1.00  0.00     0.164 HD
BRANCH  23  27
HETATM   27  C   UNL     1      43.596 -18.234   3.437  1.00  0.00     0.036 A 
HETATM   28  C   UNL     1      43.229 -18.834   2.231  1.00  0.00     0.029 A 
HETATM   29  C   UNL     1      43.349 -20.219   2.066  1.00  0.00     0.002 A 
HETATM   30  C   UNL     1      43.838 -21.011   3.102  1.00  0.00     0.000 A 
HETATM   31  C   UNL     1      44.212 -20.420   4.306  1.00  0.00     0.002 A 
HETATM   32  C   UNL     1      44.091 -19.038   4.472  1.00  0.00     0.029 A 
ENDBRANCH  23  27
ENDBRANCH  20  21
ENDBRANCH   3  20
TORSDOF 7
ENDMDL
MODEL 7
REMARK VINA RESULT:      -7.7      3.004      6.691
REMARK  7 active torsions:
REMARK  status: ('A' for Active; 'I' for Inactive)
REMARK    1  A    between atoms: C_3  and  C_4 
REMARK    2  A    between atoms: C_4  and  N_5 
REMARK       I    between atoms: N_5  and  C_6 
REMARK    3  A    between atoms: C_6  and  C_7 
REMARK    4  A    between atoms: C_7  and  N_8 
REMARK    5  A    between atoms: C_10  and  C_11 
REMARK    6  A    between atoms: C_11  and  N_12 
REMARK       I    between atoms: N_12  and  C_13 
REMARK       I    between atoms: C_13  and  N_14 
REMARK    7  A    between atoms: N_14  and  C_15 
ROOT
HETATM    1  N   UNL     1      42.392 -11.649   6.632  1.00  0.00    -0.057 N 
HETATM    2  H   UNL     1      42.266 -12.332   7.404  1.00  0.00     0.281 HD
HETATM    3  C   UNL     1      43.451 -12.311   5.740  1.00  0.00     0.206 C 
HETATM    4  C   UNL     1      44.709 -12.508   6.602  1.00  0.00     0.035 C 
HETATM    5  C   UNL     1      45.196 -11.208   7.236  1.00  0.00     0.004 C 
HETATM    6  C   UNL     1      44.093 -10.554   8.058  1.00  0.00     0.028 C 
HETATM    7  C   UNL     1      42.810 -10.353   7.263  1.00  0.00     0.236 C 
ENDROOT
BRANCH   1   8
HETATM    8  C   UNL     1      40.985 -11.616   6.025  1.00  0.00     0.337 C 
BRANCH   8   9
HETATM    9  C   UNL     1      40.527 -13.025   5.650  1.00  0.00     0.243 C 
HETATM   10  N   UNL     1      40.716 -13.983   6.606  1.00  0.00    -0.355 N 
HETATM   11  H   UNL     1      41.039 -13.752   7.539  1.00  0.00     0.162 HD
HETATM   12  O   UNL     1      40.059 -13.228   4.530  1.00  0.00    -0.272 OA
BRANCH  10  13
HETATM   13  C   UNL     1      40.411 -15.380   6.360  1.00  0.00     0.169 C 
BRANCH  13  14
HETATM   14  C   UNL     1      41.684 -16.051   5.940  1.00  0.00     0.006 A 
HETATM   15  C   UNL     1      42.078 -16.491   4.684  1.00  0.00    -0.047 A 
HETATM   16  C   UNL     1      41.299 -16.359   3.415  1.00  0.00     0.049 C 
HETATM   17  C   UNL     1      43.381 -17.092   4.736  1.00  0.00     0.015 A 
HETATM   18  C   UNL     1      43.918 -17.095   6.001  1.00  0.00     0.051 A 
HETATM   19  S   UNL     1      42.875 -16.375   7.137  1.00  0.00    -0.104 SA
ENDBRANCH  13  14
ENDBRANCH  10  13
ENDBRANCH   8   9
ENDBRANCH   1   8
BRANCH   3  20
HETATM   20  C   UNL     1      43.721 -11.494   4.438  1.00  0.00     0.157 C 
BRANCH  20  21
HETATM   21  N   UNL     1      42.590 -11.397   3.532  1.00  0.00    -0.341 N 
HETATM   22  C   UNL     1      42.417 -12.353   2.546  1.00  0.00     0.320 C 
HETATM   23  N   UNL     1      41.295 -12.093   1.799  1.00  0.00    -0.309 N 
HETATM   24  O   UNL     1      43.234 -13.251   2.398  1.00  0.00    -0.247 OA
HETATM   25  H   UNL     1      40.793 -11.246   2.019  1.00  0.00     0.170 HD
HETATM   26  H   UNL     1      41.727 -11.025   3.910  1.00  0.00     0.164 HD
BRANCH  23  27
HETATM   27  C   UNL     1      40.818 -12.808   0.681  1.00  0.00     0.036 A 
HETATM   28  C   UNL     1      40.247 -14.079   0.752  1.00  0.00     0.029 A 
HETATM   29  C   UNL     1      39.813 -14.724  -0.412  1.00  0.00     0.002 A 
HETATM   30  C   UNL     1      39.944 -14.103  -1.652  1.00  0.00     0.000 A 
HETATM   31  C   UNL     1      40.507 -12.833  -1.731  1.00  0.00     0.002 A 
HETATM   32  C   UNL     1      40.942 -12.189  -0.571  1.00  0.00     0.029 A 
ENDBRANCH  23  27
ENDBRANCH  20  21
ENDBRANCH   3  20
TORSDOF 7
ENDMDL
MODEL 8
REMARK VINA RESULT:      -7.6      2.087      5.774
REMARK  7 active torsions:
REMARK  status: ('A' for Active; 'I' for Inactive)
REMARK    1  A    between atoms: C_3  and  C_4 
REMARK    2  A    between atoms: C_4  and  N_5 
REMARK       I    between atoms: N_5  and  C_6 
REMARK    3  A    between atoms: C_6  and  C_7 
REMARK    4  A    between atoms: C_7  and  N_8 
REMARK    5  A    between atoms: C_10  and  C_11 
REMARK    6  A    between atoms: C_11  and  N_12 
REMARK       I    between atoms: N_12  and  C_13 
REMARK       I    between atoms: C_13  and  N_14 
REMARK    7  A    between atoms: N_14  and  C_15 
ROOT
HETATM    1  N   UNL     1      39.066 -12.268  -1.200  1.00  0.00    -0.057 N 
HETATM    2  H   UNL     1      39.297 -11.580  -1.943  1.00  0.00     0.281 HD
HETATM    3  C   UNL     1      40.239 -13.256  -1.252  1.00  0.00     0.206 C 
HETATM    4  C   UNL     1      40.262 -13.859  -2.666  1.00  0.00     0.035 C 
HETATM    5  C   UNL     1      38.931 -14.497  -3.054  1.00  0.00     0.004 C 
HETATM    6  C   UNL     1      37.787 -13.498  -2.926  1.00  0.00     0.028 C 
HETATM    7  C   UNL     1      37.728 -12.850  -1.550  1.00  0.00     0.236 C 
ENDROOT
BRANCH   1   8
HETATM    8  C   UNL     1      39.047 -11.375   0.045  1.00  0.00     0.337 C 
BRANCH   8   9
HETATM    9  C   UNL     1      40.465 -11.155   0.572  1.00  0.00     0.243 C 
HETATM   10  N   UNL     1      40.712 -11.638   1.825  1.00  0.00    -0.355 N 
HETATM   11  H   UNL     1      40.032 -12.197   2.328  1.00  0.00     0.162 HD
HETATM   12  O   UNL     1      41.276 -10.543  -0.122  1.00  0.00    -0.272 OA
BRANCH  10  13
HETATM   13  C   UNL     1      41.984 -11.425   2.490  1.00  0.00     0.169 C 
BRANCH  13  14
HETATM   14  C   UNL     1      41.932 -12.147   3.802  1.00  0.00     0.006 A 
HETATM   15  C   UNL     1      42.882 -12.214   4.813  1.00  0.00    -0.047 A 
HETATM   16  C   UNL     1      44.210 -11.528   4.827  1.00  0.00     0.049 C 
HETATM   17  C   UNL     1      42.420 -13.033   5.898  1.00  0.00     0.015 A 
HETATM   18  C   UNL     1      41.166 -13.553   5.680  1.00  0.00     0.051 A 
HETATM   19  S   UNL     1      40.528 -13.065   4.179  1.00  0.00    -0.104 SA
ENDBRANCH  13  14
ENDBRANCH  10  13
ENDBRANCH   8   9
ENDBRANCH   1   8
BRANCH   3  20
HETATM   20  C   UNL     1      40.152 -14.336  -0.127  1.00  0.00     0.157 C 
BRANCH  20  21
HETATM   21  N   UNL     1      41.432 -14.755   0.416  1.00  0.00    -0.341 N 
HETATM   22  C   UNL     1      41.469 -15.617   1.498  1.00  0.00     0.320 C 
HETATM   23  N   UNL     1      42.763 -15.899   1.861  1.00  0.00    -0.309 N 
HETATM   24  O   UNL     1      40.435 -15.992   2.032  1.00  0.00    -0.247 OA
HETATM   25  H   UNL     1      43.489 -15.419   1.350  1.00  0.00     0.170 HD
HETATM   26  H   UNL     1      42.195 -14.873  -0.239  1.00  0.00     0.164 HD
BRANCH  23  27
HETATM   27  C   UNL     1      43.204 -16.693   2.939  1.00  0.00     0.036 A 
HETATM   28  C   UNL     1      43.383 -16.216   4.239  1.00  0.00     0.029 A 
HETATM   29  C   UNL     1      43.841 -17.071   5.248  1.00  0.00     0.002 A 
HETATM   30  C   UNL     1      44.120 -18.406   4.966  1.00  0.00     0.000 A 
HETATM   31  C   UNL     1      43.939 -18.892   3.674  1.00  0.00     0.002 A 
HETATM   32  C   UNL     1      43.484 -18.039   2.666  1.00  0.00     0.029 A 
ENDBRANCH  23  27
ENDBRANCH  20  21
ENDBRANCH   3  20
TORSDOF 7
ENDMDL
MODEL 9
REMARK VINA RESULT:      -7.5      3.671      5.676
REMARK  7 active torsions:
REMARK  status: ('A' for Active; 'I' for Inactive)
REMARK    1  A    between atoms: C_3  and  C_4 
REMARK    2  A    between atoms: C_4  and  N_5 
REMARK       I    between atoms: N_5  and  C_6 
REMARK    3  A    between atoms: C_6  and  C_7 
REMARK    4  A    between atoms: C_7  and  N_8 
REMARK    5  A    between atoms: C_10  and  C_11 
REMARK    6  A    between atoms: C_11  and  N_12 
REMARK       I    between atoms: N_12  and  C_13 
REMARK       I    between atoms: C_13  and  N_14 
REMARK    7  A    between atoms: N_14  and  C_15 
ROOT
HETATM    1  N   UNL     1      39.181 -12.155  -1.206  1.00  0.00    -0.057 N 
HETATM    2  H   UNL     1      39.418 -11.514  -1.988  1.00  0.00     0.281 HD
HETATM    3  C   UNL     1      40.306 -13.199  -1.249  1.00  0.00     0.206 C 
HETATM    4  C   UNL     1      40.252 -13.866  -2.634  1.00  0.00     0.035 C 
HETATM    5  C   UNL     1      38.880 -14.458  -2.947  1.00  0.00     0.004 C 
HETATM    6  C   UNL     1      37.788 -13.402  -2.829  1.00  0.00     0.028 C 
HETATM    7  C   UNL     1      37.807 -12.689  -1.484  1.00  0.00     0.236 C 
ENDROOT
BRANCH   1   8
HETATM    8  C   UNL     1      39.246 -11.206  -0.005  1.00  0.00     0.337 C 
BRANCH   8   9
HETATM    9  C   UNL     1      40.611 -10.522   0.068  1.00  0.00     0.243 C 
HETATM   10  N   UNL     1      40.822  -9.522  -0.839  1.00  0.00    -0.355 N 
HETATM   11  H   UNL     1      40.084  -9.185  -1.446  1.00  0.00     0.162 HD
HETATM   12  O   UNL     1      41.439 -10.918   0.888  1.00  0.00    -0.272 OA
BRANCH  10  13
HETATM   13  C   UNL     1      42.100  -8.843  -0.947  1.00  0.00     0.169 C 
BRANCH  13  14
HETATM   14  C   UNL     1      42.130  -8.150  -2.274  1.00  0.00     0.006 A 
HETATM   15  C   UNL     1      42.891  -7.063  -2.687  1.00  0.00    -0.047 A 
HETATM   16  C   UNL     1      43.911  -6.336  -1.873  1.00  0.00     0.049 C 
HETATM   17  C   UNL     1      42.591  -6.715  -4.048  1.00  0.00     0.015 A 
HETATM   18  C   UNL     1      41.631  -7.524  -4.608  1.00  0.00     0.051 A 
HETATM   19  S   UNL     1      41.083  -8.711  -3.517  1.00  0.00    -0.104 SA
ENDBRANCH  13  14
ENDBRANCH  10  13
ENDBRANCH   8   9
ENDBRANCH   1   8
BRANCH   3  20
HETATM   20  C   UNL     1      40.209 -14.220  -0.073  1.00  0.00     0.157 C 
BRANCH  20  21
HETATM   21  N   UNL     1      41.485 -14.734   0.395  1.00  0.00    -0.341 N 
HETATM   22  C   UNL     1      41.517 -15.648   1.435  1.00  0.00     0.320 C 
HETATM   23  N   UNL     1      42.806 -16.016   1.728  1.00  0.00    -0.309 N 
HETATM   24  O   UNL     1      40.486 -15.990   1.995  1.00  0.00    -0.247 OA
HETATM   25  H   UNL     1      43.537 -15.553   1.209  1.00  0.00     0.170 HD
HETATM   26  H   UNL     1      42.212 -14.863  -0.297  1.00  0.00     0.164 HD
BRANCH  23  27
HETATM   27  C   UNL     1      43.245 -16.883   2.749  1.00  0.00     0.036 A 
HETATM   28  C   UNL     1      43.509 -18.241   2.562  1.00  0.00     0.029 A 
HETATM   29  C   UNL     1      43.927 -19.035   3.636  1.00  0.00     0.002 A 
HETATM   30  C   UNL     1      44.087 -18.477   4.902  1.00  0.00     0.000 A 
HETATM   31  C   UNL     1      43.833 -17.122   5.098  1.00  0.00     0.002 A 
HETATM   32  C   UNL     1      43.413 -16.330   4.026  1.00  0.00     0.029 A 
ENDBRANCH  23  27
ENDBRANCH  20  21
ENDBRANCH   3  20
TORSDOF 7
ENDMDL
MODEL 10
REMARK VINA RESULT:      -7.5      1.259      1.889
REMARK  7 active torsions:
REMARK  status: ('A' for Active; 'I' for Inactive)
REMARK    1  A    between atoms: C_3  and  C_4 
REMARK    2  A    between atoms: C_4  and  N_5 
REMARK       I    between atoms: N_5  and  C_6 
REMARK    3  A    between atoms: C_6  and  C_7 
REMARK    4  A    between atoms: C_7  and  N_8 
REMARK    5  A    between atoms: C_10  and  C_11 
REMARK    6  A    between atoms: C_11  and  N_12 
REMARK       I    between atoms: N_12  and  C_13 
REMARK       I    between atoms: C_13  and  N_14 
REMARK    7  A    between atoms: N_14  and  C_15 
ROOT
HETATM    1  N   UNL     1      41.049 -11.635   3.500  1.00  0.00    -0.057 N 
HETATM    2  H   UNL     1      40.167 -11.399   3.004  1.00  0.00     0.281 HD
HETATM    3  C   UNL     1      40.744 -12.996   4.141  1.00  0.00     0.206 C 
HETATM    4  C   UNL     1      39.543 -12.795   5.079  1.00  0.00     0.035 C 
HETATM    5  C   UNL     1      39.780 -11.695   6.109  1.00  0.00     0.004 C 
HETATM    6  C   UNL     1      40.142 -10.379   5.430  1.00  0.00     0.028 C 
HETATM    7  C   UNL     1      41.314 -10.521   4.469  1.00  0.00     0.236 C 
ENDROOT
BRANCH   1   8
HETATM    8  C   UNL     1      42.044 -11.693   2.336  1.00  0.00     0.337 C 
BRANCH   8   9
HETATM    9  C   UNL     1      41.454 -11.032   1.090  1.00  0.00     0.243 C 
HETATM   10  N   UNL     1      40.360 -11.649   0.553  1.00  0.00    -0.355 N 
HETATM   11  H   UNL     1      39.907 -12.430   1.012  1.00  0.00     0.162 HD
HETATM   12  O   UNL     1      41.998 -10.030   0.627  1.00  0.00    -0.272 OA
BRANCH  10  13
HETATM   13  C   UNL     1      39.748 -11.186  -0.678  1.00  0.00     0.169 C 
BRANCH  13  14
HETATM   14  C   UNL     1      39.211 -12.389  -1.393  1.00  0.00     0.006 A 
HETATM   15  C   UNL     1      38.079 -12.513  -2.188  1.00  0.00    -0.047 A 
HETATM   16  C   UNL     1      37.124 -11.420  -2.545  1.00  0.00     0.049 C 
HETATM   17  C   UNL     1      37.934 -13.859  -2.667  1.00  0.00     0.015 A 
HETATM   18  C   UNL     1      38.931 -14.695  -2.226  1.00  0.00     0.051 A 
HETATM   19  S   UNL     1      40.055 -13.879  -1.240  1.00  0.00    -0.104 SA
ENDBRANCH  13  14
ENDBRANCH  10  13
ENDBRANCH   8   9
ENDBRANCH   1   8
BRANCH   3  20
HETATM   20  C   UNL     1      41.989 -13.603   4.860  1.00  0.00     0.157 C 
BRANCH  20  21
HETATM   21  N   UNL     1      42.755 -14.545   4.063  1.00  0.00    -0.341 N 
HETATM   22  C   UNL     1      42.562 -15.905   4.236  1.00  0.00     0.320 C 
HETATM   23  N   UNL     1      43.369 -16.629   3.393  1.00  0.00    -0.309 N 
HETATM   24  O   UNL     1      41.789 -16.322   5.086  1.00  0.00    -0.247 OA
HETATM   25  H   UNL     1      44.011 -16.101   2.821  1.00  0.00     0.170 HD
HETATM   26  H   UNL     1      42.979 -14.272   3.114  1.00  0.00     0.164 HD
BRANCH  23  27
HETATM   27  C   UNL     1      43.494 -18.031   3.310  1.00  0.00     0.036 A 
HETATM   28  C   UNL     1      43.091 -18.787   2.207  1.00  0.00     0.029 A 
HETATM   29  C   UNL     1      43.237 -20.178   2.214  1.00  0.00     0.002 A 
HETATM   30  C   UNL     1      43.788 -20.823   3.319  1.00  0.00     0.000 A 
HETATM   31  C   UNL     1      44.198 -20.077   4.421  1.00  0.00     0.002 A 
HETATM   32  C   UNL     1      44.051 -18.688   4.416  1.00  0.00     0.029 A 
ENDBRANCH  23  27
ENDBRANCH  20  21
ENDBRANCH   3  20
TORSDOF 7
ENDMDL
