MODEL 1
REMARK VINA RESULT:      -8.2      0.000      0.000
REMARK  10 active torsions:
REMARK  status: ('A' for Active; 'I' for Inactive)
REMARK    1  A    between atoms: C_2  and  O_3 
REMARK    2  A    between atoms: O_3  and  C_4 
REMARK    3  A    between atoms: C_4  and  O_5 
REMARK    4  A    between atoms: C_4  and  C_8 
REMARK    5  A    between atoms: C_4  and  C_14 
REMARK    6  A    between atoms: O_5  and  C_6 
REMARK    7  A    between atoms: C_14  and  N_15 
REMARK       I    between atoms: N_15  and  C_16 
REMARK    8  A    between atoms: C_16  and  C_17 
REMARK    9  A    between atoms: C_19  and  N_20 
REMARK       I    between atoms: N_20  and  C_21 
REMARK   10  A    between atoms: C_21  and  C_22 
ROOT
HETATM    1  N   UNL     1      43.340 -13.194   5.009  1.00  0.00    -0.351 N 
HETATM    2  C   UNL     1      43.834 -11.910   4.941  1.00  0.00     0.251 C 
HETATM    3  O   UNL     1      43.817 -11.229   3.925  1.00  0.00    -0.268 OA
HETATM    4  H   UNL     1      43.184 -13.617   5.918  1.00  0.00     0.162 HD
ENDROOT
BRANCH   2   5
HETATM    5  C   UNL     1      44.388 -11.370   6.211  1.00  0.00     0.034 A 
HETATM    6  C   UNL     1      43.536 -11.022   7.270  1.00  0.00     0.046 A 
HETATM    7  C   UNL     1      44.051 -10.496   8.455  1.00  0.00     0.035 A 
HETATM    8  C   UNL     1      45.437 -10.344   8.578  1.00  0.00     0.029 A 
HETATM    9  C   UNL     1      46.293 -10.719   7.538  1.00  0.00     0.003 A 
HETATM   10  C   UNL     1      45.770 -11.236   6.353  1.00  0.00     0.017 A 
BRANCH   7  11
HETATM   11  N   UNL     1      43.249 -10.094   9.543  1.00  0.00    -0.322 N 
HETATM   12  C   UNL     1      43.343 -10.495  10.868  1.00  0.00     0.263 C 
HETATM   13  O   UNL     1      44.210 -11.250  11.302  1.00  0.00    -0.267 OA
HETATM   14  H   UNL     1      42.503  -9.440   9.340  1.00  0.00     0.169 HD
BRANCH  12  15
HETATM   15  C   UNL     1      42.316  -9.946  11.754  1.00  0.00     0.072 A 
HETATM   16  S   UNL     1      40.758  -9.494  11.198  1.00  0.00    -0.097 SA
HETATM   17  C   UNL     1      40.255  -9.032  12.765  1.00  0.00     0.050 A 
HETATM   18  C   UNL     1      41.250  -9.207  13.699  1.00  0.00     0.009 A 
HETATM   19  C   UNL     1      42.437  -9.735  13.116  1.00  0.00     0.025 A 
ENDBRANCH  12  15
ENDBRANCH   7  11
ENDBRANCH   2   5
BRANCH   1  20
HETATM   20  C   UNL     1      42.834 -13.883   3.826  1.00  0.00     0.198 C 
BRANCH  20  21
HETATM   21  C   UNL     1      41.942 -15.148   4.085  1.00  0.00     0.227 C 
BRANCH  21  22
HETATM   22  O   UNL     1      40.692 -15.106   3.368  1.00  0.00    -0.349 OA
BRANCH  22  23
HETATM   23  C   UNL     1      40.561 -14.106   2.364  1.00  0.00     0.167 C 
HETATM   24  C   UNL     1      40.185 -14.789   1.063  1.00  0.00     0.033 C 
ENDBRANCH  22  23
ENDBRANCH  21  22
BRANCH  21  25
HETATM   25  O   UNL     1      41.650 -15.220   5.506  1.00  0.00    -0.349 OA
BRANCH  25  26
HETATM   26  C   UNL     1      40.276 -15.055   5.840  1.00  0.00     0.167 C 
HETATM   27  C   UNL     1      40.078 -13.627   6.311  1.00  0.00     0.033 C 
ENDBRANCH  25  26
ENDBRANCH  21  25
BRANCH  21  28
HETATM   28  C   UNL     1      42.720 -16.463   3.815  1.00  0.00     0.097 A 
HETATM   29  N   UNL     1      43.546 -16.954   4.784  1.00  0.00    -0.260 NA
HETATM   30  C   UNL     1      44.240 -18.082   4.526  1.00  0.00     0.117 A 
HETATM   31  C   UNL     1      44.142 -18.789   3.342  1.00  0.00     0.019 A 
HETATM   32  C   UNL     1      43.295 -18.302   2.358  1.00  0.00     0.004 A 
HETATM   33  C   UNL     1      42.586 -17.124   2.588  1.00  0.00     0.033 A 
ENDBRANCH  21  28
ENDBRANCH  20  21
ENDBRANCH   1  20
TORSDOF 10
ENDMDL
MODEL 2
REMARK VINA RESULT:      -8.2      1.524      1.965
REMARK  10 active torsions:
REMARK  status: ('A' for Active; 'I' for Inactive)
REMARK    1  A    between atoms: C_2  and  O_3 
REMARK    2  A    between atoms: O_3  and  C_4 
REMARK    3  A    between atoms: C_4  and  O_5 
REMARK    4  A    between atoms: C_4  and  C_8 
REMARK    5  A    between atoms: C_4  and  C_14 
REMARK    6  A    between atoms: O_5  and  C_6 
REMARK    7  A    between atoms: C_14  and  N_15 
REMARK       I    between atoms: N_15  and  C_16 
REMARK    8  A    between atoms: C_16  and  C_17 
REMARK    9  A    between atoms: C_19  and  N_20 
REMARK       I    between atoms: N_20  and  C_21 
REMARK   10  A    between atoms: C_21  and  C_22 
ROOT
HETATM    1  N   UNL     1      43.339 -12.833   5.090  1.00  0.00    -0.351 N 
HETATM    2  C   UNL     1      43.298 -11.486   5.372  1.00  0.00     0.251 C 
HETATM    3  O   UNL     1      42.611 -10.684   4.755  1.00  0.00    -0.268 OA
HETATM    4  H   UNL     1      43.748 -13.469   5.766  1.00  0.00     0.162 HD
ENDROOT
BRANCH   2   5
HETATM    5  C   UNL     1      44.143 -11.046   6.514  1.00  0.00     0.034 A 
HETATM    6  C   UNL     1      43.555 -10.551   7.687  1.00  0.00     0.046 A 
HETATM    7  C   UNL     1      44.345 -10.118   8.752  1.00  0.00     0.035 A 
HETATM    8  C   UNL     1      45.738 -10.210   8.638  1.00  0.00     0.029 A 
HETATM    9  C   UNL     1      46.328 -10.731   7.483  1.00  0.00     0.003 A 
HETATM   10  C   UNL     1      45.531 -11.154   6.420  1.00  0.00     0.017 A 
BRANCH   7  11
HETATM   11  N   UNL     1      43.820  -9.580   9.944  1.00  0.00    -0.322 N 
HETATM   12  C   UNL     1      43.590 -10.231  11.148  1.00  0.00     0.263 C 
HETATM   13  O   UNL     1      43.874 -11.406  11.363  1.00  0.00    -0.267 OA
HETATM   14  H   UNL     1      43.566  -8.600   9.927  1.00  0.00     0.169 HD
BRANCH  12  15
HETATM   15  C   UNL     1      42.971  -9.408  12.187  1.00  0.00     0.072 A 
HETATM   16  S   UNL     1      41.508  -9.847  12.968  1.00  0.00    -0.097 SA
HETATM   17  C   UNL     1      41.539  -8.457  13.963  1.00  0.00     0.050 A 
HETATM   18  C   UNL     1      42.633  -7.663  13.708  1.00  0.00     0.009 A 
HETATM   19  C   UNL     1      43.458  -8.212  12.685  1.00  0.00     0.025 A 
ENDBRANCH  12  15
ENDBRANCH   7  11
ENDBRANCH   2   5
BRANCH   1  20
HETATM   20  C   UNL     1      42.621 -13.399   3.952  1.00  0.00     0.198 C 
BRANCH  20  21
HETATM   21  C   UNL     1      41.802 -14.710   4.226  1.00  0.00     0.227 C 
BRANCH  21  22
HETATM   22  O   UNL     1      41.588 -15.493   3.035  1.00  0.00    -0.349 OA
BRANCH  22  23
HETATM   23  C   UNL     1      42.205 -15.028   1.841  1.00  0.00     0.167 C 
HETATM   24  C   UNL     1      43.289 -16.017   1.452  1.00  0.00     0.033 C 
ENDBRANCH  22  23
ENDBRANCH  21  22
BRANCH  21  25
HETATM   25  O   UNL     1      40.506 -14.336   4.765  1.00  0.00    -0.349 OA
BRANCH  25  26
HETATM   26  C   UNL     1      39.998 -13.096   4.286  1.00  0.00     0.167 C 
HETATM   27  C   UNL     1      39.419 -12.342   5.468  1.00  0.00     0.033 C 
ENDBRANCH  25  26
ENDBRANCH  21  25
BRANCH  21  28
HETATM   28  C   UNL     1      42.433 -15.552   5.367  1.00  0.00     0.097 A 
HETATM   29  N   UNL     1      42.307 -15.120   6.654  1.00  0.00    -0.260 NA
HETATM   30  C   UNL     1      42.885 -15.845   7.635  1.00  0.00     0.117 A 
HETATM   31  C   UNL     1      43.578 -17.021   7.413  1.00  0.00     0.019 A 
HETATM   32  C   UNL     1      43.699 -17.471   6.107  1.00  0.00     0.004 A 
HETATM   33  C   UNL     1      43.133 -16.728   5.072  1.00  0.00     0.033 A 
ENDBRANCH  21  28
ENDBRANCH  20  21
ENDBRANCH   1  20
TORSDOF 10
ENDMDL
MODEL 3
REMARK VINA RESULT:      -8.1      1.062      1.082
REMARK  10 active torsions:
REMARK  status: ('A' for Active; 'I' for Inactive)
REMARK    1  A    between atoms: C_2  and  O_3 
REMARK    2  A    between atoms: O_3  and  C_4 
REMARK    3  A    between atoms: C_4  and  O_5 
REMARK    4  A    between atoms: C_4  and  C_8 
REMARK    5  A    between atoms: C_4  and  C_14 
REMARK    6  A    between atoms: O_5  and  C_6 
REMARK    7  A    between atoms: C_14  and  N_15 
REMARK       I    between atoms: N_15  and  C_16 
REMARK    8  A    between atoms: C_16  and  C_17 
REMARK    9  A    between atoms: C_19  and  N_20 
REMARK       I    between atoms: N_20  and  C_21 
REMARK   10  A    between atoms: C_21  and  C_22 
ROOT
HETATM    1  N   UNL     1      43.468 -13.146   4.508  1.00  0.00    -0.351 N 
HETATM    2  C   UNL     1      43.459 -11.795   4.775  1.00  0.00     0.251 C 
HETATM    3  O   UNL     1      42.913 -10.965   4.061  1.00  0.00    -0.268 OA
HETATM    4  H   UNL     1      43.740 -13.794   5.239  1.00  0.00     0.162 HD
ENDROOT
BRANCH   2   5
HETATM    5  C   UNL     1      44.153 -11.386   6.026  1.00  0.00     0.034 A 
HETATM    6  C   UNL     1      43.428 -11.187   7.211  1.00  0.00     0.046 A 
HETATM    7  C   UNL     1      44.072 -10.784   8.380  1.00  0.00     0.035 A 
HETATM    8  C   UNL     1      45.461 -10.605   8.356  1.00  0.00     0.029 A 
HETATM    9  C   UNL     1      46.192 -10.832   7.186  1.00  0.00     0.003 A 
HETATM   10  C   UNL     1      45.539 -11.227   6.019  1.00  0.00     0.017 A 
BRANCH   7  11
HETATM   11  N   UNL     1      43.401 -10.534   9.594  1.00  0.00    -0.322 N 
HETATM   12  C   UNL     1      42.601  -9.448   9.921  1.00  0.00     0.263 C 
HETATM   13  O   UNL     1      42.316  -8.541   9.143  1.00  0.00    -0.267 OA
HETATM   14  H   UNL     1      43.519 -11.221  10.328  1.00  0.00     0.169 HD
BRANCH  12  15
HETATM   15  C   UNL     1      42.095  -9.444  11.293  1.00  0.00     0.072 A 
HETATM   16  S   UNL     1      40.443  -9.705  11.674  1.00  0.00    -0.097 SA
HETATM   17  C   UNL     1      40.736  -9.574  13.353  1.00  0.00     0.050 A 
HETATM   18  C   UNL     1      42.061  -9.329  13.629  1.00  0.00     0.009 A 
HETATM   19  C   UNL     1      42.844  -9.254  12.442  1.00  0.00     0.025 A 
ENDBRANCH  12  15
ENDBRANCH   7  11
ENDBRANCH   2   5
BRANCH   1  20
HETATM   20  C   UNL     1      42.893 -13.686   3.280  1.00  0.00     0.198 C 
BRANCH  20  21
HETATM   21  C   UNL     1      41.977 -14.952   3.438  1.00  0.00     0.227 C 
BRANCH  21  22
HETATM   22  O   UNL     1      41.074 -15.128   2.328  1.00  0.00    -0.349 OA
BRANCH  22  23
HETATM   23  C   UNL     1      41.347 -14.376   1.151  1.00  0.00     0.167 C 
HETATM   24  C   UNL     1      40.203 -14.589   0.177  1.00  0.00     0.033 C 
ENDBRANCH  22  23
ENDBRANCH  21  22
BRANCH  21  25
HETATM   25  O   UNL     1      41.188 -14.798   4.647  1.00  0.00    -0.349 OA
BRANCH  25  26
HETATM   26  C   UNL     1      40.211 -13.765   4.593  1.00  0.00     0.167 C 
HETATM   27  C   UNL     1      40.141 -13.117   5.963  1.00  0.00     0.033 C 
ENDBRANCH  25  26
ENDBRANCH  21  25
BRANCH  21  28
HETATM   28  C   UNL     1      42.810 -16.231   3.715  1.00  0.00     0.097 A 
HETATM   29  N   UNL     1      43.355 -16.409   4.953  1.00  0.00    -0.260 NA
HETATM   30  C   UNL     1      44.102 -17.512   5.173  1.00  0.00     0.117 A 
HETATM   31  C   UNL     1      44.325 -18.490   4.222  1.00  0.00     0.019 A 
HETATM   32  C   UNL     1      43.763 -18.320   2.966  1.00  0.00     0.004 A 
HETATM   33  C   UNL     1      43.008 -17.178   2.703  1.00  0.00     0.033 A 
ENDBRANCH  21  28
ENDBRANCH  20  21
ENDBRANCH   1  20
TORSDOF 10
ENDMDL
MODEL 4
REMARK VINA RESULT:      -7.7      5.200      9.276
REMARK  10 active torsions:
REMARK  status: ('A' for Active; 'I' for Inactive)
REMARK    1  A    between atoms: C_2  and  O_3 
REMARK    2  A    between atoms: O_3  and  C_4 
REMARK    3  A    between atoms: C_4  and  O_5 
REMARK    4  A    between atoms: C_4  and  C_8 
REMARK    5  A    between atoms: C_4  and  C_14 
REMARK    6  A    between atoms: O_5  and  C_6 
REMARK    7  A    between atoms: C_14  and  N_15 
REMARK       I    between atoms: N_15  and  C_16 
REMARK    8  A    between atoms: C_16  and  C_17 
REMARK    9  A    between atoms: C_19  and  N_20 
REMARK       I    between atoms: N_20  and  C_21 
REMARK   10  A    between atoms: C_21  and  C_22 
ROOT
HETATM    1  N   UNL     1      40.407 -14.325   1.834  1.00  0.00    -0.351 N 
HETATM    2  C   UNL     1      39.970 -15.045   0.745  1.00  0.00     0.251 C 
HETATM    3  O   UNL     1      39.601 -16.210   0.805  1.00  0.00    -0.268 OA
HETATM    4  H   UNL     1      40.487 -13.316   1.761  1.00  0.00     0.162 HD
ENDROOT
BRANCH   2   5
HETATM    5  C   UNL     1      39.950 -14.306  -0.546  1.00  0.00     0.034 A 
HETATM    6  C   UNL     1      40.622 -13.082  -0.677  1.00  0.00     0.046 A 
HETATM    7  C   UNL     1      40.588 -12.376  -1.879  1.00  0.00     0.035 A 
HETATM    8  C   UNL     1      39.891 -12.925  -2.963  1.00  0.00     0.029 A 
HETATM    9  C   UNL     1      39.246 -14.160  -2.847  1.00  0.00     0.003 A 
HETATM   10  C   UNL     1      39.278 -14.855  -1.638  1.00  0.00     0.017 A 
BRANCH   7  11
HETATM   11  N   UNL     1      41.212 -11.126  -2.068  1.00  0.00    -0.322 N 
HETATM   12  C   UNL     1      40.635  -9.865  -2.013  1.00  0.00     0.263 C 
HETATM   13  O   UNL     1      39.458  -9.656  -1.730  1.00  0.00    -0.267 OA
HETATM   14  H   UNL     1      42.202 -11.140  -2.281  1.00  0.00     0.169 HD
BRANCH  12  15
HETATM   15  C   UNL     1      41.540  -8.758  -2.321  1.00  0.00     0.072 A 
HETATM   16  S   UNL     1      42.543  -8.023  -1.139  1.00  0.00    -0.097 SA
HETATM   17  C   UNL     1      43.221  -6.946  -2.281  1.00  0.00     0.050 A 
HETATM   18  C   UNL     1      42.695  -7.129  -3.539  1.00  0.00     0.009 A 
HETATM   19  C   UNL     1      41.727  -8.173  -3.562  1.00  0.00     0.025 A 
ENDBRANCH  12  15
ENDBRANCH   7  11
ENDBRANCH   2   5
BRANCH   1  20
HETATM   20  C   UNL     1      40.552 -14.939   3.150  1.00  0.00     0.198 C 
BRANCH  20  21
HETATM   21  C   UNL     1      41.997 -14.938   3.764  1.00  0.00     0.227 C 
BRANCH  21  22
HETATM   22  O   UNL     1      42.019 -14.498   5.137  1.00  0.00    -0.349 OA
BRANCH  22  23
HETATM   23  C   UNL     1      40.777 -14.498   5.832  1.00  0.00     0.167 C 
HETATM   24  C   UNL     1      40.718 -15.743   6.696  1.00  0.00     0.033 C 
ENDBRANCH  22  23
ENDBRANCH  21  22
BRANCH  21  25
HETATM   25  O   UNL     1      42.825 -14.037   2.984  1.00  0.00    -0.349 OA
BRANCH  25  26
HETATM   26  C   UNL     1      43.197 -12.838   3.655  1.00  0.00     0.167 C 
HETATM   27  C   UNL     1      42.733 -11.667   2.811  1.00  0.00     0.033 C 
ENDBRANCH  25  26
ENDBRANCH  21  25
BRANCH  21  28
HETATM   28  C   UNL     1      42.697 -16.311   3.585  1.00  0.00     0.097 A 
HETATM   29  N   UNL     1      42.420 -17.055   2.475  1.00  0.00    -0.260 NA
HETATM   30  C   UNL     1      43.013 -18.260   2.345  1.00  0.00     0.117 A 
HETATM   31  C   UNL     1      43.910 -18.777   3.262  1.00  0.00     0.019 A 
HETATM   32  C   UNL     1      44.204 -18.020   4.386  1.00  0.00     0.004 A 
HETATM   33  C   UNL     1      43.586 -16.782   4.558  1.00  0.00     0.033 A 
ENDBRANCH  21  28
ENDBRANCH  20  21
ENDBRANCH   1  20
TORSDOF 10
ENDMDL
MODEL 5
REMARK VINA RESULT:      -7.7      1.711      3.889
REMARK  10 active torsions:
REMARK  status: ('A' for Active; 'I' for Inactive)
REMARK    1  A    between atoms: C_2  and  O_3 
REMARK    2  A    between atoms: O_3  and  C_4 
REMARK    3  A    between atoms: C_4  and  O_5 
REMARK    4  A    between atoms: C_4  and  C_8 
REMARK    5  A    between atoms: C_4  and  C_14 
REMARK    6  A    between atoms: O_5  and  C_6 
REMARK    7  A    between atoms: C_14  and  N_15 
REMARK       I    between atoms: N_15  and  C_16 
REMARK    8  A    between atoms: C_16  and  C_17 
REMARK    9  A    between atoms: C_19  and  N_20 
REMARK       I    between atoms: N_20  and  C_21 
REMARK   10  A    between atoms: C_21  and  C_22 
ROOT
HETATM    1  N   UNL     1      43.220 -13.025   5.380  1.00  0.00    -0.351 N 
HETATM    2  C   UNL     1      43.983 -11.889   5.233  1.00  0.00     0.251 C 
HETATM    3  O   UNL     1      44.236 -11.375   4.152  1.00  0.00    -0.268 OA
HETATM    4  H   UNL     1      42.868 -13.270   6.299  1.00  0.00     0.162 HD
ENDROOT
BRANCH   2   5
HETATM    5  C   UNL     1      44.483 -11.286   6.497  1.00  0.00     0.034 A 
HETATM    6  C   UNL     1      43.595 -10.960   7.533  1.00  0.00     0.046 A 
HETATM    7  C   UNL     1      44.058 -10.376   8.712  1.00  0.00     0.035 A 
HETATM    8  C   UNL     1      45.432 -10.143   8.853  1.00  0.00     0.029 A 
HETATM    9  C   UNL     1      46.325 -10.495   7.837  1.00  0.00     0.003 A 
HETATM   10  C   UNL     1      45.852 -11.070   6.658  1.00  0.00     0.017 A 
BRANCH   7  11
HETATM   11  N   UNL     1      43.216  -9.994   9.776  1.00  0.00    -0.322 N 
HETATM   12  C   UNL     1      43.197 -10.489  11.072  1.00  0.00     0.263 C 
HETATM   13  O   UNL     1      43.982 -11.332  11.501  1.00  0.00    -0.267 OA
HETATM   14  H   UNL     1      42.529  -9.276   9.577  1.00  0.00     0.169 HD
BRANCH  12  15
HETATM   15  C   UNL     1      42.154  -9.931  11.932  1.00  0.00     0.072 A 
HETATM   16  S   UNL     1      40.560  -9.623  11.376  1.00  0.00    -0.097 SA
HETATM   17  C   UNL     1      40.058  -9.061  12.910  1.00  0.00     0.050 A 
HETATM   18  C   UNL     1      41.078  -9.095  13.832  1.00  0.00     0.009 A 
HETATM   19  C   UNL     1      42.285  -9.597  13.269  1.00  0.00     0.025 A 
ENDBRANCH  12  15
ENDBRANCH   7  11
ENDBRANCH   2   5
BRANCH   1  20
HETATM   20  C   UNL     1      42.724 -13.768   4.226  1.00  0.00     0.198 C 
BRANCH  20  21
HETATM   21  C   UNL     1      41.169 -13.764   4.011  1.00  0.00     0.227 C 
BRANCH  21  22
HETATM   22  O   UNL     1      40.535 -14.965   4.495  1.00  0.00    -0.349 OA
BRANCH  22  23
HETATM   23  C   UNL     1      41.373 -15.919   5.137  1.00  0.00     0.167 C 
HETATM   24  C   UNL     1      40.975 -15.992   6.599  1.00  0.00     0.033 C 
ENDBRANCH  22  23
ENDBRANCH  21  22
BRANCH  21  25
HETATM   25  O   UNL     1      40.904 -13.652   2.587  1.00  0.00    -0.349 OA
BRANCH  25  26
HETATM   26  C   UNL     1      39.794 -14.414   2.126  1.00  0.00     0.167 C 
HETATM   27  C   UNL     1      40.274 -15.297   0.990  1.00  0.00     0.033 C 
ENDBRANCH  25  26
ENDBRANCH  21  25
BRANCH  21  28
HETATM   28  C   UNL     1      40.512 -12.486   4.597  1.00  0.00     0.097 A 
HETATM   29  N   UNL     1      40.759 -11.284   4.003  1.00  0.00    -0.260 NA
HETATM   30  C   UNL     1      40.206 -10.176   4.539  1.00  0.00     0.117 A 
HETATM   31  C   UNL     1      39.377 -10.191   5.645  1.00  0.00     0.019 A 
HETATM   32  C   UNL     1      39.113 -11.413   6.246  1.00  0.00     0.004 A 
HETATM   33  C   UNL     1      39.691 -12.570   5.728  1.00  0.00     0.033 A 
ENDBRANCH  21  28
ENDBRANCH  20  21
ENDBRANCH   1  20
TORSDOF 10
ENDMDL
MODEL 6
REMARK VINA RESULT:      -7.6      1.666      3.004
REMARK  10 active torsions:
REMARK  status: ('A' for Active; 'I' for Inactive)
REMARK    1  A    between atoms: C_2  and  O_3 
REMARK    2  A    between atoms: O_3  and  C_4 
REMARK    3  A    between atoms: C_4  and  O_5 
REMARK    4  A    between atoms: C_4  and  C_8 
REMARK    5  A    between atoms: C_4  and  C_14 
REMARK    6  A    between atoms: O_5  and  C_6 
REMARK    7  A    between atoms: C_14  and  N_15 
REMARK       I    between atoms: N_15  and  C_16 
REMARK    8  A    between atoms: C_16  and  C_17 
REMARK    9  A    between atoms: C_19  and  N_20 
REMARK       I    between atoms: N_20  and  C_21 
REMARK   10  A    between atoms: C_21  and  C_22 
ROOT
HETATM    1  N   UNL     1      43.615 -12.711   4.553  1.00  0.00    -0.351 N 
HETATM    2  C   UNL     1      43.458 -11.431   5.035  1.00  0.00     0.251 C 
HETATM    3  O   UNL     1      42.781 -10.575   4.482  1.00  0.00    -0.268 OA
HETATM    4  H   UNL     1      44.000 -13.425   5.161  1.00  0.00     0.162 HD
ENDROOT
BRANCH   2   5
HETATM    5  C   UNL     1      44.160 -11.138   6.314  1.00  0.00     0.034 A 
HETATM    6  C   UNL     1      43.432 -10.932   7.495  1.00  0.00     0.046 A 
HETATM    7  C   UNL     1      44.086 -10.637   8.692  1.00  0.00     0.035 A 
HETATM    8  C   UNL     1      45.485 -10.575   8.697  1.00  0.00     0.029 A 
HETATM    9  C   UNL     1      46.216 -10.811   7.529  1.00  0.00     0.003 A 
HETATM   10  C   UNL     1      45.554 -11.096   6.335  1.00  0.00     0.017 A 
BRANCH   7  11
HETATM   11  N   UNL     1      43.415 -10.386   9.905  1.00  0.00    -0.322 N 
HETATM   12  C   UNL     1      42.468  -9.407  10.173  1.00  0.00     0.263 C 
HETATM   13  O   UNL     1      42.030  -8.623   9.335  1.00  0.00    -0.267 OA
HETATM   14  H   UNL     1      43.654 -10.982  10.689  1.00  0.00     0.169 HD
BRANCH  12  15
HETATM   15  C   UNL     1      42.002  -9.360  11.559  1.00  0.00     0.072 A 
HETATM   16  S   UNL     1      40.392  -9.741  12.010  1.00  0.00    -0.097 SA
HETATM   17  C   UNL     1      40.718  -9.477  13.667  1.00  0.00     0.050 A 
HETATM   18  C   UNL     1      42.022  -9.098  13.883  1.00  0.00     0.009 A 
HETATM   19  C   UNL     1      42.763  -9.031  12.668  1.00  0.00     0.025 A 
ENDBRANCH  12  15
ENDBRANCH   7  11
ENDBRANCH   2   5
BRANCH   1  20
HETATM   20  C   UNL     1      43.048 -13.121   3.272  1.00  0.00     0.198 C 
BRANCH  20  21
HETATM   21  C   UNL     1      41.975 -14.266   3.320  1.00  0.00     0.227 C 
BRANCH  21  22
HETATM   22  O   UNL     1      41.079 -14.144   4.443  1.00  0.00    -0.349 OA
BRANCH  22  23
HETATM   23  C   UNL     1      40.118 -13.096   4.388  1.00  0.00     0.167 C 
HETATM   24  C   UNL     1      39.896 -12.583   5.798  1.00  0.00     0.033 C 
ENDBRANCH  22  23
ENDBRANCH  21  22
BRANCH  21  25
HETATM   25  O   UNL     1      42.667 -15.537   3.426  1.00  0.00    -0.349 OA
BRANCH  25  26
HETATM   26  C   UNL     1      42.498 -16.206   4.671  1.00  0.00     0.167 C 
HETATM   27  C   UNL     1      43.865 -16.663   5.144  1.00  0.00     0.033 C 
ENDBRANCH  25  26
ENDBRANCH  21  25
BRANCH  21  28
HETATM   28  C   UNL     1      41.207 -14.388   1.978  1.00  0.00     0.097 A 
HETATM   29  N   UNL     1      41.262 -13.356   1.088  1.00  0.00    -0.260 NA
HETATM   30  C   UNL     1      40.566 -13.462  -0.064  1.00  0.00     0.117 A 
HETATM   31  C   UNL     1      39.818 -14.572  -0.408  1.00  0.00     0.019 A 
HETATM   32  C   UNL     1      39.768 -15.629   0.488  1.00  0.00     0.004 A 
HETATM   33  C   UNL     1      40.456 -15.536   1.696  1.00  0.00     0.033 A 
ENDBRANCH  21  28
ENDBRANCH  20  21
ENDBRANCH   1  20
TORSDOF 10
ENDMDL
MODEL 7
REMARK VINA RESULT:      -7.2      2.729      9.158
REMARK  10 active torsions:
REMARK  status: ('A' for Active; 'I' for Inactive)
REMARK    1  A    between atoms: C_2  and  O_3 
REMARK    2  A    between atoms: O_3  and  C_4 
REMARK    3  A    between atoms: C_4  and  O_5 
REMARK    4  A    between atoms: C_4  and  C_8 
REMARK    5  A    between atoms: C_4  and  C_14 
REMARK    6  A    between atoms: O_5  and  C_6 
REMARK    7  A    between atoms: C_14  and  N_15 
REMARK       I    between atoms: N_15  and  C_16 
REMARK    8  A    between atoms: C_16  and  C_17 
REMARK    9  A    between atoms: C_19  and  N_20 
REMARK       I    between atoms: N_20  and  C_21 
REMARK   10  A    between atoms: C_21  and  C_22 
ROOT
HETATM    1  N   UNL     1      43.732  -8.967  10.229  1.00  0.00    -0.351 N 
HETATM    2  C   UNL     1      44.259 -10.238  10.172  1.00  0.00     0.251 C 
HETATM    3  O   UNL     1      44.366 -10.973  11.144  1.00  0.00    -0.268 OA
HETATM    4  H   UNL     1      43.470  -8.500   9.368  1.00  0.00     0.162 HD
ENDROOT
BRANCH   2   5
HETATM    5  C   UNL     1      44.686 -10.693   8.822  1.00  0.00     0.034 A 
HETATM    6  C   UNL     1      43.859 -11.529   8.056  1.00  0.00     0.046 A 
HETATM    7  C   UNL     1      44.266 -11.974   6.799  1.00  0.00     0.035 A 
HETATM    8  C   UNL     1      45.505 -11.551   6.303  1.00  0.00     0.029 A 
HETATM    9  C   UNL     1      46.319 -10.693   7.048  1.00  0.00     0.003 A 
HETATM   10  C   UNL     1      45.909 -10.259   8.308  1.00  0.00     0.017 A 
BRANCH   7  11
HETATM   11  N   UNL     1      43.500 -12.841   5.993  1.00  0.00    -0.322 N 
HETATM   12  C   UNL     1      43.104 -14.141   6.272  1.00  0.00     0.263 C 
HETATM   13  O   UNL     1      43.336 -14.722   7.330  1.00  0.00    -0.267 OA
HETATM   14  H   UNL     1      43.206 -12.483   5.092  1.00  0.00     0.169 HD
BRANCH  12  15
HETATM   15  C   UNL     1      42.366 -14.806   5.198  1.00  0.00     0.072 A 
HETATM   16  S   UNL     1      40.805 -14.304   4.696  1.00  0.00    -0.097 SA
HETATM   17  C   UNL     1      40.729 -15.509   3.486  1.00  0.00     0.050 A 
HETATM   18  C   UNL     1      41.862 -16.289   3.461  1.00  0.00     0.009 A 
HETATM   19  C   UNL     1      42.805 -15.883   4.448  1.00  0.00     0.025 A 
ENDBRANCH  12  15
ENDBRANCH   7  11
ENDBRANCH   2   5
BRANCH   1  20
HETATM   20  C   UNL     1      43.340  -8.358  11.496  1.00  0.00     0.198 C 
BRANCH  20  21
HETATM   21  C   UNL     1      41.811  -8.403  11.847  1.00  0.00     0.227 C 
BRANCH  21  22
HETATM   22  O   UNL     1      41.445  -7.455  12.870  1.00  0.00    -0.349 OA
BRANCH  22  23
HETATM   23  C   UNL     1      42.487  -6.641  13.394  1.00  0.00     0.167 C 
HETATM   24  C   UNL     1      42.738  -7.059  14.830  1.00  0.00     0.033 C 
ENDBRANCH  22  23
ENDBRANCH  21  22
BRANCH  21  25
HETATM   25  O   UNL     1      41.490  -9.735  12.325  1.00  0.00    -0.349 OA
BRANCH  25  26
HETATM   26  C   UNL     1      40.486  -9.780  13.334  1.00  0.00     0.167 C 
HETATM   27  C   UNL     1      39.438 -10.790  12.905  1.00  0.00     0.033 C 
ENDBRANCH  25  26
ENDBRANCH  21  25
BRANCH  21  28
HETATM   28  C   UNL     1      40.927  -8.257  10.580  1.00  0.00     0.097 A 
HETATM   29  N   UNL     1      40.810  -9.316   9.729  1.00  0.00    -0.260 NA
HETATM   30  C   UNL     1      40.063  -9.167   8.615  1.00  0.00     0.117 A 
HETATM   31  C   UNL     1      39.382  -8.007   8.298  1.00  0.00     0.019 A 
HETATM   32  C   UNL     1      39.488  -6.930   9.165  1.00  0.00     0.004 A 
HETATM   33  C   UNL     1      40.274  -7.048  10.310  1.00  0.00     0.033 A 
ENDBRANCH  21  28
ENDBRANCH  20  21
ENDBRANCH   1  20
TORSDOF 10
ENDMDL
MODEL 8
REMARK VINA RESULT:      -7.2      5.189      9.512
REMARK  10 active torsions:
REMARK  status: ('A' for Active; 'I' for Inactive)
REMARK    1  A    between atoms: C_2  and  O_3 
REMARK    2  A    between atoms: O_3  and  C_4 
REMARK    3  A    between atoms: C_4  and  O_5 
REMARK    4  A    between atoms: C_4  and  C_8 
REMARK    5  A    between atoms: C_4  and  C_14 
REMARK    6  A    between atoms: O_5  and  C_6 
REMARK    7  A    between atoms: C_14  and  N_15 
REMARK       I    between atoms: N_15  and  C_16 
REMARK    8  A    between atoms: C_16  and  C_17 
REMARK    9  A    between atoms: C_19  and  N_20 
REMARK       I    between atoms: N_20  and  C_21 
REMARK   10  A    between atoms: C_21  and  C_22 
ROOT
HETATM    1  N   UNL     1      40.709 -14.164   1.702  1.00  0.00    -0.351 N 
HETATM    2  C   UNL     1      40.133 -14.859   0.662  1.00  0.00     0.251 C 
HETATM    3  O   UNL     1      39.738 -16.013   0.752  1.00  0.00    -0.268 OA
HETATM    4  H   UNL     1      40.810 -13.157   1.629  1.00  0.00     0.162 HD
ENDROOT
BRANCH   2   5
HETATM    5  C   UNL     1      39.992 -14.103  -0.612  1.00  0.00     0.034 A 
HETATM    6  C   UNL     1      40.685 -12.900  -0.808  1.00  0.00     0.046 A 
HETATM    7  C   UNL     1      40.540 -12.179  -1.993  1.00  0.00     0.035 A 
HETATM    8  C   UNL     1      39.707 -12.692  -2.995  1.00  0.00     0.029 A 
HETATM    9  C   UNL     1      39.038 -13.907  -2.818  1.00  0.00     0.003 A 
HETATM   10  C   UNL     1      39.182 -14.617  -1.626  1.00  0.00     0.017 A 
BRANCH   7  11
HETATM   11  N   UNL     1      41.180 -10.948  -2.241  1.00  0.00    -0.322 N 
HETATM   12  C   UNL     1      40.634  -9.673  -2.184  1.00  0.00     0.263 C 
HETATM   13  O   UNL     1      39.478  -9.432  -1.846  1.00  0.00    -0.267 OA
HETATM   14  H   UNL     1      42.157 -10.989  -2.503  1.00  0.00     0.169 HD
BRANCH  12  15
HETATM   15  C   UNL     1      41.545  -8.593  -2.562  1.00  0.00     0.072 A 
HETATM   16  S   UNL     1      42.583  -7.819  -1.437  1.00  0.00    -0.097 SA
HETATM   17  C   UNL     1      43.249  -6.805  -2.641  1.00  0.00     0.050 A 
HETATM   18  C   UNL     1      42.692  -7.037  -3.878  1.00  0.00     0.009 A 
HETATM   19  C   UNL     1      41.711  -8.068  -3.832  1.00  0.00     0.025 A 
ENDBRANCH  12  15
ENDBRANCH   7  11
ENDBRANCH   2   5
BRANCH   1  20
HETATM   20  C   UNL     1      40.980 -14.798   2.988  1.00  0.00     0.198 C 
BRANCH  20  21
HETATM   21  C   UNL     1      42.492 -14.986   3.367  1.00  0.00     0.227 C 
BRANCH  21  22
HETATM   22  O   UNL     1      43.282 -13.808   3.110  1.00  0.00    -0.349 OA
BRANCH  22  23
HETATM   23  C   UNL     1      43.036 -12.676   3.936  1.00  0.00     0.167 C 
HETATM   24  C   UNL     1      42.988 -11.445   3.051  1.00  0.00     0.033 C 
ENDBRANCH  22  23
ENDBRANCH  21  22
BRANCH  21  25
HETATM   25  O   UNL     1      43.030 -16.077   2.574  1.00  0.00    -0.349 OA
BRANCH  25  26
HETATM   26  C   UNL     1      42.254 -17.270   2.599  1.00  0.00     0.167 C 
HETATM   27  C   UNL     1      43.201 -18.445   2.445  1.00  0.00     0.033 C 
ENDBRANCH  25  26
ENDBRANCH  21  25
BRANCH  21  28
HETATM   28  C   UNL     1      42.659 -15.488   4.825  1.00  0.00     0.097 A 
HETATM   29  N   UNL     1      41.579 -15.474   5.657  1.00  0.00    -0.260 NA
HETATM   30  C   UNL     1      41.744 -15.886   6.932  1.00  0.00     0.117 A 
HETATM   31  C   UNL     1      42.943 -16.349   7.440  1.00  0.00     0.019 A 
HETATM   32  C   UNL     1      44.042 -16.377   6.594  1.00  0.00     0.004 A 
HETATM   33  C   UNL     1      43.906 -15.934   5.280  1.00  0.00     0.033 A 
ENDBRANCH  21  28
ENDBRANCH  20  21
ENDBRANCH   1  20
TORSDOF 10
ENDMDL
MODEL 9
REMARK VINA RESULT:      -7.2      3.133      9.306
REMARK  10 active torsions:
REMARK  status: ('A' for Active; 'I' for Inactive)
REMARK    1  A    between atoms: C_2  and  O_3 
REMARK    2  A    between atoms: O_3  and  C_4 
REMARK    3  A    between atoms: C_4  and  O_5 
REMARK    4  A    between atoms: C_4  and  C_8 
REMARK    5  A    between atoms: C_4  and  C_14 
REMARK    6  A    between atoms: O_5  and  C_6 
REMARK    7  A    between atoms: C_14  and  N_15 
REMARK       I    between atoms: N_15  and  C_16 
REMARK    8  A    between atoms: C_16  and  C_17 
REMARK    9  A    between atoms: C_19  and  N_20 
REMARK       I    between atoms: N_20  and  C_21 
REMARK   10  A    between atoms: C_21  and  C_22 
ROOT
HETATM    1  N   UNL     1      40.770 -10.105   7.495  1.00  0.00    -0.351 N 
HETATM    2  C   UNL     1      39.659 -10.848   7.164  1.00  0.00     0.251 C 
HETATM    3  O   UNL     1      38.613 -10.825   7.799  1.00  0.00    -0.268 OA
HETATM    4  H   UNL     1      41.516 -10.001   6.815  1.00  0.00     0.162 HD
ENDROOT
BRANCH   2   5
HETATM    5  C   UNL     1      39.792 -11.692   5.947  1.00  0.00     0.034 A 
HETATM    6  C   UNL     1      40.502 -12.901   5.990  1.00  0.00     0.046 A 
HETATM    7  C   UNL     1      40.645 -13.684   4.846  1.00  0.00     0.035 A 
HETATM    8  C   UNL     1      40.046 -13.254   3.656  1.00  0.00     0.029 A 
HETATM    9  C   UNL     1      39.310 -12.066   3.614  1.00  0.00     0.003 A 
HETATM   10  C   UNL     1      39.179 -11.284   4.761  1.00  0.00     0.017 A 
BRANCH   7  11
HETATM   11  N   UNL     1      41.374 -14.890   4.813  1.00  0.00    -0.322 N 
HETATM   12  C   UNL     1      42.720 -15.085   5.089  1.00  0.00     0.263 C 
HETATM   13  O   UNL     1      43.482 -14.198   5.466  1.00  0.00    -0.267 OA
HETATM   14  H   UNL     1      40.862 -15.723   4.545  1.00  0.00     0.169 HD
BRANCH  12  15
HETATM   15  C   UNL     1      43.198 -16.454   4.901  1.00  0.00     0.072 A 
HETATM   16  S   UNL     1      43.498 -17.520   6.211  1.00  0.00    -0.097 SA
HETATM   17  C   UNL     1      43.952 -18.793   5.165  1.00  0.00     0.050 A 
HETATM   18  C   UNL     1      43.888 -18.422   3.842  1.00  0.00     0.009 A 
HETATM   19  C   UNL     1      43.453 -17.074   3.690  1.00  0.00     0.025 A 
ENDBRANCH  12  15
ENDBRANCH   7  11
ENDBRANCH   2   5
BRANCH   1  20
HETATM   20  C   UNL     1      40.813  -9.289   8.704  1.00  0.00     0.198 C 
BRANCH  20  21
HETATM   21  C   UNL     1      42.239  -8.933   9.254  1.00  0.00     0.227 C 
BRANCH  21  22
HETATM   22  O   UNL     1      42.739  -7.681   8.742  1.00  0.00    -0.349 OA
BRANCH  22  23
HETATM   23  C   UNL     1      41.772  -6.730   8.315  1.00  0.00     0.167 C 
HETATM   24  C   UNL     1      41.775  -5.577   9.300  1.00  0.00     0.033 C 
ENDBRANCH  22  23
ENDBRANCH  21  22
BRANCH  21  25
HETATM   25  O   UNL     1      43.158  -9.986   8.859  1.00  0.00    -0.349 OA
BRANCH  25  26
HETATM   26  C   UNL     1      44.322  -9.535   8.174  1.00  0.00     0.167 C 
HETATM   27  C   UNL     1      45.523  -9.832   9.051  1.00  0.00     0.033 C 
ENDBRANCH  25  26
ENDBRANCH  21  25
BRANCH  21  28
HETATM   28  C   UNL     1      42.285  -8.984  10.804  1.00  0.00     0.097 A 
HETATM   29  N   UNL     1      41.415  -9.801  11.465  1.00  0.00    -0.260 NA
HETATM   30  C   UNL     1      41.444  -9.813  12.814  1.00  0.00     0.117 A 
HETATM   31  C   UNL     1      42.327  -9.064  13.570  1.00  0.00     0.019 A 
HETATM   32  C   UNL     1      43.221  -8.240  12.903  1.00  0.00     0.004 A 
HETATM   33  C   UNL     1      43.196  -8.188  11.510  1.00  0.00     0.033 A 
ENDBRANCH  21  28
ENDBRANCH  20  21
ENDBRANCH   1  20
TORSDOF 10
ENDMDL
MODEL 10
REMARK VINA RESULT:      -7.1      1.821      2.291
REMARK  10 active torsions:
REMARK  status: ('A' for Active; 'I' for Inactive)
REMARK    1  A    between atoms: C_2  and  O_3 
REMARK    2  A    between atoms: O_3  and  C_4 
REMARK    3  A    between atoms: C_4  and  O_5 
REMARK    4  A    between atoms: C_4  and  C_8 
REMARK    5  A    between atoms: C_4  and  C_14 
REMARK    6  A    between atoms: O_5  and  C_6 
REMARK    7  A    between atoms: C_14  and  N_15 
REMARK       I    between atoms: N_15  and  C_16 
REMARK    8  A    between atoms: C_16  and  C_17 
REMARK    9  A    between atoms: C_19  and  N_20 
REMARK       I    between atoms: N_20  and  C_21 
REMARK   10  A    between atoms: C_21  and  C_22 
ROOT
HETATM    1  N   UNL     1      42.945 -13.071   6.115  1.00  0.00    -0.351 N 
HETATM    2  C   UNL     1      43.817 -12.149   6.651  1.00  0.00     0.251 C 
HETATM    3  O   UNL     1      45.025 -12.321   6.726  1.00  0.00    -0.268 OA
HETATM    4  H   UNL     1      42.000 -12.782   5.884  1.00  0.00     0.162 HD
ENDROOT
BRANCH   2   5
HETATM    5  C   UNL     1      43.196 -10.886   7.132  1.00  0.00     0.034 A 
HETATM    6  C   UNL     1      43.299 -10.508   8.480  1.00  0.00     0.046 A 
HETATM    7  C   UNL     1      42.702  -9.335   8.938  1.00  0.00     0.035 A 
HETATM    8  C   UNL     1      42.018  -8.525   8.022  1.00  0.00     0.029 A 
HETATM    9  C   UNL     1      41.940  -8.880   6.673  1.00  0.00     0.003 A 
HETATM   10  C   UNL     1      42.532 -10.060   6.224  1.00  0.00     0.017 A 
BRANCH   7  11
HETATM   11  N   UNL     1      42.738  -8.915  10.283  1.00  0.00    -0.322 N 
HETATM   12  C   UNL     1      41.824  -9.192  11.290  1.00  0.00     0.263 C 
HETATM   13  O   UNL     1      40.841  -9.915  11.151  1.00  0.00    -0.267 OA
HETATM   14  H   UNL     1      43.519  -8.330  10.556  1.00  0.00     0.169 HD
BRANCH  12  15
HETATM   15  C   UNL     1      42.108  -8.553  12.575  1.00  0.00     0.072 A 
HETATM   16  S   UNL     1      41.093  -8.735  13.946  1.00  0.00    -0.097 SA
HETATM   17  C   UNL     1      42.110  -7.763  14.917  1.00  0.00     0.050 A 
HETATM   18  C   UNL     1      43.200  -7.297  14.218  1.00  0.00     0.009 A 
HETATM   19  C   UNL     1      43.198  -7.752  12.869  1.00  0.00     0.025 A 
ENDBRANCH  12  15
ENDBRANCH   7  11
ENDBRANCH   2   5
BRANCH   1  20
HETATM   20  C   UNL     1      43.398 -14.385   5.672  1.00  0.00     0.198 C 
BRANCH  20  21
HETATM   21  C   UNL     1      42.800 -14.907   4.318  1.00  0.00     0.227 C 
BRANCH  21  22
HETATM   22  O   UNL     1      43.050 -14.012   3.215  1.00  0.00    -0.349 OA
BRANCH  22  23
HETATM   23  C   UNL     1      41.944 -13.253   2.741  1.00  0.00     0.167 C 
HETATM   24  C   UNL     1      42.332 -11.786   2.766  1.00  0.00     0.033 C 
ENDBRANCH  22  23
ENDBRANCH  21  22
BRANCH  21  25
HETATM   25  O   UNL     1      41.363 -15.046   4.475  1.00  0.00    -0.349 OA
BRANCH  25  26
HETATM   26  C   UNL     1      40.960 -16.019   5.432  1.00  0.00     0.167 C 
HETATM   27  C   UNL     1      40.058 -15.334   6.442  1.00  0.00     0.033 C 
ENDBRANCH  25  26
ENDBRANCH  21  25
BRANCH  21  28
HETATM   28  C   UNL     1      43.266 -16.354   4.005  1.00  0.00     0.097 A 
HETATM   29  N   UNL     1      44.029 -17.015   4.922  1.00  0.00    -0.260 NA
HETATM   30  C   UNL     1      44.452 -18.262   4.627  1.00  0.00     0.117 A 
HETATM   31  C   UNL     1      44.134 -18.923   3.455  1.00  0.00     0.019 A 
HETATM   32  C   UNL     1      43.348 -18.260   2.524  1.00  0.00     0.004 A 
HETATM   33  C   UNL     1      42.918 -16.962   2.792  1.00  0.00     0.033 A 
ENDBRANCH  21  28
ENDBRANCH  20  21
ENDBRANCH   1  20
TORSDOF 10
ENDMDL
