MODEL 1
REMARK VINA RESULT:      -9.5      0.000      0.000
REMARK  5 active torsions:
REMARK  status: ('A' for Active; 'I' for Inactive)
REMARK    1  A    between atoms: C_4  and  C_5 
REMARK    2  A    between atoms: C_10  and  C_11 
REMARK    3  A    between atoms: N_12  and  N_13 
REMARK       I    between atoms: N_13  and  C_14 
REMARK    4  A    between atoms: C_14  and  C_15 
REMARK    5  A    between atoms: C_16  and  O_17 
ROOT
HETATM    1  C   UNL     1      43.399 -16.304   4.441  1.00  0.00     0.055 A 
HETATM    2  N   UNL     1      43.739 -17.378   5.230  1.00  0.00    -0.354 N 
HETATM    3  H   UNL     1      43.929 -17.324   6.220  1.00  0.00     0.166 HD
HETATM    4  C   UNL     1      43.757 -18.541   4.502  1.00  0.00     0.043 A 
HETATM    5  C   UNL     1      43.414 -18.207   3.192  1.00  0.00     0.005 A 
HETATM    6  C   UNL     1      43.195 -16.789   3.152  1.00  0.00     0.023 A 
HETATM    7  C   UNL     1      44.046 -19.850   4.906  1.00  0.00     0.030 A 
HETATM    8  C   UNL     1      43.986 -20.856   3.938  1.00  0.00     0.002 A 
HETATM    9  C   UNL     1      43.649 -20.561   2.621  1.00  0.00     0.001 A 
HETATM   10  C   UNL     1      43.362 -19.246   2.236  1.00  0.00     0.014 A 
ENDROOT
BRANCH   6  11
HETATM   11  C   UNL     1      42.845 -15.959   2.014  1.00  0.00     0.153 C 
HETATM   12  N   UNL     1      41.610 -15.846   1.648  1.00  0.00    -0.183 NA
BRANCH  12  13
HETATM   13  N   UNL     1      41.372 -15.046   0.568  1.00  0.00    -0.243 N 
HETATM   14  C   UNL     1      40.462 -14.007   0.682  1.00  0.00     0.274 C 
HETATM   15  O   UNL     1      39.855 -13.701   1.707  1.00  0.00    -0.266 OA
HETATM   16  H   UNL     1      41.951 -15.150  -0.257  1.00  0.00     0.192 HD
BRANCH  14  17
HETATM   17  C   UNL     1      40.264 -13.166  -0.530  1.00  0.00     0.066 A 
HETATM   18  C   UNL     1      39.403 -13.614  -1.544  1.00  0.00     0.081 A 
HETATM   19  C   UNL     1      39.177 -12.838  -2.678  1.00  0.00     0.037 A 
HETATM   20  C   UNL     1      39.827 -11.614  -2.825  1.00  0.00     0.003 A 
HETATM   21  C   UNL     1      40.709 -11.170  -1.841  1.00  0.00     0.001 A 
HETATM   22  C   UNL     1      40.932 -11.944  -0.697  1.00  0.00     0.020 A 
BRANCH  18  23
HETATM   23  O   UNL     1      38.743 -14.814  -1.490  1.00  0.00    -0.360 OA
HETATM   24  H   UNL     1      37.779 -14.630  -1.571  1.00  0.00     0.217 HD
ENDBRANCH  18  23
ENDBRANCH  14  17
ENDBRANCH  12  13
ENDBRANCH   6  11
BRANCH   1  25
HETATM   25  C   UNL     1      43.285 -14.960   5.001  1.00  0.00    -0.009 A 
HETATM   26  C   UNL     1      42.815 -13.902   4.214  1.00  0.00     0.014 A 
HETATM   27  C   UNL     1      42.712 -12.615   4.750  1.00  0.00     0.001 A 
HETATM   28  C   UNL     1      43.077 -12.380   6.074  1.00  0.00     0.000 A 
HETATM   29  C   UNL     1      43.547 -13.429   6.865  1.00  0.00     0.001 A 
HETATM   30  C   UNL     1      43.653 -14.714   6.330  1.00  0.00     0.014 A 
ENDBRANCH   1  25
TORSDOF 5
ENDMDL
MODEL 2
REMARK VINA RESULT:      -9.4      1.245      4.724
REMARK  5 active torsions:
REMARK  status: ('A' for Active; 'I' for Inactive)
REMARK    1  A    between atoms: C_4  and  C_5 
REMARK    2  A    between atoms: C_10  and  C_11 
REMARK    3  A    between atoms: N_12  and  N_13 
REMARK       I    between atoms: N_13  and  C_14 
REMARK    4  A    between atoms: C_14  and  C_15 
REMARK    5  A    between atoms: C_16  and  O_17 
ROOT
HETATM    1  C   UNL     1      43.252 -16.581   4.287  1.00  0.00     0.055 A 
HETATM    2  N   UNL     1      43.809 -16.207   5.489  1.00  0.00    -0.354 N 
HETATM    3  H   UNL     1      44.344 -16.818   6.087  1.00  0.00     0.166 HD
HETATM    4  C   UNL     1      43.567 -14.882   5.755  1.00  0.00     0.043 A 
HETATM    5  C   UNL     1      42.826 -14.380   4.685  1.00  0.00     0.005 A 
HETATM    6  C   UNL     1      42.621 -15.458   3.759  1.00  0.00     0.023 A 
HETATM    7  C   UNL     1      43.949 -14.102   6.853  1.00  0.00     0.030 A 
HETATM    8  C   UNL     1      43.559 -12.760   6.862  1.00  0.00     0.002 A 
HETATM    9  C   UNL     1      42.819 -12.224   5.813  1.00  0.00     0.001 A 
HETATM   10  C   UNL     1      42.448 -13.019   4.723  1.00  0.00     0.014 A 
ENDROOT
BRANCH   6  11
HETATM   11  C   UNL     1      41.888 -15.448   2.507  1.00  0.00     0.153 C 
HETATM   12  N   UNL     1      42.088 -14.503   1.646  1.00  0.00    -0.183 NA
BRANCH  12  13
HETATM   13  N   UNL     1      41.356 -14.573   0.496  1.00  0.00    -0.243 N 
HETATM   14  C   UNL     1      40.175 -13.854   0.400  1.00  0.00     0.274 C 
HETATM   15  O   UNL     1      39.725 -13.104   1.266  1.00  0.00    -0.266 OA
HETATM   16  H   UNL     1      41.747 -15.050  -0.307  1.00  0.00     0.192 HD
BRANCH  14  17
HETATM   17  C   UNL     1      39.436 -13.964  -0.887  1.00  0.00     0.066 A 
HETATM   18  C   UNL     1      38.816 -12.824  -1.423  1.00  0.00     0.081 A 
HETATM   19  C   UNL     1      38.139 -12.889  -2.639  1.00  0.00     0.037 A 
HETATM   20  C   UNL     1      38.052 -14.100  -3.323  1.00  0.00     0.003 A 
HETATM   21  C   UNL     1      38.636 -15.247  -2.788  1.00  0.00     0.001 A 
HETATM   22  C   UNL     1      39.323 -15.184  -1.571  1.00  0.00     0.020 A 
BRANCH  18  23
HETATM   23  O   UNL     1      38.833 -11.601  -0.804  1.00  0.00    -0.360 OA
HETATM   24  H   UNL     1      39.764 -11.280  -0.801  1.00  0.00     0.217 HD
ENDBRANCH  18  23
ENDBRANCH  14  17
ENDBRANCH  12  13
ENDBRANCH   6  11
BRANCH   1  25
HETATM   25  C   UNL     1      43.403 -17.940   3.775  1.00  0.00    -0.009 A 
HETATM   26  C   UNL     1      43.943 -18.947   4.585  1.00  0.00     0.014 A 
HETATM   27  C   UNL     1      44.092 -20.245   4.092  1.00  0.00     0.001 A 
HETATM   28  C   UNL     1      43.701 -20.545   2.788  1.00  0.00     0.000 A 
HETATM   29  C   UNL     1      43.165 -19.548   1.974  1.00  0.00     0.001 A 
HETATM   30  C   UNL     1      43.017 -18.250   2.465  1.00  0.00     0.014 A 
ENDBRANCH   1  25
TORSDOF 5
ENDMDL
MODEL 3
REMARK VINA RESULT:      -9.2      3.380      7.012
REMARK  5 active torsions:
REMARK  status: ('A' for Active; 'I' for Inactive)
REMARK    1  A    between atoms: C_4  and  C_5 
REMARK    2  A    between atoms: C_10  and  C_11 
REMARK    3  A    between atoms: N_12  and  N_13 
REMARK       I    between atoms: N_13  and  C_14 
REMARK    4  A    between atoms: C_14  and  C_15 
REMARK    5  A    between atoms: C_16  and  O_17 
ROOT
HETATM    1  C   UNL     1      41.832 -15.235   2.919  1.00  0.00     0.055 A 
HETATM    2  N   UNL     1      41.909 -16.366   2.138  1.00  0.00    -0.354 N 
HETATM    3  H   UNL     1      41.453 -16.476   1.244  1.00  0.00     0.166 HD
HETATM    4  C   UNL     1      42.711 -17.315   2.719  1.00  0.00     0.043 A 
HETATM    5  C   UNL     1      43.172 -16.778   3.922  1.00  0.00     0.005 A 
HETATM    6  C   UNL     1      42.609 -15.464   4.051  1.00  0.00     0.023 A 
HETATM    7  C   UNL     1      43.060 -18.595   2.270  1.00  0.00     0.030 A 
HETATM    8  C   UNL     1      43.909 -19.357   3.078  1.00  0.00     0.002 A 
HETATM    9  C   UNL     1      44.387 -18.855   4.284  1.00  0.00     0.001 A 
HETATM   10  C   UNL     1      44.029 -17.573   4.716  1.00  0.00     0.014 A 
ENDROOT
BRANCH   6  11
HETATM   11  C   UNL     1      42.766 -14.515   5.138  1.00  0.00     0.153 C 
HETATM   12  N   UNL     1      43.501 -13.463   4.979  1.00  0.00    -0.183 NA
BRANCH  12  13
HETATM   13  N   UNL     1      43.592 -12.626   6.054  1.00  0.00    -0.243 N 
HETATM   14  C   UNL     1      44.441 -11.532   5.990  1.00  0.00     0.274 C 
HETATM   15  O   UNL     1      45.115 -11.209   5.012  1.00  0.00    -0.266 OA
HETATM   16  H   UNL     1      42.953 -12.750   6.829  1.00  0.00     0.192 HD
BRANCH  14  17
HETATM   17  C   UNL     1      44.480 -10.653   7.190  1.00  0.00     0.066 A 
HETATM   18  C   UNL     1      45.722 -10.272   7.723  1.00  0.00     0.081 A 
HETATM   19  C   UNL     1      45.791  -9.430   8.831  1.00  0.00     0.037 A 
HETATM   20  C   UNL     1      44.620  -8.977   9.435  1.00  0.00     0.003 A 
HETATM   21  C   UNL     1      43.380  -9.373   8.936  1.00  0.00     0.001 A 
HETATM   22  C   UNL     1      43.306 -10.212   7.820  1.00  0.00     0.020 A 
BRANCH  18  23
HETATM   23  O   UNL     1      46.920 -10.690   7.204  1.00  0.00    -0.360 OA
HETATM   24  H   UNL     1      46.982 -11.663   7.341  1.00  0.00     0.217 HD
ENDBRANCH  18  23
ENDBRANCH  14  17
ENDBRANCH  12  13
ENDBRANCH   6  11
BRANCH   1  25
HETATM   25  C   UNL     1      41.057 -14.073   2.492  1.00  0.00    -0.009 A 
HETATM   26  C   UNL     1      39.772 -13.853   3.002  1.00  0.00     0.014 A 
HETATM   27  C   UNL     1      39.029 -12.744   2.589  1.00  0.00     0.001 A 
HETATM   28  C   UNL     1      39.567 -11.849   1.665  1.00  0.00     0.000 A 
HETATM   29  C   UNL     1      40.846 -12.063   1.150  1.00  0.00     0.001 A 
HETATM   30  C   UNL     1      41.588 -13.171   1.561  1.00  0.00     0.014 A 
ENDBRANCH   1  25
TORSDOF 5
ENDMDL
MODEL 4
REMARK VINA RESULT:      -9.2      3.251      7.647
REMARK  5 active torsions:
REMARK  status: ('A' for Active; 'I' for Inactive)
REMARK    1  A    between atoms: C_4  and  C_5 
REMARK    2  A    between atoms: C_10  and  C_11 
REMARK    3  A    between atoms: N_12  and  N_13 
REMARK       I    between atoms: N_13  and  C_14 
REMARK    4  A    between atoms: C_14  and  C_15 
REMARK    5  A    between atoms: C_16  and  O_17 
ROOT
HETATM    1  C   UNL     1      42.033 -15.311   3.157  1.00  0.00     0.055 A 
HETATM    2  N   UNL     1      41.281 -15.827   2.127  1.00  0.00    -0.354 N 
HETATM    3  H   UNL     1      41.057 -16.805   2.015  1.00  0.00     0.166 HD
HETATM    4  C   UNL     1      40.848 -14.834   1.285  1.00  0.00     0.043 A 
HETATM    5  C   UNL     1      41.338 -13.629   1.790  1.00  0.00     0.005 A 
HETATM    6  C   UNL     1      42.094 -13.933   2.971  1.00  0.00     0.023 A 
HETATM    7  C   UNL     1      40.065 -14.915   0.127  1.00  0.00     0.030 A 
HETATM    8  C   UNL     1      39.771 -13.723  -0.542  1.00  0.00     0.002 A 
HETATM    9  C   UNL     1      40.243 -12.503  -0.069  1.00  0.00     0.001 A 
HETATM   10  C   UNL     1      41.024 -12.442   1.091  1.00  0.00     0.014 A 
ENDROOT
BRANCH   6  11
HETATM   11  C   UNL     1      42.823 -13.025   3.838  1.00  0.00     0.153 C 
HETATM   12  N   UNL     1      42.267 -12.568   4.913  1.00  0.00    -0.183 NA
BRANCH  12  13
HETATM   13  N   UNL     1      43.024 -11.720   5.668  1.00  0.00    -0.243 N 
HETATM   14  C   UNL     1      43.604 -12.188   6.837  1.00  0.00     0.274 C 
HETATM   15  O   UNL     1      43.532 -13.343   7.255  1.00  0.00    -0.266 OA
HETATM   16  H   UNL     1      43.247 -10.802   5.302  1.00  0.00     0.192 HD
BRANCH  14  17
HETATM   17  C   UNL     1      44.429 -11.214   7.603  1.00  0.00     0.066 A 
HETATM   18  C   UNL     1      45.596 -10.695   7.020  1.00  0.00     0.081 A 
HETATM   19  C   UNL     1      46.375  -9.762   7.701  1.00  0.00     0.037 A 
HETATM   20  C   UNL     1      46.011  -9.354   8.983  1.00  0.00     0.003 A 
HETATM   21  C   UNL     1      44.871  -9.885   9.586  1.00  0.00     0.001 A 
HETATM   22  C   UNL     1      44.082 -10.816   8.902  1.00  0.00     0.020 A 
BRANCH  18  23
HETATM   23  O   UNL     1      46.038 -11.060   5.775  1.00  0.00    -0.360 OA
HETATM   24  H   UNL     1      46.188 -10.237   5.256  1.00  0.00     0.217 HD
ENDBRANCH  18  23
ENDBRANCH  14  17
ENDBRANCH  12  13
ENDBRANCH   6  11
BRANCH   1  25
HETATM   25  C   UNL     1      42.581 -16.176   4.200  1.00  0.00    -0.009 A 
HETATM   26  C   UNL     1      42.062 -16.133   5.499  1.00  0.00     0.014 A 
HETATM   27  C   UNL     1      42.590 -16.956   6.497  1.00  0.00     0.001 A 
HETATM   28  C   UNL     1      43.638 -17.827   6.201  1.00  0.00     0.000 A 
HETATM   29  C   UNL     1      44.162 -17.874   4.909  1.00  0.00     0.001 A 
HETATM   30  C   UNL     1      43.636 -17.050   3.912  1.00  0.00     0.014 A 
ENDBRANCH   1  25
TORSDOF 5
ENDMDL
MODEL 5
REMARK VINA RESULT:      -9.0      1.684      2.134
REMARK  5 active torsions:
REMARK  status: ('A' for Active; 'I' for Inactive)
REMARK    1  A    between atoms: C_4  and  C_5 
REMARK    2  A    between atoms: C_10  and  C_11 
REMARK    3  A    between atoms: N_12  and  N_13 
REMARK       I    between atoms: N_13  and  C_14 
REMARK    4  A    between atoms: C_14  and  C_15 
REMARK    5  A    between atoms: C_16  and  O_17 
ROOT
HETATM    1  C   UNL     1      42.134 -14.985   4.373  1.00  0.00     0.055 A 
HETATM    2  N   UNL     1      43.119 -15.756   4.946  1.00  0.00    -0.354 N 
HETATM    3  H   UNL     1      43.608 -15.521   5.798  1.00  0.00     0.166 HD
HETATM    4  C   UNL     1      43.331 -16.904   4.225  1.00  0.00     0.043 A 
HETATM    5  C   UNL     1      42.450 -16.876   3.144  1.00  0.00     0.005 A 
HETATM    6  C   UNL     1      41.697 -15.656   3.234  1.00  0.00     0.023 A 
HETATM    7  C   UNL     1      44.229 -17.955   4.452  1.00  0.00     0.030 A 
HETATM    8  C   UNL     1      44.229 -19.015   3.541  1.00  0.00     0.002 A 
HETATM    9  C   UNL     1      43.365 -19.021   2.451  1.00  0.00     0.001 A 
HETATM   10  C   UNL     1      42.474 -17.962   2.242  1.00  0.00     0.014 A 
ENDROOT
BRANCH   6  11
HETATM   11  C   UNL     1      40.677 -15.154   2.333  1.00  0.00     0.153 C 
HETATM   12  N   UNL     1      40.925 -15.046   1.068  1.00  0.00    -0.183 NA
BRANCH  12  13
HETATM   13  N   UNL     1      39.908 -14.565   0.295  1.00  0.00    -0.243 N 
HETATM   14  C   UNL     1      40.057 -13.339  -0.335  1.00  0.00     0.274 C 
HETATM   15  O   UNL     1      41.067 -12.636  -0.294  1.00  0.00    -0.266 OA
HETATM   16  H   UNL     1      39.114 -15.163   0.099  1.00  0.00     0.192 HD
BRANCH  14  17
HETATM   17  C   UNL     1      38.916 -12.882  -1.174  1.00  0.00     0.066 A 
HETATM   18  C   UNL     1      38.294 -13.794  -2.042  1.00  0.00     0.081 A 
HETATM   19  C   UNL     1      37.207 -13.404  -2.821  1.00  0.00     0.037 A 
HETATM   20  C   UNL     1      36.743 -12.091  -2.761  1.00  0.00     0.003 A 
HETATM   21  C   UNL     1      37.370 -11.167  -1.926  1.00  0.00     0.001 A 
HETATM   22  C   UNL     1      38.457 -11.557  -1.137  1.00  0.00     0.020 A 
BRANCH  18  23
HETATM   23  O   UNL     1      38.702 -15.095  -2.179  1.00  0.00    -0.360 OA
HETATM   24  H   UNL     1      39.686 -15.100  -2.208  1.00  0.00     0.217 HD
ENDBRANCH  18  23
ENDBRANCH  14  17
ENDBRANCH  12  13
ENDBRANCH   6  11
BRANCH   1  25
HETATM   25  C   UNL     1      41.711 -13.725   4.979  1.00  0.00    -0.009 A 
HETATM   26  C   UNL     1      42.601 -12.647   5.066  1.00  0.00     0.014 A 
HETATM   27  C   UNL     1      42.197 -11.445   5.652  1.00  0.00     0.001 A 
HETATM   28  C   UNL     1      40.902 -11.313   6.152  1.00  0.00     0.000 A 
HETATM   29  C   UNL     1      40.011 -12.382   6.071  1.00  0.00     0.001 A 
HETATM   30  C   UNL     1      40.414 -13.585   5.488  1.00  0.00     0.014 A 
ENDBRANCH   1  25
TORSDOF 5
ENDMDL
MODEL 6
REMARK VINA RESULT:      -8.8      2.162      7.352
REMARK  5 active torsions:
REMARK  status: ('A' for Active; 'I' for Inactive)
REMARK    1  A    between atoms: C_4  and  C_5 
REMARK    2  A    between atoms: C_10  and  C_11 
REMARK    3  A    between atoms: N_12  and  N_13 
REMARK       I    between atoms: N_13  and  C_14 
REMARK    4  A    between atoms: C_14  and  C_15 
REMARK    5  A    between atoms: C_16  and  O_17 
ROOT
HETATM    1  C   UNL     1      41.679 -12.273   2.031  1.00  0.00     0.055 A 
HETATM    2  N   UNL     1      41.214 -11.134   1.415  1.00  0.00    -0.354 N 
HETATM    3  H   UNL     1      41.255 -10.209   1.815  1.00  0.00     0.166 HD
HETATM    4  C   UNL     1      40.711 -11.417   0.169  1.00  0.00     0.043 A 
HETATM    5  C   UNL     1      40.857 -12.790  -0.028  1.00  0.00     0.005 A 
HETATM    6  C   UNL     1      41.464 -13.333   1.155  1.00  0.00     0.023 A 
HETATM    7  C   UNL     1      40.146 -10.563  -0.786  1.00  0.00     0.030 A 
HETATM    8  C   UNL     1      39.712 -11.131  -1.988  1.00  0.00     0.002 A 
HETATM    9  C   UNL     1      39.841 -12.497  -2.219  1.00  0.00     0.001 A 
HETATM   10  C   UNL     1      40.409 -13.334  -1.252  1.00  0.00     0.014 A 
ENDROOT
BRANCH   6  11
HETATM   11  C   UNL     1      41.796 -14.715   1.448  1.00  0.00     0.153 C 
HETATM   12  N   UNL     1      43.033 -15.081   1.532  1.00  0.00    -0.183 NA
BRANCH  12  13
HETATM   13  N   UNL     1      43.253 -16.399   1.811  1.00  0.00    -0.243 N 
HETATM   14  C   UNL     1      43.346 -16.805   3.134  1.00  0.00     0.274 C 
HETATM   15  O   UNL     1      43.207 -16.075   4.114  1.00  0.00    -0.266 OA
HETATM   16  H   UNL     1      43.225 -17.073   1.056  1.00  0.00     0.192 HD
BRANCH  14  17
HETATM   17  C   UNL     1      43.572 -18.258   3.365  1.00  0.00     0.066 A 
HETATM   18  C   UNL     1      44.013 -18.692   4.625  1.00  0.00     0.081 A 
HETATM   19  C   UNL     1      44.208 -20.048   4.881  1.00  0.00     0.037 A 
HETATM   20  C   UNL     1      43.988 -20.985   3.873  1.00  0.00     0.003 A 
HETATM   21  C   UNL     1      43.579 -20.565   2.608  1.00  0.00     0.001 A 
HETATM   22  C   UNL     1      43.375 -19.206   2.350  1.00  0.00     0.020 A 
BRANCH  18  23
HETATM   23  O   UNL     1      44.275 -17.836   5.663  1.00  0.00    -0.360 OA
HETATM   24  H   UNL     1      43.419 -17.448   5.955  1.00  0.00     0.217 HD
ENDBRANCH  18  23
ENDBRANCH  14  17
ENDBRANCH  12  13
ENDBRANCH   6  11
BRANCH   1  25
HETATM   25  C   UNL     1      42.289 -12.219   3.358  1.00  0.00    -0.009 A 
HETATM   26  C   UNL     1      43.535 -11.607   3.540  1.00  0.00     0.014 A 
HETATM   27  C   UNL     1      44.120 -11.561   4.808  1.00  0.00     0.001 A 
HETATM   28  C   UNL     1      43.462 -12.125   5.900  1.00  0.00     0.000 A 
HETATM   29  C   UNL     1      42.222 -12.738   5.727  1.00  0.00     0.001 A 
HETATM   30  C   UNL     1      41.637 -12.787   4.460  1.00  0.00     0.014 A 
ENDBRANCH   1  25
TORSDOF 5
ENDMDL
MODEL 7
REMARK VINA RESULT:      -8.4      1.537      4.845
REMARK  5 active torsions:
REMARK  status: ('A' for Active; 'I' for Inactive)
REMARK    1  A    between atoms: C_4  and  C_5 
REMARK    2  A    between atoms: C_10  and  C_11 
REMARK    3  A    between atoms: N_12  and  N_13 
REMARK       I    between atoms: N_13  and  C_14 
REMARK    4  A    between atoms: C_14  and  C_15 
REMARK    5  A    between atoms: C_16  and  O_17 
ROOT
HETATM    1  C   UNL     1      43.131 -15.291   4.496  1.00  0.00     0.055 A 
HETATM    2  N   UNL     1      43.681 -14.916   5.700  1.00  0.00    -0.354 N 
HETATM    3  H   UNL     1      44.229 -15.521   6.293  1.00  0.00     0.166 HD
HETATM    4  C   UNL     1      43.413 -13.599   5.977  1.00  0.00     0.043 A 
HETATM    5  C   UNL     1      42.662 -13.103   4.911  1.00  0.00     0.005 A 
HETATM    6  C   UNL     1      42.478 -14.177   3.977  1.00  0.00     0.023 A 
HETATM    7  C   UNL     1      43.780 -12.820   7.081  1.00  0.00     0.030 A 
HETATM    8  C   UNL     1      43.363 -11.486   7.101  1.00  0.00     0.002 A 
HETATM    9  C   UNL     1      42.612 -10.956   6.056  1.00  0.00     0.001 A 
HETATM   10  C   UNL     1      42.256 -11.750   4.960  1.00  0.00     0.014 A 
ENDROOT
BRANCH   6  11
HETATM   11  C   UNL     1      41.745 -14.172   2.724  1.00  0.00     0.153 C 
HETATM   12  N   UNL     1      40.477 -13.915   2.716  1.00  0.00    -0.183 NA
BRANCH  12  13
HETATM   13  N   UNL     1      39.868 -13.932   1.494  1.00  0.00    -0.243 N 
HETATM   14  C   UNL     1      39.690 -12.740   0.809  1.00  0.00     0.274 C 
HETATM   15  O   UNL     1      40.075 -11.635   1.191  1.00  0.00    -0.266 OA
HETATM   16  H   UNL     1      39.666 -14.823   1.058  1.00  0.00     0.192 HD
BRANCH  14  17
HETATM   17  C   UNL     1      39.033 -12.833  -0.523  1.00  0.00     0.066 A 
HETATM   18  C   UNL     1      39.580 -13.680  -1.500  1.00  0.00     0.081 A 
HETATM   19  C   UNL     1      38.973 -13.810  -2.748  1.00  0.00     0.037 A 
HETATM   20  C   UNL     1      37.826 -13.075  -3.043  1.00  0.00     0.003 A 
HETATM   21  C   UNL     1      37.290 -12.207  -2.093  1.00  0.00     0.001 A 
HETATM   22  C   UNL     1      37.892 -12.081  -0.837  1.00  0.00     0.020 A 
BRANCH  18  23
HETATM   23  O   UNL     1      40.717 -14.419  -1.300  1.00  0.00    -0.360 OA
HETATM   24  H   UNL     1      40.790 -14.602  -0.335  1.00  0.00     0.217 HD
ENDBRANCH  18  23
ENDBRANCH  14  17
ENDBRANCH  12  13
ENDBRANCH   6  11
BRANCH   1  25
HETATM   25  C   UNL     1      43.309 -16.643   3.972  1.00  0.00    -0.009 A 
HETATM   26  C   UNL     1      44.059 -17.586   4.686  1.00  0.00     0.014 A 
HETATM   27  C   UNL     1      44.233 -18.877   4.182  1.00  0.00     0.001 A 
HETATM   28  C   UNL     1      43.659 -19.233   2.963  1.00  0.00     0.000 A 
HETATM   29  C   UNL     1      42.912 -18.299   2.244  1.00  0.00     0.001 A 
HETATM   30  C   UNL     1      42.739 -17.009   2.746  1.00  0.00     0.014 A 
ENDBRANCH   1  25
TORSDOF 5
ENDMDL
MODEL 8
REMARK VINA RESULT:      -8.2      3.526      7.997
REMARK  5 active torsions:
REMARK  status: ('A' for Active; 'I' for Inactive)
REMARK    1  A    between atoms: C_4  and  C_5 
REMARK    2  A    between atoms: C_10  and  C_11 
REMARK    3  A    between atoms: N_12  and  N_13 
REMARK       I    between atoms: N_13  and  C_14 
REMARK    4  A    between atoms: C_14  and  C_15 
REMARK    5  A    between atoms: C_16  and  O_17 
ROOT
HETATM    1  C   UNL     1      42.268 -10.449   5.947  1.00  0.00     0.055 A 
HETATM    2  N   UNL     1      42.288  -9.320   6.734  1.00  0.00    -0.354 N 
HETATM    3  H   UNL     1      41.635  -8.555   6.654  1.00  0.00     0.166 HD
HETATM    4  C   UNL     1      43.296  -9.383   7.663  1.00  0.00     0.043 A 
HETATM    5  C   UNL     1      43.952 -10.599   7.472  1.00  0.00     0.005 A 
HETATM    6  C   UNL     1      43.305 -11.271   6.380  1.00  0.00     0.023 A 
HETATM    7  C   UNL     1      43.667  -8.461   8.650  1.00  0.00     0.030 A 
HETATM    8  C   UNL     1      44.749  -8.791   9.471  1.00  0.00     0.002 A 
HETATM    9  C   UNL     1      45.428  -9.994   9.309  1.00  0.00     0.001 A 
HETATM   10  C   UNL     1      45.042 -10.903   8.318  1.00  0.00     0.014 A 
ENDROOT
BRANCH   6  11
HETATM   11  C   UNL     1      43.634 -12.552   5.783  1.00  0.00     0.153 C 
HETATM   12  N   UNL     1      43.072 -13.633   6.216  1.00  0.00    -0.183 NA
BRANCH  12  13
HETATM   13  N   UNL     1      43.441 -14.793   5.597  1.00  0.00    -0.243 N 
HETATM   14  C   UNL     1      42.497 -15.503   4.871  1.00  0.00     0.274 C 
HETATM   15  O   UNL     1      41.329 -15.159   4.693  1.00  0.00    -0.266 OA
HETATM   16  H   UNL     1      44.420 -15.050   5.579  1.00  0.00     0.192 HD
BRANCH  14  17
HETATM   17  C   UNL     1      42.972 -16.749   4.211  1.00  0.00     0.066 A 
HETATM   18  C   UNL     1      43.770 -17.649   4.935  1.00  0.00     0.081 A 
HETATM   19  C   UNL     1      44.208 -18.837   4.353  1.00  0.00     0.037 A 
HETATM   20  C   UNL     1      43.875 -19.128   3.032  1.00  0.00     0.003 A 
HETATM   21  C   UNL     1      43.109 -18.229   2.290  1.00  0.00     0.001 A 
HETATM   22  C   UNL     1      42.661 -17.040   2.874  1.00  0.00     0.020 A 
BRANCH  18  23
HETATM   23  O   UNL     1      44.162 -17.428   6.230  1.00  0.00    -0.360 OA
HETATM   24  H   UNL     1      44.620 -16.557   6.260  1.00  0.00     0.217 HD
ENDBRANCH  18  23
ENDBRANCH  14  17
ENDBRANCH  12  13
ENDBRANCH   6  11
BRANCH   1  25
HETATM   25  C   UNL     1      41.262 -10.625   4.903  1.00  0.00    -0.009 A 
HETATM   26  C   UNL     1      40.253 -11.586   5.046  1.00  0.00     0.014 A 
HETATM   27  C   UNL     1      39.294 -11.757   4.045  1.00  0.00     0.001 A 
HETATM   28  C   UNL     1      39.338 -10.969   2.895  1.00  0.00     0.000 A 
HETATM   29  C   UNL     1      40.341 -10.012   2.744  1.00  0.00     0.001 A 
HETATM   30  C   UNL     1      41.300  -9.841   3.744  1.00  0.00     0.014 A 
ENDBRANCH   1  25
TORSDOF 5
ENDMDL
MODEL 9
REMARK VINA RESULT:      -8.1     14.515     16.352
REMARK  5 active torsions:
REMARK  status: ('A' for Active; 'I' for Inactive)
REMARK    1  A    between atoms: C_4  and  C_5 
REMARK    2  A    between atoms: C_10  and  C_11 
REMARK    3  A    between atoms: N_12  and  N_13 
REMARK       I    between atoms: N_13  and  C_14 
REMARK    4  A    between atoms: C_14  and  C_15 
REMARK    5  A    between atoms: C_16  and  O_17 
ROOT
HETATM    1  C   UNL     1      46.753 -29.360   0.711  1.00  0.00     0.055 A 
HETATM    2  N   UNL     1      47.237 -28.718  -0.407  1.00  0.00    -0.354 N 
HETATM    3  H   UNL     1      48.173 -28.352  -0.497  1.00  0.00     0.166 HD
HETATM    4  C   UNL     1      46.287 -28.666  -1.396  1.00  0.00     0.043 A 
HETATM    5  C   UNL     1      45.147 -29.299  -0.902  1.00  0.00     0.005 A 
HETATM    6  C   UNL     1      45.440 -29.732   0.436  1.00  0.00     0.023 A 
HETATM    7  C   UNL     1      46.358 -28.113  -2.681  1.00  0.00     0.030 A 
HETATM    8  C   UNL     1      45.222 -28.206  -3.490  1.00  0.00     0.002 A 
HETATM    9  C   UNL     1      44.066 -28.829  -3.030  1.00  0.00     0.001 A 
HETATM   10  C   UNL     1      44.015 -29.377  -1.743  1.00  0.00     0.014 A 
ENDROOT
BRANCH   6  11
HETATM   11  C   UNL     1      44.571 -30.413   1.378  1.00  0.00     0.153 C 
HETATM   12  N   UNL     1      43.624 -29.764   1.973  1.00  0.00    -0.183 NA
BRANCH  12  13
HETATM   13  N   UNL     1      42.856 -30.483   2.842  1.00  0.00    -0.243 N 
HETATM   14  C   UNL     1      41.520 -30.702   2.545  1.00  0.00     0.274 C 
HETATM   15  O   UNL     1      40.948 -30.330   1.521  1.00  0.00    -0.266 OA
HETATM   16  H   UNL     1      43.302 -30.944   3.626  1.00  0.00     0.192 HD
BRANCH  14  17
HETATM   17  C   UNL     1      40.746 -31.506   3.529  1.00  0.00     0.066 A 
HETATM   18  C   UNL     1      40.872 -31.223   4.899  1.00  0.00     0.081 A 
HETATM   19  C   UNL     1      40.142 -31.941   5.843  1.00  0.00     0.037 A 
HETATM   20  C   UNL     1      39.294 -32.968   5.432  1.00  0.00     0.003 A 
HETATM   21  C   UNL     1      39.183 -33.282   4.078  1.00  0.00     0.001 A 
HETATM   22  C   UNL     1      39.909 -32.557   3.127  1.00  0.00     0.020 A 
BRANCH  18  23
HETATM   23  O   UNL     1      41.700 -30.246   5.389  1.00  0.00    -0.360 OA
HETATM   24  H   UNL     1      41.187 -29.406   5.420  1.00  0.00     0.217 HD
ENDBRANCH  18  23
ENDBRANCH  14  17
ENDBRANCH  12  13
ENDBRANCH   6  11
BRANCH   1  25
HETATM   25  C   UNL     1      47.594 -29.564   1.888  1.00  0.00    -0.009 A 
HETATM   26  C   UNL     1      48.015 -28.471   2.655  1.00  0.00     0.014 A 
HETATM   27  C   UNL     1      48.824 -28.667   3.778  1.00  0.00     0.001 A 
HETATM   28  C   UNL     1      49.214 -29.956   4.140  1.00  0.00     0.000 A 
HETATM   29  C   UNL     1      48.800 -31.049   3.379  1.00  0.00     0.001 A 
HETATM   30  C   UNL     1      47.994 -30.854   2.256  1.00  0.00     0.014 A 
ENDBRANCH   1  25
TORSDOF 5
ENDMDL
MODEL 10
REMARK VINA RESULT:      -7.9     14.704     17.532
REMARK  5 active torsions:
REMARK  status: ('A' for Active; 'I' for Inactive)
REMARK    1  A    between atoms: C_4  and  C_5 
REMARK    2  A    between atoms: C_10  and  C_11 
REMARK    3  A    between atoms: N_12  and  N_13 
REMARK       I    between atoms: N_13  and  C_14 
REMARK    4  A    between atoms: C_14  and  C_15 
REMARK    5  A    between atoms: C_16  and  O_17 
ROOT
HETATM    1  C   UNL     1      44.122 -29.838  -0.214  1.00  0.00     0.055 A 
HETATM    2  N   UNL     1      42.959 -29.458   0.416  1.00  0.00    -0.354 N 
HETATM    3  H   UNL     1      42.270 -28.835   0.019  1.00  0.00     0.166 HD
HETATM    4  C   UNL     1      42.841 -30.061   1.643  1.00  0.00     0.043 A 
HETATM    5  C   UNL     1      43.970 -30.862   1.814  1.00  0.00     0.005 A 
HETATM    6  C   UNL     1      44.784 -30.715   0.641  1.00  0.00     0.023 A 
HETATM    7  C   UNL     1      41.825 -29.957   2.601  1.00  0.00     0.030 A 
HETATM    8  C   UNL     1      41.967 -30.696   3.779  1.00  0.00     0.002 A 
HETATM    9  C   UNL     1      43.080 -31.505   3.985  1.00  0.00     0.001 A 
HETATM   10  C   UNL     1      44.085 -31.597   3.015  1.00  0.00     0.014 A 
ENDROOT
BRANCH   6  11
HETATM   11  C   UNL     1      46.071 -31.321   0.350  1.00  0.00     0.153 C 
HETATM   12  N   UNL     1      47.163 -30.667   0.581  1.00  0.00    -0.183 NA
BRANCH  12  13
HETATM   13  N   UNL     1      48.326 -31.314   0.277  1.00  0.00    -0.243 N 
HETATM   14  C   UNL     1      49.381 -30.594  -0.263  1.00  0.00     0.274 C 
HETATM   15  O   UNL     1      49.384 -29.381  -0.467  1.00  0.00    -0.266 OA
HETATM   16  H   UNL     1      48.440 -32.279   0.561  1.00  0.00     0.192 HD
BRANCH  14  17
HETATM   17  C   UNL     1      50.623 -31.359  -0.556  1.00  0.00     0.066 A 
HETATM   18  C   UNL     1      51.412 -30.993  -1.658  1.00  0.00     0.081 A 
HETATM   19  C   UNL     1      52.594 -31.673  -1.943  1.00  0.00     0.037 A 
HETATM   20  C   UNL     1      52.990 -32.744  -1.143  1.00  0.00     0.003 A 
HETATM   21  C   UNL     1      52.201 -33.139  -0.064  1.00  0.00     0.001 A 
HETATM   22  C   UNL     1      51.018 -32.453   0.229  1.00  0.00     0.020 A 
BRANCH  18  23
HETATM   23  O   UNL     1      51.083 -29.968  -2.507  1.00  0.00    -0.360 OA
HETATM   24  H   UNL     1      51.896 -29.716  -3.003  1.00  0.00     0.217 HD
ENDBRANCH  18  23
ENDBRANCH  14  17
ENDBRANCH  12  13
ENDBRANCH   6  11
BRANCH   1  25
HETATM   25  C   UNL     1      44.454 -29.348  -1.549  1.00  0.00    -0.009 A 
HETATM   26  C   UNL     1      45.218 -28.186  -1.708  1.00  0.00     0.014 A 
HETATM   27  C   UNL     1      45.530 -27.715  -2.986  1.00  0.00     0.001 A 
HETATM   28  C   UNL     1      45.080 -28.403  -4.112  1.00  0.00     0.000 A 
HETATM   29  C   UNL     1      44.316 -29.560  -3.962  1.00  0.00     0.001 A 
HETATM   30  C   UNL     1      44.003 -30.031  -2.686  1.00  0.00     0.014 A 
ENDBRANCH   1  25
TORSDOF 5
ENDMDL
