MODEL 1
REMARK VINA RESULT:      -8.0      0.000      0.000
REMARK  3 active torsions:
REMARK  status: ('A' for Active; 'I' for Inactive)
REMARK    1  A    between atoms: C_4  and  N_5 
REMARK       I    between atoms: N_5  and  C_6 
REMARK    2  A    between atoms: C_6  and  C_7 
REMARK    3  A    between atoms: C_7  and  C_8 
ROOT
HETATM    1  C   UNL     1      42.816 -15.070   6.680  1.00  0.00     0.286 C 
HETATM    2  N   UNL     1      41.779 -15.828   5.841  1.00  0.00    -0.056 N 
HETATM    3  H   UNL     1      42.019 -16.832   5.837  1.00  0.00     0.278 HD
HETATM    4  H   UNL     1      40.862 -15.748   6.299  1.00  0.00     0.278 HD
HETATM    5  C   UNL     1      41.666 -15.386   4.403  1.00  0.00     0.209 C 
HETATM    6  C   UNL     1      41.532 -13.854   4.332  1.00  0.00     0.115 C 
HETATM    7  N   UNL     1      42.600 -13.184   5.051  1.00  0.00    -0.353 N 
HETATM    8  C   UNL     1      43.122 -13.627   6.234  1.00  0.00     0.249 C 
HETATM    9  O   UNL     1      43.883 -12.908   6.875  1.00  0.00    -0.271 OA
HETATM   10  C   UNL     1      40.467 -16.064   3.747  1.00  0.00     0.035 C 
HETATM   11  C   UNL     1      40.360 -15.634   2.282  1.00  0.00     0.002 C 
HETATM   12  C   UNL     1      40.348 -14.113   2.119  1.00  0.00     0.002 C 
HETATM   13  C   UNL     1      41.495 -13.427   2.862  1.00  0.00     0.027 C 
HETATM   14  H   UNL     1      42.799 -12.206   4.848  1.00  0.00     0.163 HD
ENDROOT
BRANCH   1  15
HETATM   15  C   UNL     1      44.123 -15.854   6.836  1.00  0.00     0.146 C 
BRANCH  15  16
HETATM   16  C   UNL     1      43.917 -17.263   6.344  1.00  0.00     0.224 C 
HETATM   17  N   UNL     1      44.456 -17.501   5.100  1.00  0.00    -0.327 N 
HETATM   18  H   UNL     1      45.136 -16.836   4.734  1.00  0.00     0.169 HD
HETATM   19  O   UNL     1      43.172 -17.992   6.995  1.00  0.00    -0.273 OA
BRANCH  17  20
HETATM   20  C   UNL     1      44.153 -18.571   4.229  1.00  0.00     0.034 A 
HETATM   21  C   UNL     1      44.308 -19.918   4.563  1.00  0.00     0.029 A 
HETATM   22  C   UNL     1      43.929 -20.919   3.661  1.00  0.00     0.002 A 
HETATM   23  C   UNL     1      43.399 -20.581   2.418  1.00  0.00     0.000 A 
HETATM   24  C   UNL     1      43.249 -19.241   2.073  1.00  0.00     0.002 A 
HETATM   25  C   UNL     1      43.623 -18.241   2.976  1.00  0.00     0.029 A 
ENDBRANCH  17  20
ENDBRANCH  15  16
ENDBRANCH   1  15
TORSDOF 3
ENDMDL
MODEL 2
REMARK VINA RESULT:      -7.8      3.372      4.432
REMARK  3 active torsions:
REMARK  status: ('A' for Active; 'I' for Inactive)
REMARK    1  A    between atoms: C_4  and  N_5 
REMARK       I    between atoms: N_5  and  C_6 
REMARK    2  A    between atoms: C_6  and  C_7 
REMARK    3  A    between atoms: C_7  and  C_8 
ROOT
HETATM    1  C   UNL     1      41.191 -14.324   1.535  1.00  0.00     0.286 C 
HETATM    2  N   UNL     1      40.257 -14.950   0.491  1.00  0.00    -0.056 N 
HETATM    3  H   UNL     1      40.571 -15.914   0.295  1.00  0.00     0.278 HD
HETATM    4  H   UNL     1      39.314 -15.025   0.895  1.00  0.00     0.278 HD
HETATM    5  C   UNL     1      40.185 -14.223  -0.828  1.00  0.00     0.209 C 
HETATM    6  C   UNL     1      39.942 -12.722  -0.590  1.00  0.00     0.115 C 
HETATM    7  N   UNL     1      40.920 -12.154   0.320  1.00  0.00    -0.353 N 
HETATM    8  C   UNL     1      41.412 -12.803   1.417  1.00  0.00     0.249 C 
HETATM    9  O   UNL     1      42.085 -12.190   2.241  1.00  0.00    -0.271 OA
HETATM   10  C   UNL     1      39.074 -14.820  -1.687  1.00  0.00     0.035 C 
HETATM   11  C   UNL     1      39.011 -14.099  -3.035  1.00  0.00     0.002 C 
HETATM   12  C   UNL     1      38.894 -12.581  -2.881  1.00  0.00     0.002 C 
HETATM   13  C   UNL     1      39.949 -11.998  -1.939  1.00  0.00     0.027 C 
HETATM   14  H   UNL     1      41.056 -11.145   0.337  1.00  0.00     0.163 HD
ENDROOT
BRANCH   1  15
HETATM   15  C   UNL     1      42.543 -15.042   1.610  1.00  0.00     0.146 C 
BRANCH  15  16
HETATM   16  C   UNL     1      42.407 -16.263   2.481  1.00  0.00     0.224 C 
HETATM   17  N   UNL     1      43.596 -16.920   2.706  1.00  0.00    -0.327 N 
HETATM   18  H   UNL     1      44.464 -16.427   2.503  1.00  0.00     0.169 HD
HETATM   19  O   UNL     1      41.272 -16.642   2.760  1.00  0.00    -0.273 OA
BRANCH  17  20
HETATM   20  C   UNL     1      43.765 -18.242   3.173  1.00  0.00     0.034 A 
HETATM   21  C   UNL     1      44.148 -18.569   4.475  1.00  0.00     0.029 A 
HETATM   22  C   UNL     1      44.237 -19.907   4.872  1.00  0.00     0.002 A 
HETATM   23  C   UNL     1      43.949 -20.929   3.970  1.00  0.00     0.000 A 
HETATM   24  C   UNL     1      43.574 -20.613   2.667  1.00  0.00     0.002 A 
HETATM   25  C   UNL     1      43.482 -19.276   2.272  1.00  0.00     0.029 A 
ENDBRANCH  17  20
ENDBRANCH  15  16
ENDBRANCH   1  15
TORSDOF 3
ENDMDL
MODEL 3
REMARK VINA RESULT:      -7.6      1.679      5.831
REMARK  3 active torsions:
REMARK  status: ('A' for Active; 'I' for Inactive)
REMARK    1  A    between atoms: C_4  and  N_5 
REMARK       I    between atoms: N_5  and  C_6 
REMARK    2  A    between atoms: C_6  and  C_7 
REMARK    3  A    between atoms: C_7  and  C_8 
ROOT
HETATM    1  C   UNL     1      43.153 -16.093   5.194  1.00  0.00     0.286 C 
HETATM    2  N   UNL     1      43.362 -16.741   3.819  1.00  0.00    -0.056 N 
HETATM    3  H   UNL     1      42.689 -16.334   3.149  1.00  0.00     0.278 HD
HETATM    4  H   UNL     1      44.301 -16.495   3.478  1.00  0.00     0.278 HD
HETATM    5  C   UNL     1      43.188 -18.239   3.778  1.00  0.00     0.209 C 
HETATM    6  C   UNL     1      43.998 -18.894   4.911  1.00  0.00     0.115 C 
HETATM    7  N   UNL     1      43.682 -18.319   6.205  1.00  0.00    -0.353 N 
HETATM    8  C   UNL     1      43.438 -16.991   6.414  1.00  0.00     0.249 C 
HETATM    9  O   UNL     1      43.370 -16.553   7.559  1.00  0.00    -0.271 OA
HETATM   10  C   UNL     1      43.628 -18.774   2.419  1.00  0.00     0.035 C 
HETATM   11  C   UNL     1      43.432 -20.290   2.366  1.00  0.00     0.002 C 
HETATM   12  C   UNL     1      44.109 -21.008   3.537  1.00  0.00     0.002 C 
HETATM   13  C   UNL     1      43.743 -20.404   4.893  1.00  0.00     0.027 C 
HETATM   14  H   UNL     1      43.915 -18.838   7.050  1.00  0.00     0.163 HD
ENDROOT
BRANCH   1  15
HETATM   15  C   UNL     1      41.766 -15.455   5.331  1.00  0.00     0.146 C 
BRANCH  15  16
HETATM   16  C   UNL     1      41.544 -14.505   4.184  1.00  0.00     0.224 C 
HETATM   17  N   UNL     1      40.363 -14.716   3.508  1.00  0.00    -0.327 N 
HETATM   18  H   UNL     1      39.648 -15.287   3.956  1.00  0.00     0.169 HD
HETATM   19  O   UNL     1      42.474 -13.768   3.863  1.00  0.00    -0.273 OA
BRANCH  17  20
HETATM   20  C   UNL     1      40.021 -14.249   2.220  1.00  0.00     0.034 A 
HETATM   21  C   UNL     1      39.560 -12.958   1.954  1.00  0.00     0.029 A 
HETATM   22  C   UNL     1      39.298 -12.557   0.640  1.00  0.00     0.002 A 
HETATM   23  C   UNL     1      39.490 -13.443  -0.417  1.00  0.00     0.000 A 
HETATM   24  C   UNL     1      39.941 -14.734  -0.161  1.00  0.00     0.002 A 
HETATM   25  C   UNL     1      40.207 -15.134   1.151  1.00  0.00     0.029 A 
ENDBRANCH  17  20
ENDBRANCH  15  16
ENDBRANCH   1  15
TORSDOF 3
ENDMDL
MODEL 4
REMARK VINA RESULT:      -7.6      1.690      2.405
REMARK  3 active torsions:
REMARK  status: ('A' for Active; 'I' for Inactive)
REMARK    1  A    between atoms: C_4  and  N_5 
REMARK       I    between atoms: N_5  and  C_6 
REMARK    2  A    between atoms: C_6  and  C_7 
REMARK    3  A    between atoms: C_7  and  C_8 
ROOT
HETATM    1  C   UNL     1      40.757 -13.761   5.347  1.00  0.00     0.286 C 
HETATM    2  N   UNL     1      40.262 -14.783   4.316  1.00  0.00    -0.056 N 
HETATM    3  H   UNL     1      40.699 -15.698   4.512  1.00  0.00     0.278 HD
HETATM    4  H   UNL     1      39.248 -14.910   4.438  1.00  0.00     0.278 HD
HETATM    5  C   UNL     1      40.558 -14.443   2.877  1.00  0.00     0.209 C 
HETATM    6  C   UNL     1      40.130 -12.994   2.580  1.00  0.00     0.115 C 
HETATM    7  N   UNL     1      40.714 -12.055   3.519  1.00  0.00    -0.353 N 
HETATM    8  C   UNL     1      40.880 -12.307   4.852  1.00  0.00     0.249 C 
HETATM    9  O   UNL     1      41.199 -11.398   5.613  1.00  0.00    -0.271 OA
HETATM   10  C   UNL     1      39.834 -15.419   1.954  1.00  0.00     0.035 C 
HETATM   11  C   UNL     1      40.149 -15.090   0.494  1.00  0.00     0.002 C 
HETATM   12  C   UNL     1      39.866 -13.626   0.151  1.00  0.00     0.002 C 
HETATM   13  C   UNL     1      40.511 -12.650   1.137  1.00  0.00     0.027 C 
HETATM   14  H   UNL     1      40.756 -11.067   3.274  1.00  0.00     0.163 HD
ENDROOT
BRANCH   1  15
HETATM   15  C   UNL     1      42.067 -14.196   6.014  1.00  0.00     0.146 C 
BRANCH  15  16
HETATM   16  C   UNL     1      42.264 -15.674   5.801  1.00  0.00     0.224 C 
HETATM   17  N   UNL     1      43.173 -15.976   4.812  1.00  0.00    -0.327 N 
HETATM   18  H   UNL     1      43.801 -15.240   4.494  1.00  0.00     0.169 HD
HETATM   19  O   UNL     1      41.504 -16.441   6.386  1.00  0.00    -0.273 OA
BRANCH  17  20
HETATM   20  C   UNL     1      43.329 -17.211   4.145  1.00  0.00     0.034 A 
HETATM   21  C   UNL     1      42.847 -17.473   2.861  1.00  0.00     0.029 A 
HETATM   22  C   UNL     1      43.094 -18.707   2.250  1.00  0.00     0.002 A 
HETATM   23  C   UNL     1      43.820 -19.690   2.919  1.00  0.00     0.000 A 
HETATM   24  C   UNL     1      44.298 -19.441   4.202  1.00  0.00     0.002 A 
HETATM   25  C   UNL     1      44.054 -18.207   4.811  1.00  0.00     0.029 A 
ENDBRANCH  17  20
ENDBRANCH  15  16
ENDBRANCH   1  15
TORSDOF 3
ENDMDL
MODEL 5
REMARK VINA RESULT:      -7.6      3.197      6.825
REMARK  3 active torsions:
REMARK  status: ('A' for Active; 'I' for Inactive)
REMARK    1  A    between atoms: C_4  and  N_5 
REMARK       I    between atoms: N_5  and  C_6 
REMARK    2  A    between atoms: C_6  and  C_7 
REMARK    3  A    between atoms: C_7  and  C_8 
ROOT
HETATM    1  C   UNL     1      42.583 -16.131   2.671  1.00  0.00     0.286 C 
HETATM    2  N   UNL     1      43.037 -17.492   2.128  1.00  0.00    -0.056 N 
HETATM    3  H   UNL     1      42.380 -17.797   1.392  1.00  0.00     0.278 HD
HETATM    4  H   UNL     1      43.953 -17.378   1.675  1.00  0.00     0.278 HD
HETATM    5  C   UNL     1      43.114 -18.600   3.149  1.00  0.00     0.209 C 
HETATM    6  C   UNL     1      43.898 -18.124   4.385  1.00  0.00     0.115 C 
HETATM    7  N   UNL     1      43.360 -16.888   4.924  1.00  0.00    -0.353 N 
HETATM    8  C   UNL     1      42.882 -15.863   4.159  1.00  0.00     0.249 C 
HETATM    9  O   UNL     1      42.625 -14.780   4.676  1.00  0.00    -0.271 OA
HETATM   10  C   UNL     1      43.774 -19.829   2.531  1.00  0.00     0.035 C 
HETATM   11  C   UNL     1      43.835 -20.962   3.557  1.00  0.00     0.002 C 
HETATM   12  C   UNL     1      44.494 -20.528   4.869  1.00  0.00     0.002 C 
HETATM   13  C   UNL     1      43.896 -19.239   5.435  1.00  0.00     0.027 C 
HETATM   14  H   UNL     1      43.585 -16.624   5.882  1.00  0.00     0.163 HD
ENDROOT
BRANCH   1  15
HETATM   15  C   UNL     1      41.104 -15.853   2.380  1.00  0.00     0.146 C 
BRANCH  15  16
HETATM   16  C   UNL     1      41.001 -14.747   1.363  1.00  0.00     0.224 C 
HETATM   17  N   UNL     1      39.816 -14.748   0.660  1.00  0.00    -0.327 N 
HETATM   18  H   UNL     1      39.039 -15.294   1.028  1.00  0.00     0.169 HD
HETATM   19  O   UNL     1      42.006 -14.076   1.143  1.00  0.00    -0.273 OA
BRANCH  17  20
HETATM   20  C   UNL     1      39.547 -14.087  -0.559  1.00  0.00     0.034 A 
HETATM   21  C   UNL     1      39.574 -12.700  -0.720  1.00  0.00     0.029 A 
HETATM   22  C   UNL     1      39.351 -12.129  -1.977  1.00  0.00     0.002 A 
HETATM   23  C   UNL     1      39.093 -12.938  -3.081  1.00  0.00     0.000 A 
HETATM   24  C   UNL     1      39.055 -14.321  -2.929  1.00  0.00     0.002 A 
HETATM   25  C   UNL     1      39.282 -14.892  -1.674  1.00  0.00     0.029 A 
ENDBRANCH  17  20
ENDBRANCH  15  16
ENDBRANCH   1  15
TORSDOF 3
ENDMDL
MODEL 6
REMARK VINA RESULT:      -7.3      3.586      7.343
REMARK  3 active torsions:
REMARK  status: ('A' for Active; 'I' for Inactive)
REMARK    1  A    between atoms: C_4  and  N_5 
REMARK       I    between atoms: N_5  and  C_6 
REMARK    2  A    between atoms: C_6  and  C_7 
REMARK    3  A    between atoms: C_7  and  C_8 
ROOT
HETATM    1  C   UNL     1      42.892 -12.633   4.638  1.00  0.00     0.286 C 
HETATM    2  N   UNL     1      42.725 -14.089   5.091  1.00  0.00    -0.056 N 
HETATM    3  H   UNL     1      43.222 -14.222   5.987  1.00  0.00     0.278 HD
HETATM    4  H   UNL     1      41.729 -14.264   5.279  1.00  0.00     0.278 HD
HETATM    5  C   UNL     1      43.247 -15.128   4.130  1.00  0.00     0.209 C 
HETATM    6  C   UNL     1      42.717 -14.847   2.712  1.00  0.00     0.115 C 
HETATM    7  N   UNL     1      42.997 -13.487   2.290  1.00  0.00    -0.353 N 
HETATM    8  C   UNL     1      42.935 -12.401   3.115  1.00  0.00     0.249 C 
HETATM    9  O   UNL     1      42.995 -11.268   2.644  1.00  0.00    -0.271 OA
HETATM   10  C   UNL     1      42.832 -16.520   4.596  1.00  0.00     0.035 C 
HETATM   11  C   UNL     1      43.377 -17.578   3.635  1.00  0.00     0.002 C 
HETATM   12  C   UNL     1      42.995 -17.298   2.180  1.00  0.00     0.002 C 
HETATM   13  C   UNL     1      43.321 -15.869   1.745  1.00  0.00     0.027 C 
HETATM   14  H   UNL     1      42.968 -13.259   1.297  1.00  0.00     0.163 HD
ENDROOT
BRANCH   1  15
HETATM   15  C   UNL     1      44.094 -11.952   5.302  1.00  0.00     0.146 C 
BRANCH  15  16
HETATM   16  C   UNL     1      43.826 -11.805   6.777  1.00  0.00     0.224 C 
HETATM   17  N   UNL     1      43.729 -10.497   7.196  1.00  0.00    -0.327 N 
HETATM   18  H   UNL     1      43.593  -9.774   6.491  1.00  0.00     0.169 HD
HETATM   19  O   UNL     1      43.883 -12.817   7.472  1.00  0.00    -0.273 OA
BRANCH  17  20
HETATM   20  C   UNL     1      43.825 -10.017   8.521  1.00  0.00     0.034 A 
HETATM   21  C   UNL     1      42.739  -9.553   9.266  1.00  0.00     0.029 A 
HETATM   22  C   UNL     1      42.913  -9.147  10.593  1.00  0.00     0.002 A 
HETATM   23  C   UNL     1      44.173  -9.197  11.185  1.00  0.00     0.000 A 
HETATM   24  C   UNL     1      45.263  -9.650  10.448  1.00  0.00     0.002 A 
HETATM   25  C   UNL     1      45.089 -10.059   9.122  1.00  0.00     0.029 A 
ENDBRANCH  17  20
ENDBRANCH  15  16
ENDBRANCH   1  15
TORSDOF 3
ENDMDL
MODEL 7
REMARK VINA RESULT:      -7.3      3.397      4.775
REMARK  3 active torsions:
REMARK  status: ('A' for Active; 'I' for Inactive)
REMARK    1  A    between atoms: C_4  and  N_5 
REMARK       I    between atoms: N_5  and  C_6 
REMARK    2  A    between atoms: C_6  and  C_7 
REMARK    3  A    between atoms: C_7  and  C_8 
ROOT
HETATM    1  C   UNL     1      41.327 -14.582   1.411  1.00  0.00     0.286 C 
HETATM    2  N   UNL     1      41.712 -13.255   0.744  1.00  0.00    -0.056 N 
HETATM    3  H   UNL     1      42.098 -12.619   1.460  1.00  0.00     0.278 HD
HETATM    4  H   UNL     1      42.468 -13.432   0.070  1.00  0.00     0.278 HD
HETATM    5  C   UNL     1      40.583 -12.528   0.057  1.00  0.00     0.209 C 
HETATM    6  C   UNL     1      39.818 -13.494  -0.865  1.00  0.00     0.115 C 
HETATM    7  N   UNL     1      39.382 -14.684  -0.157  1.00  0.00    -0.353 N 
HETATM    8  C   UNL     1      40.121 -15.321   0.799  1.00  0.00     0.249 C 
HETATM    9  O   UNL     1      39.772 -16.424   1.210  1.00  0.00    -0.271 OA
HETATM   10  C   UNL     1      41.136 -11.348  -0.737  1.00  0.00     0.035 C 
HETATM   11  C   UNL     1      39.992 -10.595  -1.419  1.00  0.00     0.002 C 
HETATM   12  C   UNL     1      39.105 -11.516  -2.260  1.00  0.00     0.002 C 
HETATM   13  C   UNL     1      38.634 -12.750  -1.490  1.00  0.00     0.027 C 
HETATM   14  H   UNL     1      38.635 -15.252  -0.554  1.00  0.00     0.163 HD
ENDROOT
BRANCH   1  15
HETATM   15  C   UNL     1      41.136 -14.438   2.925  1.00  0.00     0.146 C 
BRANCH  15  16
HETATM   16  C   UNL     1      41.593 -15.703   3.603  1.00  0.00     0.224 C 
HETATM   17  N   UNL     1      42.702 -16.276   3.020  1.00  0.00    -0.327 N 
HETATM   18  H   UNL     1      43.255 -15.710   2.378  1.00  0.00     0.169 HD
HETATM   19  O   UNL     1      40.869 -16.180   4.473  1.00  0.00    -0.273 OA
BRANCH  17  20
HETATM   20  C   UNL     1      43.164 -17.600   3.185  1.00  0.00     0.034 A 
HETATM   21  C   UNL     1      43.828 -18.060   4.324  1.00  0.00     0.029 A 
HETATM   22  C   UNL     1      44.203 -19.404   4.430  1.00  0.00     0.002 A 
HETATM   23  C   UNL     1      43.921 -20.296   3.398  1.00  0.00     0.000 A 
HETATM   24  C   UNL     1      43.267 -19.845   2.256  1.00  0.00     0.002 A 
HETATM   25  C   UNL     1      42.890 -18.503   2.150  1.00  0.00     0.029 A 
ENDBRANCH  17  20
ENDBRANCH  15  16
ENDBRANCH   1  15
TORSDOF 3
ENDMDL
MODEL 8
REMARK VINA RESULT:      -7.3      3.014      4.991
REMARK  3 active torsions:
REMARK  status: ('A' for Active; 'I' for Inactive)
REMARK    1  A    between atoms: C_4  and  N_5 
REMARK       I    between atoms: N_5  and  C_6 
REMARK    2  A    between atoms: C_6  and  C_7 
REMARK    3  A    between atoms: C_7  and  C_8 
ROOT
HETATM    1  C   UNL     1      42.422 -12.223   5.713  1.00  0.00     0.286 C 
HETATM    2  N   UNL     1      43.888 -11.929   6.054  1.00  0.00    -0.056 N 
HETATM    3  H   UNL     1      44.415 -12.818   6.066  1.00  0.00     0.278 HD
HETATM    4  H   UNL     1      44.294 -11.357   5.302  1.00  0.00     0.278 HD
HETATM    5  C   UNL     1      44.118 -11.253   7.383  1.00  0.00     0.209 C 
HETATM    6  C   UNL     1      43.186 -10.036   7.522  1.00  0.00     0.115 C 
HETATM    7  N   UNL     1      41.797 -10.391   7.296  1.00  0.00    -0.353 N 
HETATM    8  C   UNL     1      41.379 -11.287   6.354  1.00  0.00     0.249 C 
HETATM    9  O   UNL     1      40.183 -11.389   6.092  1.00  0.00    -0.271 OA
HETATM   10  C   UNL     1      45.580 -10.830   7.502  1.00  0.00     0.035 C 
HETATM   11  C   UNL     1      45.822 -10.162   8.856  1.00  0.00     0.002 C 
HETATM   12  C   UNL     1      44.846  -9.014   9.125  1.00  0.00     0.002 C 
HETATM   13  C   UNL     1      43.386  -9.414   8.907  1.00  0.00     0.027 C 
HETATM   14  H   UNL     1      41.064  -9.770   7.635  1.00  0.00     0.163 HD
ENDROOT
BRANCH   1  15
HETATM   15  C   UNL     1      42.044 -13.684   5.981  1.00  0.00     0.146 C 
BRANCH  15  16
HETATM   16  C   UNL     1      42.519 -14.536   4.834  1.00  0.00     0.224 C 
HETATM   17  N   UNL     1      42.300 -15.883   5.015  1.00  0.00    -0.327 N 
HETATM   18  H   UNL     1      41.644 -16.171   5.740  1.00  0.00     0.169 HD
HETATM   19  O   UNL     1      43.182 -13.992   3.954  1.00  0.00    -0.273 OA
BRANCH  17  20
HETATM   20  C   UNL     1      42.911 -16.948   4.318  1.00  0.00     0.034 A 
HETATM   21  C   UNL     1      43.886 -17.785   4.867  1.00  0.00     0.029 A 
HETATM   22  C   UNL     1      44.400 -18.854   4.125  1.00  0.00     0.002 A 
HETATM   23  C   UNL     1      43.948 -19.092   2.829  1.00  0.00     0.000 A 
HETATM   24  C   UNL     1      42.983 -18.260   2.271  1.00  0.00     0.002 A 
HETATM   25  C   UNL     1      42.467 -17.194   3.013  1.00  0.00     0.029 A 
ENDBRANCH  17  20
ENDBRANCH  15  16
ENDBRANCH   1  15
TORSDOF 3
ENDMDL
MODEL 9
REMARK VINA RESULT:      -6.9      2.827      6.671
REMARK  3 active torsions:
REMARK  status: ('A' for Active; 'I' for Inactive)
REMARK    1  A    between atoms: C_4  and  N_5 
REMARK       I    between atoms: N_5  and  C_6 
REMARK    2  A    between atoms: C_6  and  C_7 
REMARK    3  A    between atoms: C_7  and  C_8 
ROOT
HETATM    1  C   UNL     1      40.955 -14.326   3.891  1.00  0.00     0.286 C 
HETATM    2  N   UNL     1      41.863 -15.171   4.794  1.00  0.00    -0.056 N 
HETATM    3  H   UNL     1      42.454 -14.541   5.360  1.00  0.00     0.278 HD
HETATM    4  H   UNL     1      41.275 -15.694   5.456  1.00  0.00     0.278 HD
HETATM    5  C   UNL     1      42.783 -16.124   4.073  1.00  0.00     0.209 C 
HETATM    6  C   UNL     1      41.987 -16.943   3.040  1.00  0.00     0.115 C 
HETATM    7  N   UNL     1      41.231 -16.092   2.141  1.00  0.00    -0.353 N 
HETATM    8  C   UNL     1      40.596 -14.945   2.526  1.00  0.00     0.249 C 
HETATM    9  O   UNL     1      39.820 -14.386   1.756  1.00  0.00    -0.271 OA
HETATM   10  C   UNL     1      43.468 -17.043   5.079  1.00  0.00     0.035 C 
HETATM   11  C   UNL     1      44.418 -17.998   4.354  1.00  0.00     0.002 C 
HETATM   12  C   UNL     1      43.726 -18.763   3.223  1.00  0.00     0.002 C 
HETATM   13  C   UNL     1      42.956 -17.847   2.271  1.00  0.00     0.027 C 
HETATM   14  H   UNL     1      40.905 -16.471   1.254  1.00  0.00     0.163 HD
ENDROOT
BRANCH   1  15
HETATM   15  C   UNL     1      41.491 -12.904   3.693  1.00  0.00     0.146 C 
BRANCH  15  16
HETATM   16  C   UNL     1      41.859 -12.324   5.033  1.00  0.00     0.224 C 
HETATM   17  N   UNL     1      42.986 -11.532   5.004  1.00  0.00    -0.327 N 
HETATM   18  H   UNL     1      43.320 -11.203   4.100  1.00  0.00     0.169 HD
HETATM   19  O   UNL     1      41.247 -12.727   6.019  1.00  0.00    -0.273 OA
BRANCH  17  20
HETATM   20  C   UNL     1      43.775 -11.132   6.105  1.00  0.00     0.034 A 
HETATM   21  C   UNL     1      45.096 -11.535   6.308  1.00  0.00     0.029 A 
HETATM   22  C   UNL     1      45.827 -11.046   7.396  1.00  0.00     0.002 A 
HETATM   23  C   UNL     1      45.241 -10.154   8.292  1.00  0.00     0.000 A 
HETATM   24  C   UNL     1      43.923  -9.752   8.103  1.00  0.00     0.002 A 
HETATM   25  C   UNL     1      43.194 -10.238   7.014  1.00  0.00     0.029 A 
ENDBRANCH  17  20
ENDBRANCH  15  16
ENDBRANCH   1  15
TORSDOF 3
ENDMDL
MODEL 10
REMARK VINA RESULT:      -6.9      3.015      6.693
REMARK  3 active torsions:
REMARK  status: ('A' for Active; 'I' for Inactive)
REMARK    1  A    between atoms: C_4  and  N_5 
REMARK       I    between atoms: N_5  and  C_6 
REMARK    2  A    between atoms: C_6  and  C_7 
REMARK    3  A    between atoms: C_7  and  C_8 
ROOT
HETATM    1  C   UNL     1      42.521 -14.474   4.937  1.00  0.00     0.286 C 
HETATM    2  N   UNL     1      42.487 -13.690   3.619  1.00  0.00    -0.056 N 
HETATM    3  H   UNL     1      42.473 -12.679   3.830  1.00  0.00     0.278 HD
HETATM    4  H   UNL     1      43.359 -13.870   3.105  1.00  0.00     0.278 HD
HETATM    5  C   UNL     1      41.306 -13.980   2.727  1.00  0.00     0.209 C 
HETATM    6  C   UNL     1      41.136 -15.500   2.556  1.00  0.00     0.115 C 
HETATM    7  N   UNL     1      41.064 -16.182   3.836  1.00  0.00    -0.353 N 
HETATM    8  C   UNL     1      41.810 -15.841   4.928  1.00  0.00     0.249 C 
HETATM    9  O   UNL     1      41.837 -16.581   5.907  1.00  0.00    -0.271 OA
HETATM   10  C   UNL     1      41.502 -13.304   1.373  1.00  0.00     0.035 C 
HETATM   11  C   UNL     1      40.297 -13.578   0.472  1.00  0.00     0.002 C 
HETATM   12  C   UNL     1      39.984 -15.071   0.352  1.00  0.00     0.002 C 
HETATM   13  C   UNL     1      39.888 -15.768   1.710  1.00  0.00     0.027 C 
HETATM   14  H   UNL     1      40.669 -17.120   3.877  1.00  0.00     0.163 HD
ENDROOT
BRANCH   1  15
HETATM   15  C   UNL     1      42.028 -13.639   6.124  1.00  0.00     0.146 C 
BRANCH  15  16
HETATM   16  C   UNL     1      42.856 -12.385   6.223  1.00  0.00     0.224 C 
HETATM   17  N   UNL     1      43.799 -12.420   7.226  1.00  0.00    -0.327 N 
HETATM   18  H   UNL     1      44.035 -13.323   7.633  1.00  0.00     0.169 HD
HETATM   19  O   UNL     1      42.517 -11.421   5.541  1.00  0.00    -0.273 OA
BRANCH  17  20
HETATM   20  C   UNL     1      44.480 -11.321   7.795  1.00  0.00     0.034 A 
HETATM   21  C   UNL     1      45.701 -10.830   7.328  1.00  0.00     0.029 A 
HETATM   22  C   UNL     1      46.281  -9.700   7.915  1.00  0.00     0.002 A 
HETATM   23  C   UNL     1      45.648  -9.056   8.975  1.00  0.00     0.000 A 
HETATM   24  C   UNL     1      44.435  -9.543   9.453  1.00  0.00     0.002 A 
HETATM   25  C   UNL     1      43.854 -10.670   8.865  1.00  0.00     0.029 A 
ENDBRANCH  17  20
ENDBRANCH  15  16
ENDBRANCH   1  15
TORSDOF 3
ENDMDL
