MODEL 1
REMARK VINA RESULT:      -7.7      0.000      0.000
REMARK  5 active torsions:
REMARK  status: ('A' for Active; 'I' for Inactive)
REMARK    1  A    between atoms: C_8  and  N_9 
REMARK       I    between atoms: N_9  and  C_10 
REMARK    2  A    between atoms: C_10  and  C_11 
REMARK    3  A    between atoms: C_11  and  N_12 
REMARK    4  A    between atoms: N_12  and  C_13 
REMARK    5  A    between atoms: C_13  and  C_14 
ROOT
HETATM    1  C   UNL     1      41.824 -15.615   6.665  1.00  0.00     0.372 C 
ENDROOT
BRANCH   1   2
HETATM    2  C   UNL     1      40.765 -14.707   6.011  1.00  0.00     0.250 C 
HETATM    3  N   UNL     1      41.010 -14.506   4.666  1.00  0.00    -0.322 N 
HETATM    4  H   UNL     1      41.783 -15.008   4.251  1.00  0.00     0.169 HD
HETATM    5  O   UNL     1      39.794 -14.305   6.644  1.00  0.00    -0.271 OA
BRANCH   3   6
HETATM    6  C   UNL     1      40.249 -13.755   3.783  1.00  0.00     0.085 A 
HETATM    7  C   UNL     1      39.775 -14.293   2.599  1.00  0.00     0.052 A 
HETATM    8  C   UNL     1      39.894 -15.639   1.990  1.00  0.00     0.072 C 
HETATM    9  N   UNL     1      39.074 -13.294   1.989  1.00  0.00    -0.280 N 
HETATM   10  H   UNL     1      38.577 -13.324   1.104  1.00  0.00     0.189 HD
HETATM   11  N   UNL     1      39.060 -12.147   2.671  1.00  0.00    -0.177 NA
HETATM   12  C   UNL     1      39.783 -12.407   3.773  1.00  0.00     0.079 A 
HETATM   13  C   UNL     1      39.999 -11.299   4.738  1.00  0.00     0.075 C 
ENDBRANCH   3   6
ENDBRANCH   1   2
BRANCH   1  14
HETATM   14  N   UNL     1      42.043 -16.803   5.834  1.00  0.00     0.101 N 
HETATM   15  H   UNL     1      41.920 -16.537   4.850  1.00  0.00     0.317 HD
BRANCH  14  16
HETATM   16  C   UNL     1      43.352 -17.446   6.017  1.00  0.00     0.254 C 
HETATM   17  C   UNL     1      44.526 -16.458   6.006  1.00  0.00     0.048 C 
BRANCH  16  18
HETATM   18  C   UNL     1      43.594 -18.505   4.948  1.00  0.00     0.035 A 
HETATM   19  C   UNL     1      43.581 -18.217   3.572  1.00  0.00     0.045 A 
HETATM   20 CL   UNL     1      43.292 -16.623   2.962  1.00  0.00    -0.084 Cl
HETATM   21  C   UNL     1      43.770 -19.229   2.620  1.00  0.00     0.024 A 
HETATM   22  C   UNL     1      43.970 -20.549   3.018  1.00  0.00     0.005 A 
HETATM   23  C   UNL     1      43.967 -20.860   4.372  1.00  0.00     0.043 A 
HETATM   24  C   UNL     1      43.772 -19.851   5.313  1.00  0.00     0.126 A 
HETATM   25  F   UNL     1      43.732 -20.206   6.607  1.00  0.00    -0.205 F 
ENDBRANCH  16  18
ENDBRANCH  14  16
ENDBRANCH   1  14
TORSDOF 5
ENDMDL
MODEL 2
REMARK VINA RESULT:      -7.5      4.069      7.742
REMARK  5 active torsions:
REMARK  status: ('A' for Active; 'I' for Inactive)
REMARK    1  A    between atoms: C_8  and  N_9 
REMARK       I    between atoms: N_9  and  C_10 
REMARK    2  A    between atoms: C_10  and  C_11 
REMARK    3  A    between atoms: C_11  and  N_12 
REMARK    4  A    between atoms: N_12  and  C_13 
REMARK    5  A    between atoms: C_13  and  C_14 
ROOT
HETATM    1  C   UNL     1      42.674 -15.021   1.912  1.00  0.00     0.372 C 
ENDROOT
BRANCH   1   2
HETATM    2  C   UNL     1      42.466 -16.311   2.729  1.00  0.00     0.250 C 
HETATM    3  N   UNL     1      43.618 -17.071   2.805  1.00  0.00    -0.322 N 
HETATM    4  H   UNL     1      44.459 -16.688   2.396  1.00  0.00     0.169 HD
HETATM    5  O   UNL     1      41.400 -16.543   3.291  1.00  0.00    -0.271 OA
BRANCH   3   6
HETATM    6  C   UNL     1      43.778 -18.277   3.470  1.00  0.00     0.085 A 
HETATM    7  C   UNL     1      44.058 -18.323   4.824  1.00  0.00     0.052 A 
HETATM    8  C   UNL     1      44.236 -17.268   5.849  1.00  0.00     0.072 C 
HETATM    9  N   UNL     1      44.144 -19.647   5.144  1.00  0.00    -0.280 N 
HETATM   10  H   UNL     1      44.330 -20.065   6.050  1.00  0.00     0.189 HD
HETATM   11  N   UNL     1      43.955 -20.467   4.108  1.00  0.00    -0.177 NA
HETATM   12  C   UNL     1      43.734 -19.645   3.069  1.00  0.00     0.079 A 
HETATM   13  C   UNL     1      43.527 -20.258   1.732  1.00  0.00     0.075 C 
ENDBRANCH   3   6
ENDBRANCH   1   2
BRANCH   1  14
HETATM   14  N   UNL     1      41.773 -15.014   0.756  1.00  0.00     0.101 N 
HETATM   15  H   UNL     1      41.155 -15.832   0.823  1.00  0.00     0.317 HD
BRANCH  14  16
HETATM   16  C   UNL     1      40.969 -13.792   0.613  1.00  0.00     0.254 C 
HETATM   17  C   UNL     1      39.914 -13.620   1.715  1.00  0.00     0.048 C 
BRANCH  16  18
HETATM   18  C   UNL     1      40.271 -13.752  -0.742  1.00  0.00     0.035 A 
HETATM   19  C   UNL     1      40.344 -12.645  -1.604  1.00  0.00     0.045 A 
HETATM   20 CL   UNL     1      41.239 -11.218  -1.208  1.00  0.00    -0.084 Cl
HETATM   21  C   UNL     1      39.655 -12.635  -2.826  1.00  0.00     0.024 A 
HETATM   22  C   UNL     1      38.876 -13.724  -3.211  1.00  0.00     0.005 A 
HETATM   23  C   UNL     1      38.776 -14.822  -2.365  1.00  0.00     0.043 A 
HETATM   24  C   UNL     1      39.457 -14.823  -1.149  1.00  0.00     0.126 A 
HETATM   25  F   UNL     1      39.292 -15.885  -0.346  1.00  0.00    -0.205 F 
ENDBRANCH  16  18
ENDBRANCH  14  16
ENDBRANCH   1  14
TORSDOF 5
ENDMDL
MODEL 3
REMARK VINA RESULT:      -7.4      1.880      2.146
REMARK  5 active torsions:
REMARK  status: ('A' for Active; 'I' for Inactive)
REMARK    1  A    between atoms: C_8  and  N_9 
REMARK       I    between atoms: N_9  and  C_10 
REMARK    2  A    between atoms: C_10  and  C_11 
REMARK    3  A    between atoms: C_11  and  N_12 
REMARK    4  A    between atoms: N_12  and  C_13 
REMARK    5  A    between atoms: C_13  and  C_14 
ROOT
HETATM    1  C   UNL     1      42.584 -15.446   6.061  1.00  0.00     0.372 C 
ENDROOT
BRANCH   1   2
HETATM    2  C   UNL     1      42.166 -14.499   4.919  1.00  0.00     0.250 C 
HETATM    3  N   UNL     1      40.858 -14.705   4.522  1.00  0.00    -0.322 N 
HETATM    4  H   UNL     1      40.312 -15.376   5.045  1.00  0.00     0.169 HD
HETATM    5  O   UNL     1      42.925 -13.629   4.504  1.00  0.00    -0.271 OA
BRANCH   3   6
HETATM    6  C   UNL     1      40.168 -14.020   3.534  1.00  0.00     0.085 A 
HETATM    7  C   UNL     1      39.922 -14.590   2.298  1.00  0.00     0.052 A 
HETATM    8  C   UNL     1      40.251 -15.915   1.720  1.00  0.00     0.072 C 
HETATM    9  N   UNL     1      39.229 -13.655   1.586  1.00  0.00    -0.280 N 
HETATM   10  H   UNL     1      38.871 -13.724   0.639  1.00  0.00     0.189 HD
HETATM   11  N   UNL     1      39.012 -12.519   2.252  1.00  0.00    -0.177 NA
HETATM   12  C   UNL     1      39.587 -12.720   3.449  1.00  0.00     0.079 A 
HETATM   13  C   UNL     1      39.558 -11.604   4.428  1.00  0.00     0.075 C 
ENDBRANCH   3   6
ENDBRANCH   1   2
BRANCH   1  14
HETATM   14  N   UNL     1      42.347 -16.837   5.665  1.00  0.00     0.101 N 
HETATM   15  H   UNL     1      41.898 -16.839   4.741  1.00  0.00     0.317 HD
BRANCH  14  16
HETATM   16  C   UNL     1      43.552 -17.679   5.634  1.00  0.00     0.254 C 
HETATM   17  C   UNL     1      44.860 -16.877   5.675  1.00  0.00     0.048 C 
BRANCH  16  18
HETATM   18  C   UNL     1      43.563 -18.571   4.398  1.00  0.00     0.035 A 
HETATM   19  C   UNL     1      43.782 -19.958   4.461  1.00  0.00     0.045 A 
HETATM   20 CL   UNL     1      44.055 -20.787   5.956  1.00  0.00    -0.084 Cl
HETATM   21  C   UNL     1      43.823 -20.737   3.295  1.00  0.00     0.024 A 
HETATM   22  C   UNL     1      43.653 -20.149   2.044  1.00  0.00     0.005 A 
HETATM   23  C   UNL     1      43.455 -18.777   1.957  1.00  0.00     0.043 A 
HETATM   24  C   UNL     1      43.422 -18.007   3.118  1.00  0.00     0.126 A 
HETATM   25  F   UNL     1      43.273 -16.681   2.981  1.00  0.00    -0.205 F 
ENDBRANCH  16  18
ENDBRANCH  14  16
ENDBRANCH   1  14
TORSDOF 5
ENDMDL
MODEL 4
REMARK VINA RESULT:      -7.3      4.357      5.382
REMARK  5 active torsions:
REMARK  status: ('A' for Active; 'I' for Inactive)
REMARK    1  A    between atoms: C_8  and  N_9 
REMARK       I    between atoms: N_9  and  C_10 
REMARK    2  A    between atoms: C_10  and  C_11 
REMARK    3  A    between atoms: C_11  and  N_12 
REMARK    4  A    between atoms: N_12  and  C_13 
REMARK    5  A    between atoms: C_13  and  C_14 
ROOT
HETATM    1  C   UNL     1      43.255 -13.729   6.917  1.00  0.00     0.372 C 
ENDROOT
BRANCH   1   2
HETATM    2  C   UNL     1      43.793 -12.294   6.748  1.00  0.00     0.250 C 
HETATM    3  N   UNL     1      43.719 -11.569   7.922  1.00  0.00    -0.322 N 
HETATM    4  H   UNL     1      43.400 -12.052   8.751  1.00  0.00     0.169 HD
HETATM    5  O   UNL     1      44.290 -11.922   5.690  1.00  0.00    -0.271 OA
BRANCH   3   6
HETATM    6  C   UNL     1      44.126 -10.258   8.119  1.00  0.00     0.085 A 
HETATM    7  C   UNL     1      43.217  -9.254   8.402  1.00  0.00     0.052 A 
HETATM    8  C   UNL     1      41.745  -9.252   8.574  1.00  0.00     0.072 C 
HETATM    9  N   UNL     1      43.951  -8.112   8.538  1.00  0.00    -0.280 N 
HETATM   10  H   UNL     1      43.624  -7.176   8.754  1.00  0.00     0.189 HD
HETATM   11  N   UNL     1      45.262  -8.286   8.356  1.00  0.00    -0.177 NA
HETATM   12  C   UNL     1      45.390  -9.597   8.091  1.00  0.00     0.079 A 
HETATM   13  C   UNL     1      46.749 -10.114   7.792  1.00  0.00     0.075 C 
ENDBRANCH   3   6
ENDBRANCH   1   2
BRANCH   1  14
HETATM   14  N   UNL     1      43.456 -14.484   5.677  1.00  0.00     0.101 N 
HETATM   15  H   UNL     1      44.351 -14.983   5.743  1.00  0.00     0.317 HD
BRANCH  14  16
HETATM   16  C   UNL     1      42.379 -15.432   5.355  1.00  0.00     0.254 C 
HETATM   17  C   UNL     1      41.711 -16.042   6.595  1.00  0.00     0.048 C 
BRANCH  16  18
HETATM   18  C   UNL     1      42.894 -16.562   4.471  1.00  0.00     0.035 A 
HETATM   19  C   UNL     1      42.285 -16.915   3.254  1.00  0.00     0.045 A 
HETATM   20 CL   UNL     1      40.892 -16.091   2.641  1.00  0.00    -0.084 Cl
HETATM   21  C   UNL     1      42.768 -17.987   2.489  1.00  0.00     0.024 A 
HETATM   22  C   UNL     1      43.861 -18.733   2.923  1.00  0.00     0.005 A 
HETATM   23  C   UNL     1      44.466 -18.414   4.132  1.00  0.00     0.043 A 
HETATM   24  C   UNL     1      43.978 -17.352   4.891  1.00  0.00     0.126 A 
HETATM   25  F   UNL     1      44.566 -17.111   6.074  1.00  0.00    -0.205 F 
ENDBRANCH  16  18
ENDBRANCH  14  16
ENDBRANCH   1  14
TORSDOF 5
ENDMDL
MODEL 5
REMARK VINA RESULT:      -7.3      3.534      4.736
REMARK  5 active torsions:
REMARK  status: ('A' for Active; 'I' for Inactive)
REMARK    1  A    between atoms: C_8  and  N_9 
REMARK       I    between atoms: N_9  and  C_10 
REMARK    2  A    between atoms: C_10  and  C_11 
REMARK    3  A    between atoms: C_11  and  N_12 
REMARK    4  A    between atoms: N_12  and  C_13 
REMARK    5  A    between atoms: C_13  and  C_14 
ROOT
HETATM    1  C   UNL     1      39.913 -14.733   2.407  1.00  0.00     0.372 C 
ENDROOT
BRANCH   1   2
HETATM    2  C   UNL     1      40.267 -14.548   0.919  1.00  0.00     0.250 C 
HETATM    3  N   UNL     1      39.345 -13.760   0.257  1.00  0.00    -0.322 N 
HETATM    4  H   UNL     1      38.604 -13.347   0.807  1.00  0.00     0.169 HD
HETATM    5  O   UNL     1      41.305 -15.006   0.451  1.00  0.00    -0.271 OA
BRANCH   3   6
HETATM    6  C   UNL     1      39.371 -13.389  -1.078  1.00  0.00     0.085 A 
HETATM    7  C   UNL     1      39.687 -12.098  -1.463  1.00  0.00     0.052 A 
HETATM    8  C   UNL     1      40.057 -10.885  -0.697  1.00  0.00     0.072 C 
HETATM    9  N   UNL     1      39.623 -12.088  -2.826  1.00  0.00    -0.280 N 
HETATM   10  H   UNL     1      39.801 -11.314  -3.458  1.00  0.00     0.189 HD
HETATM   11  N   UNL     1      39.280 -13.261  -3.361  1.00  0.00    -0.177 NA
HETATM   12  C   UNL     1      39.114 -14.073  -2.303  1.00  0.00     0.079 A 
HETATM   13  C   UNL     1      38.679 -15.469  -2.563  1.00  0.00     0.075 C 
ENDBRANCH   3   6
ENDBRANCH   1   2
BRANCH   1  14
HETATM   14  N   UNL     1      40.639 -15.884   2.952  1.00  0.00     0.101 N 
HETATM   15  H   UNL     1      41.107 -16.368   2.177  1.00  0.00     0.317 HD
BRANCH  14  16
HETATM   16  C   UNL     1      41.618 -15.553   3.996  1.00  0.00     0.254 C 
HETATM   17  C   UNL     1      42.521 -14.365   3.634  1.00  0.00     0.048 C 
BRANCH  16  18
HETATM   18  C   UNL     1      42.498 -16.755   4.321  1.00  0.00     0.035 A 
HETATM   19  C   UNL     1      42.761 -17.174   5.637  1.00  0.00     0.045 A 
HETATM   20 CL   UNL     1      42.102 -16.363   7.017  1.00  0.00    -0.084 Cl
HETATM   21  C   UNL     1      43.607 -18.262   5.893  1.00  0.00     0.024 A 
HETATM   22  C   UNL     1      44.214 -18.951   4.844  1.00  0.00     0.005 A 
HETATM   23  C   UNL     1      43.984 -18.542   3.537  1.00  0.00     0.043 A 
HETATM   24  C   UNL     1      43.147 -17.455   3.289  1.00  0.00     0.126 A 
HETATM   25  F   UNL     1      42.991 -17.068   2.014  1.00  0.00    -0.205 F 
ENDBRANCH  16  18
ENDBRANCH  14  16
ENDBRANCH   1  14
TORSDOF 5
ENDMDL
MODEL 6
REMARK VINA RESULT:      -7.2      4.030      7.604
REMARK  5 active torsions:
REMARK  status: ('A' for Active; 'I' for Inactive)
REMARK    1  A    between atoms: C_8  and  N_9 
REMARK       I    between atoms: N_9  and  C_10 
REMARK    2  A    between atoms: C_10  and  C_11 
REMARK    3  A    between atoms: C_11  and  N_12 
REMARK    4  A    between atoms: N_12  and  C_13 
REMARK    5  A    between atoms: C_13  and  C_14 
ROOT
HETATM    1  C   UNL     1      42.754 -15.353   1.716  1.00  0.00     0.372 C 
ENDROOT
BRANCH   1   2
HETATM    2  C   UNL     1      42.524 -16.495   2.725  1.00  0.00     0.250 C 
HETATM    3  N   UNL     1      43.628 -17.320   2.838  1.00  0.00    -0.322 N 
HETATM    4  H   UNL     1      44.459 -17.061   2.325  1.00  0.00     0.169 HD
HETATM    5  O   UNL     1      41.490 -16.567   3.381  1.00  0.00    -0.271 OA
BRANCH   3   6
HETATM    6  C   UNL     1      43.759 -18.428   3.661  1.00  0.00     0.085 A 
HETATM    7  C   UNL     1      43.785 -19.712   3.145  1.00  0.00     0.052 A 
HETATM    8  C   UNL     1      43.706 -20.239   1.762  1.00  0.00     0.072 C 
HETATM    9  N   UNL     1      43.928 -20.543   4.217  1.00  0.00    -0.280 N 
HETATM   10  H   UNL     1      43.993 -21.556   4.223  1.00  0.00     0.189 HD
HETATM   11  N   UNL     1      43.987 -19.909   5.390  1.00  0.00    -0.177 NA
HETATM   12  C   UNL     1      43.878 -18.609   5.071  1.00  0.00     0.079 A 
HETATM   13  C   UNL     1      43.865 -17.622   6.180  1.00  0.00     0.075 C 
ENDBRANCH   3   6
ENDBRANCH   1   2
BRANCH   1  14
HETATM   14  N   UNL     1      41.613 -15.263   0.800  1.00  0.00     0.101 N 
HETATM   15  H   UNL     1      40.926 -15.977   1.067  1.00  0.00     0.317 HD
BRANCH  14  16
HETATM   16  C   UNL     1      40.968 -13.943   0.752  1.00  0.00     0.254 C 
HETATM   17  C   UNL     1      39.937 -13.725   1.868  1.00  0.00     0.048 C 
BRANCH  16  18
HETATM   18  C   UNL     1      40.287 -13.716  -0.593  1.00  0.00     0.035 A 
HETATM   19  C   UNL     1      40.396 -12.511  -1.309  1.00  0.00     0.045 A 
HETATM   20 CL   UNL     1      41.322 -11.169  -0.729  1.00  0.00    -0.084 Cl
HETATM   21  C   UNL     1      39.723 -12.330  -2.526  1.00  0.00     0.024 A 
HETATM   22  C   UNL     1      38.922 -13.343  -3.050  1.00  0.00     0.005 A 
HETATM   23  C   UNL     1      38.785 -14.535  -2.350  1.00  0.00     0.043 A 
HETATM   24  C   UNL     1      39.452 -14.706  -1.139  1.00  0.00     0.126 A 
HETATM   25  F   UNL     1      39.252 -15.856  -0.476  1.00  0.00    -0.205 F 
ENDBRANCH  16  18
ENDBRANCH  14  16
ENDBRANCH   1  14
TORSDOF 5
ENDMDL
MODEL 7
REMARK VINA RESULT:      -7.1      4.359      5.361
REMARK  5 active torsions:
REMARK  status: ('A' for Active; 'I' for Inactive)
REMARK    1  A    between atoms: C_8  and  N_9 
REMARK       I    between atoms: N_9  and  C_10 
REMARK    2  A    between atoms: C_10  and  C_11 
REMARK    3  A    between atoms: C_11  and  N_12 
REMARK    4  A    between atoms: N_12  and  C_13 
REMARK    5  A    between atoms: C_13  and  C_14 
ROOT
HETATM    1  C   UNL     1      42.274 -13.804   6.371  1.00  0.00     0.372 C 
ENDROOT
BRANCH   1   2
HETATM    2  C   UNL     1      42.956 -12.424   6.433  1.00  0.00     0.250 C 
HETATM    3  N   UNL     1      43.862 -12.337   7.473  1.00  0.00    -0.322 N 
HETATM    4  H   UNL     1      44.029 -13.172   8.018  1.00  0.00     0.169 HD
HETATM    5  O   UNL     1      42.738 -11.567   5.582  1.00  0.00    -0.271 OA
BRANCH   3   6
HETATM    6  C   UNL     1      44.651 -11.245   7.803  1.00  0.00     0.085 A 
HETATM    7  C   UNL     1      45.727 -10.869   7.018  1.00  0.00     0.052 A 
HETATM    8  C   UNL     1      46.291 -11.413   5.761  1.00  0.00     0.072 C 
HETATM    9  N   UNL     1      46.265  -9.771   7.624  1.00  0.00    -0.280 N 
HETATM   10  H   UNL     1      47.063  -9.218   7.329  1.00  0.00     0.189 HD
HETATM   11  N   UNL     1      45.637  -9.408   8.744  1.00  0.00    -0.177 NA
HETATM   12  C   UNL     1      44.645 -10.305   8.875  1.00  0.00     0.079 A 
HETATM   13  C   UNL     1      43.771 -10.202  10.071  1.00  0.00     0.075 C 
ENDBRANCH   3   6
ENDBRANCH   1   2
BRANCH   1  14
HETATM   14  N   UNL     1      42.666 -14.498   5.140  1.00  0.00     0.101 N 
HETATM   15  H   UNL     1      43.629 -14.838   5.253  1.00  0.00     0.317 HD
BRANCH  14  16
HETATM   16  C   UNL     1      41.786 -15.610   4.756  1.00  0.00     0.254 C 
HETATM   17  C   UNL     1      40.925 -16.137   5.912  1.00  0.00     0.048 C 
BRANCH  16  18
HETATM   18  C   UNL     1      42.591 -16.768   4.177  1.00  0.00     0.035 A 
HETATM   19  C   UNL     1      43.676 -17.354   4.851  1.00  0.00     0.045 A 
HETATM   20 CL   UNL     1      44.200 -16.815   6.410  1.00  0.00    -0.084 Cl
HETATM   21  C   UNL     1      44.414 -18.393   4.266  1.00  0.00     0.024 A 
HETATM   22  C   UNL     1      44.090 -18.865   2.995  1.00  0.00     0.005 A 
HETATM   23  C   UNL     1      43.033 -18.288   2.303  1.00  0.00     0.043 A 
HETATM   24  C   UNL     1      42.308 -17.251   2.888  1.00  0.00     0.126 A 
HETATM   25  F   UNL     1      41.325 -16.694   2.163  1.00  0.00    -0.205 F 
ENDBRANCH  16  18
ENDBRANCH  14  16
ENDBRANCH   1  14
TORSDOF 5
ENDMDL
MODEL 8
REMARK VINA RESULT:      -7.1      3.417      4.283
REMARK  5 active torsions:
REMARK  status: ('A' for Active; 'I' for Inactive)
REMARK    1  A    between atoms: C_8  and  N_9 
REMARK       I    between atoms: N_9  and  C_10 
REMARK    2  A    between atoms: C_10  and  C_11 
REMARK    3  A    between atoms: C_11  and  N_12 
REMARK    4  A    between atoms: N_12  and  C_13 
REMARK    5  A    between atoms: C_13  and  C_14 
ROOT
HETATM    1  C   UNL     1      40.036 -15.313   2.344  1.00  0.00     0.372 C 
ENDROOT
BRANCH   1   2
HETATM    2  C   UNL     1      39.814 -14.131   1.381  1.00  0.00     0.250 C 
HETATM    3  N   UNL     1      40.130 -14.456   0.075  1.00  0.00    -0.322 N 
HETATM    4  H   UNL     1      40.395 -15.412  -0.117  1.00  0.00     0.169 HD
HETATM    5  O   UNL     1      39.335 -13.072   1.773  1.00  0.00    -0.271 OA
BRANCH   3   6
HETATM    6  C   UNL     1      40.035 -13.632  -1.036  1.00  0.00     0.085 A 
HETATM    7  C   UNL     1      39.414 -14.056  -2.198  1.00  0.00     0.052 A 
HETATM    8  C   UNL     1      38.742 -15.322  -2.572  1.00  0.00     0.072 C 
HETATM    9  N   UNL     1      39.496 -13.009  -3.069  1.00  0.00    -0.280 N 
HETATM   10  H   UNL     1      39.142 -12.951  -4.018  1.00  0.00     0.189 HD
HETATM   11  N   UNL     1      40.128 -11.942  -2.575  1.00  0.00    -0.177 NA
HETATM   12  C   UNL     1      40.473 -12.307  -1.329  1.00  0.00     0.079 A 
HETATM   13  C   UNL     1      41.245 -11.337  -0.512  1.00  0.00     0.075 C 
ENDBRANCH   3   6
ENDBRANCH   1   2
BRANCH   1  14
HETATM   14  N   UNL     1      41.243 -16.050   1.958  1.00  0.00     0.101 N 
HETATM   15  H   UNL     1      41.366 -15.961   0.942  1.00  0.00     0.317 HD
BRANCH  14  16
HETATM   16  C   UNL     1      42.469 -15.622   2.647  1.00  0.00     0.254 C 
HETATM   17  C   UNL     1      43.540 -15.061   1.701  1.00  0.00     0.048 C 
BRANCH  16  18
HETATM   18  C   UNL     1      43.076 -16.771   3.445  1.00  0.00     0.035 A 
HETATM   19  C   UNL     1      43.477 -16.640   4.785  1.00  0.00     0.045 A 
HETATM   20 CL   UNL     1      43.314 -15.155   5.660  1.00  0.00    -0.084 Cl
HETATM   21  C   UNL     1      44.066 -17.712   5.472  1.00  0.00     0.024 A 
HETATM   22  C   UNL     1      44.273 -18.933   4.834  1.00  0.00     0.005 A 
HETATM   23  C   UNL     1      43.902 -19.080   3.504  1.00  0.00     0.043 A 
HETATM   24  C   UNL     1      43.322 -18.009   2.826  1.00  0.00     0.126 A 
HETATM   25  F   UNL     1      43.023 -18.183   1.529  1.00  0.00    -0.205 F 
ENDBRANCH  16  18
ENDBRANCH  14  16
ENDBRANCH   1  14
TORSDOF 5
ENDMDL
MODEL 9
REMARK VINA RESULT:      -7.0      3.856      7.310
REMARK  5 active torsions:
REMARK  status: ('A' for Active; 'I' for Inactive)
REMARK    1  A    between atoms: C_8  and  N_9 
REMARK       I    between atoms: N_9  and  C_10 
REMARK    2  A    between atoms: C_10  and  C_11 
REMARK    3  A    between atoms: C_11  and  N_12 
REMARK    4  A    between atoms: N_12  and  C_13 
REMARK    5  A    between atoms: C_13  and  C_14 
ROOT
HETATM    1  C   UNL     1      42.584 -14.130   2.511  1.00  0.00     0.372 C 
ENDROOT
BRANCH   1   2
HETATM    2  C   UNL     1      42.336 -15.451   3.263  1.00  0.00     0.250 C 
HETATM    3  N   UNL     1      43.267 -15.665   4.262  1.00  0.00    -0.322 N 
HETATM    4  H   UNL     1      43.943 -14.933   4.435  1.00  0.00     0.169 HD
HETATM    5  O   UNL     1      41.361 -16.153   3.013  1.00  0.00    -0.271 OA
BRANCH   3   6
HETATM    6  C   UNL     1      43.326 -16.745   5.130  1.00  0.00     0.085 A 
HETATM    7  C   UNL     1      42.931 -16.631   6.451  1.00  0.00     0.052 A 
HETATM    8  C   UNL     1      42.388 -15.502   7.243  1.00  0.00     0.072 C 
HETATM    9  N   UNL     1      43.114 -17.865   7.004  1.00  0.00    -0.280 N 
HETATM   10  H   UNL     1      42.924 -18.162   7.955  1.00  0.00     0.189 HD
HETATM   11  N   UNL     1      43.605 -18.770   6.156  1.00  0.00    -0.177 NA
HETATM   12  C   UNL     1      43.749 -18.100   5.000  1.00  0.00     0.079 A 
HETATM   13  C   UNL     1      44.329 -18.830   3.844  1.00  0.00     0.075 C 
ENDBRANCH   3   6
ENDBRANCH   1   2
BRANCH   1  14
HETATM   14  N   UNL     1      42.055 -14.228   1.147  1.00  0.00     0.101 N 
HETATM   15  H   UNL     1      41.569 -15.128   1.052  1.00  0.00     0.317 HD
BRANCH  14  16
HETATM   16  C   UNL     1      41.157 -13.132   0.757  1.00  0.00     0.254 C 
HETATM   17  C   UNL     1      40.070 -12.832   1.799  1.00  0.00     0.048 C 
BRANCH  16  18
HETATM   18  C   UNL     1      40.485 -13.425  -0.579  1.00  0.00     0.035 A 
HETATM   19  C   UNL     1      40.530 -12.536  -1.666  1.00  0.00     0.045 A 
HETATM   20 CL   UNL     1      41.360 -11.019  -1.590  1.00  0.00    -0.084 Cl
HETATM   21  C   UNL     1      39.866 -12.827  -2.867  1.00  0.00     0.024 A 
HETATM   22  C   UNL     1      39.139 -14.008  -3.006  1.00  0.00     0.005 A 
HETATM   23  C   UNL     1      39.065 -14.893  -1.938  1.00  0.00     0.043 A 
HETATM   24  C   UNL     1      39.722 -14.594  -0.746  1.00  0.00     0.126 A 
HETATM   25  F   UNL     1      39.584 -15.457   0.273  1.00  0.00    -0.205 F 
ENDBRANCH  16  18
ENDBRANCH  14  16
ENDBRANCH   1  14
TORSDOF 5
ENDMDL
MODEL 10
REMARK VINA RESULT:      -7.0      4.126      5.150
REMARK  5 active torsions:
REMARK  status: ('A' for Active; 'I' for Inactive)
REMARK    1  A    between atoms: C_8  and  N_9 
REMARK       I    between atoms: N_9  and  C_10 
REMARK    2  A    between atoms: C_10  and  C_11 
REMARK    3  A    between atoms: C_11  and  N_12 
REMARK    4  A    between atoms: N_12  and  C_13 
REMARK    5  A    between atoms: C_13  and  C_14 
ROOT
HETATM    1  C   UNL     1      41.659 -13.286   6.147  1.00  0.00     0.372 C 
ENDROOT
BRANCH   1   2
HETATM    2  C   UNL     1      42.533 -12.029   6.325  1.00  0.00     0.250 C 
HETATM    3  N   UNL     1      43.508 -12.204   7.289  1.00  0.00    -0.322 N 
HETATM    4  H   UNL     1      43.591 -13.119   7.709  1.00  0.00     0.169 HD
HETATM    5  O   UNL     1      42.383 -11.044   5.609  1.00  0.00    -0.271 OA
BRANCH   3   6
HETATM    6  C   UNL     1      44.463 -11.280   7.686  1.00  0.00     0.085 A 
HETATM    7  C   UNL     1      45.570 -11.004   6.903  1.00  0.00     0.052 A 
HETATM    8  C   UNL     1      46.019 -11.513   5.585  1.00  0.00     0.072 C 
HETATM    9  N   UNL     1      46.284 -10.061   7.583  1.00  0.00    -0.280 N 
HETATM   10  H   UNL     1      47.153  -9.613   7.312  1.00  0.00     0.189 HD
HETATM   11  N   UNL     1      45.740  -9.708   8.750  1.00  0.00    -0.177 NA
HETATM   12  C   UNL     1      44.624 -10.451   8.835  1.00  0.00     0.079 A 
HETATM   13  C   UNL     1      43.798 -10.322  10.062  1.00  0.00     0.075 C 
ENDBRANCH   3   6
ENDBRANCH   1   2
BRANCH   1  14
HETATM   14  N   UNL     1      42.319 -14.224   5.234  1.00  0.00     0.101 N 
HETATM   15  H   UNL     1      43.181 -14.559   5.681  1.00  0.00     0.317 HD
BRANCH  14  16
HETATM   16  C   UNL     1      41.491 -15.369   4.828  1.00  0.00     0.254 C 
HETATM   17  C   UNL     1      40.702 -15.995   5.986  1.00  0.00     0.048 C 
BRANCH  16  18
HETATM   18  C   UNL     1      42.341 -16.452   4.173  1.00  0.00     0.035 A 
HETATM   19  C   UNL     1      42.120 -16.905   2.861  1.00  0.00     0.045 A 
HETATM   20 CL   UNL     1      40.859 -16.269   1.861  1.00  0.00    -0.084 Cl
HETATM   21  C   UNL     1      42.901 -17.932   2.310  1.00  0.00     0.024 A 
HETATM   22  C   UNL     1      43.914 -18.531   3.057  1.00  0.00     0.005 A 
HETATM   23  C   UNL     1      44.137 -18.112   4.362  1.00  0.00     0.043 A 
HETATM   24  C   UNL     1      43.353 -17.096   4.906  1.00  0.00     0.126 A 
HETATM   25  F   UNL     1      43.576 -16.757   6.185  1.00  0.00    -0.205 F 
ENDBRANCH  16  18
ENDBRANCH  14  16
ENDBRANCH   1  14
TORSDOF 5
ENDMDL
