MODEL 1
REMARK VINA RESULT:      -8.8      0.000      0.000
REMARK  4 active torsions:
REMARK  status: ('A' for Active; 'I' for Inactive)
REMARK    1  A    between atoms: C_6  and  C_7 
REMARK    2  A    between atoms: C_7  and  C_8 
REMARK       I    between atoms: C_8  and  N_9 
REMARK    3  A    between atoms: N_9  and  C_10 
REMARK    4  A    between atoms: C_17  and  C_18 
REMARK       I    between atoms: C_18  and  N_19 
ROOT
HETATM    1  C   UNL     1      40.302 -14.988   3.509  1.00  0.00     0.035 A 
HETATM    2  C   UNL     1      40.676 -13.708   3.106  1.00  0.00     0.046 A 
HETATM    3  C   UNL     1      40.771 -13.400   1.731  1.00  0.00     0.030 A 
HETATM    4  C   UNL     1      40.449 -14.377   0.799  1.00  0.00     0.063 A 
HETATM    5  N   UNL     1      40.632 -13.790  -0.422  1.00  0.00    -0.277 N 
HETATM    6  H   UNL     1      40.491 -14.210  -1.334  1.00  0.00     0.189 HD
HETATM    7  N   UNL     1      41.049 -12.512  -0.366  1.00  0.00    -0.168 NA
HETATM    8  C   UNL     1      41.143 -12.260   0.958  1.00  0.00     0.156 A 
HETATM    9  C   UNL     1      40.031 -15.657   1.160  1.00  0.00     0.034 A 
HETATM   10  C   UNL     1      39.964 -15.937   2.532  1.00  0.00     0.032 A 
ENDROOT
BRANCH   1  11
HETATM   11  N   UNL     1      40.214 -15.415   4.843  1.00  0.00    -0.326 N 
HETATM   12  C   UNL     1      41.117 -15.716   5.834  1.00  0.00     0.235 C 
HETATM   13  O   UNL     1      40.660 -16.008   6.942  1.00  0.00    -0.272 OA
HETATM   14  H   UNL     1      39.277 -15.578   5.191  1.00  0.00     0.169 HD
BRANCH  12  15
HETATM   15  C   UNL     1      42.613 -15.795   5.629  1.00  0.00     0.068 A 
HETATM   16  C   UNL     1      43.573 -15.061   6.565  1.00  0.00     0.026 A 
HETATM   17  C   UNL     1      43.261 -14.442   5.250  1.00  0.00     0.026 A 
BRANCH  15  18
HETATM   18  C   UNL     1      43.110 -16.966   4.759  1.00  0.00    -0.039 A 
HETATM   19  C   UNL     1      43.565 -18.184   5.296  1.00  0.00     0.032 A 
HETATM   20  C   UNL     1      44.017 -19.217   4.467  1.00  0.00     0.034 A 
HETATM   21  C   UNL     1      44.038 -19.063   3.085  1.00  0.00     0.024 A 
HETATM   22 CL   UNL     1      44.557 -20.696   5.164  1.00  0.00    -0.084 Cl
HETATM   23  C   UNL     1      43.602 -17.867   2.526  1.00  0.00     0.002 A 
HETATM   24  C   UNL     1      43.144 -16.840   3.355  1.00  0.00     0.008 A 
ENDBRANCH  15  18
ENDBRANCH  12  15
ENDBRANCH   1  11
BRANCH   8  25
HETATM   25  C   UNL     1      41.595 -10.956   1.463  1.00  0.00     0.270 C 
HETATM   26  N   UNL     1      40.825  -9.901   1.058  1.00  0.00    -0.365 N 
HETATM   27  H   UNL     1      40.029 -10.080   0.457  1.00  0.00     0.159 HD
HETATM   28  H   UNL     1      41.060  -8.966   1.354  1.00  0.00     0.159 HD
HETATM   29  O   UNL     1      42.578 -10.796   2.178  1.00  0.00    -0.266 OA
ENDBRANCH   8  25
TORSDOF 4
ENDMDL
MODEL 2
REMARK VINA RESULT:      -8.7      3.024      4.460
REMARK  4 active torsions:
REMARK  status: ('A' for Active; 'I' for Inactive)
REMARK    1  A    between atoms: C_6  and  C_7 
REMARK    2  A    between atoms: C_7  and  C_8 
REMARK       I    between atoms: C_8  and  N_9 
REMARK    3  A    between atoms: N_9  and  C_10 
REMARK    4  A    between atoms: C_17  and  C_18 
REMARK       I    between atoms: C_18  and  N_19 
ROOT
HETATM    1  C   UNL     1      40.911 -13.191   0.373  1.00  0.00     0.035 A 
HETATM    2  C   UNL     1      40.328 -13.824  -0.723  1.00  0.00     0.046 A 
HETATM    3  C   UNL     1      39.052 -13.422  -1.175  1.00  0.00     0.030 A 
HETATM    4  C   UNL     1      38.415 -12.367  -0.537  1.00  0.00     0.063 A 
HETATM    5  N   UNL     1      37.223 -12.214  -1.189  1.00  0.00    -0.277 N 
HETATM    6  H   UNL     1      36.496 -11.534  -0.992  1.00  0.00     0.189 HD
HETATM    7  N   UNL     1      37.027 -13.082  -2.198  1.00  0.00    -0.168 NA
HETATM    8  C   UNL     1      38.148 -13.837  -2.197  1.00  0.00     0.156 A 
HETATM    9  C   UNL     1      38.980 -11.679   0.536  1.00  0.00     0.034 A 
HETATM   10  C   UNL     1      40.239 -12.114   0.972  1.00  0.00     0.032 A 
ENDROOT
BRANCH   1  11
HETATM   11  N   UNL     1      42.152 -13.534   0.930  1.00  0.00    -0.326 N 
HETATM   12  C   UNL     1      42.632 -14.584   1.673  1.00  0.00     0.235 C 
HETATM   13  O   UNL     1      43.836 -14.580   1.943  1.00  0.00    -0.272 OA
HETATM   14  H   UNL     1      42.895 -12.858   0.798  1.00  0.00     0.169 HD
BRANCH  12  15
HETATM   15  C   UNL     1      41.771 -15.686   2.249  1.00  0.00     0.068 A 
HETATM   16  C   UNL     1      40.291 -15.797   1.882  1.00  0.00     0.026 A 
HETATM   17  C   UNL     1      40.649 -15.174   3.183  1.00  0.00     0.026 A 
BRANCH  15  18
HETATM   18  C   UNL     1      42.529 -16.899   2.824  1.00  0.00    -0.039 A 
HETATM   19  C   UNL     1      42.788 -18.066   2.084  1.00  0.00     0.032 A 
HETATM   20  C   UNL     1      43.472 -19.147   2.651  1.00  0.00     0.034 A 
HETATM   21  C   UNL     1      43.906 -19.100   3.971  1.00  0.00     0.024 A 
HETATM   22 CL   UNL     1      43.778 -20.554   1.706  1.00  0.00    -0.084 Cl
HETATM   23  C   UNL     1      43.657 -17.963   4.731  1.00  0.00     0.002 A 
HETATM   24  C   UNL     1      42.981 -16.882   4.160  1.00  0.00     0.008 A 
ENDBRANCH  15  18
ENDBRANCH  12  15
ENDBRANCH   1  11
BRANCH   8  25
HETATM   25  C   UNL     1      38.333 -14.939  -3.150  1.00  0.00     0.270 C 
HETATM   26  N   UNL     1      38.429 -16.173  -2.570  1.00  0.00    -0.365 N 
HETATM   27  H   UNL     1      38.373 -16.243  -1.560  1.00  0.00     0.159 HD
HETATM   28  H   UNL     1      38.560 -16.990  -3.147  1.00  0.00     0.159 HD
HETATM   29  O   UNL     1      38.409 -14.794  -4.366  1.00  0.00    -0.266 OA
ENDBRANCH   8  25
TORSDOF 4
ENDMDL
MODEL 3
REMARK VINA RESULT:      -8.3      1.535      1.996
REMARK  4 active torsions:
REMARK  status: ('A' for Active; 'I' for Inactive)
REMARK    1  A    between atoms: C_6  and  C_7 
REMARK    2  A    between atoms: C_7  and  C_8 
REMARK       I    between atoms: C_8  and  N_9 
REMARK    3  A    between atoms: N_9  and  C_10 
REMARK    4  A    between atoms: C_17  and  C_18 
REMARK       I    between atoms: C_18  and  N_19 
ROOT
HETATM    1  C   UNL     1      39.987 -14.007   2.840  1.00  0.00     0.035 A 
HETATM    2  C   UNL     1      40.249 -12.825   2.151  1.00  0.00     0.046 A 
HETATM    3  C   UNL     1      40.475 -12.854   0.757  1.00  0.00     0.030 A 
HETATM    4  C   UNL     1      40.392 -14.067   0.089  1.00  0.00     0.063 A 
HETATM    5  N   UNL     1      40.653 -13.778  -1.222  1.00  0.00    -0.277 N 
HETATM    6  H   UNL     1      40.678 -14.426  -2.001  1.00  0.00     0.189 HD
HETATM    7  N   UNL     1      40.901 -12.479  -1.465  1.00  0.00    -0.168 NA
HETATM    8  C   UNL     1      40.799 -11.897  -0.250  1.00  0.00     0.156 A 
HETATM    9  C   UNL     1      40.092 -15.267   0.732  1.00  0.00     0.034 A 
HETATM   10  C   UNL     1      39.890 -15.207   2.118  1.00  0.00     0.032 A 
ENDROOT
BRANCH   1  11
HETATM   11  N   UNL     1      39.786 -14.100   4.225  1.00  0.00    -0.326 N 
HETATM   12  C   UNL     1      40.593 -14.038   5.335  1.00  0.00     0.235 C 
HETATM   13  O   UNL     1      40.042 -14.102   6.437  1.00  0.00    -0.272 OA
HETATM   14  H   UNL     1      38.835 -14.283   4.521  1.00  0.00     0.169 HD
BRANCH  12  15
HETATM   15  C   UNL     1      42.104 -13.986   5.289  1.00  0.00     0.068 A 
HETATM   16  C   UNL     1      42.867 -12.805   5.889  1.00  0.00     0.026 A 
HETATM   17  C   UNL     1      42.660 -12.835   4.417  1.00  0.00     0.026 A 
BRANCH  15  18
HETATM   18  C   UNL     1      42.814 -15.331   5.038  1.00  0.00    -0.039 A 
HETATM   19  C   UNL     1      42.620 -16.099   3.876  1.00  0.00     0.032 A 
HETATM   20  C   UNL     1      43.279 -17.320   3.696  1.00  0.00     0.034 A 
HETATM   21  C   UNL     1      44.140 -17.814   4.670  1.00  0.00     0.024 A 
HETATM   22 CL   UNL     1      43.021 -18.224   2.253  1.00  0.00    -0.084 Cl
HETATM   23  C   UNL     1      44.346 -17.081   5.833  1.00  0.00     0.002 A 
HETATM   24  C   UNL     1      43.692 -15.859   6.008  1.00  0.00     0.008 A 
ENDBRANCH  15  18
ENDBRANCH  12  15
ENDBRANCH   1  11
BRANCH   8  25
HETATM   25  C   UNL     1      41.023 -10.457  -0.065  1.00  0.00     0.270 C 
HETATM   26  N   UNL     1      40.029  -9.666  -0.570  1.00  0.00    -0.365 N 
HETATM   27  H   UNL     1      39.238 -10.107  -1.024  1.00  0.00     0.159 HD
HETATM   28  H   UNL     1      40.098  -8.662  -0.491  1.00  0.00     0.159 HD
HETATM   29  O   UNL     1      42.010  -9.977   0.482  1.00  0.00    -0.266 OA
ENDBRANCH   8  25
TORSDOF 4
ENDMDL
MODEL 4
REMARK VINA RESULT:      -8.2     14.780     17.173
REMARK  4 active torsions:
REMARK  status: ('A' for Active; 'I' for Inactive)
REMARK    1  A    between atoms: C_6  and  C_7 
REMARK    2  A    between atoms: C_7  and  C_8 
REMARK       I    between atoms: C_8  and  N_9 
REMARK    3  A    between atoms: N_9  and  C_10 
REMARK    4  A    between atoms: C_17  and  C_18 
REMARK       I    between atoms: C_18  and  N_19 
ROOT
HETATM    1  C   UNL     1      47.361 -28.338  -1.520  1.00  0.00     0.035 A 
HETATM    2  C   UNL     1      48.486 -29.130  -1.742  1.00  0.00     0.046 A 
HETATM    3  C   UNL     1      49.228 -29.625  -0.647  1.00  0.00     0.030 A 
HETATM    4  C   UNL     1      48.794 -29.345   0.641  1.00  0.00     0.063 A 
HETATM    5  N   UNL     1      49.698 -29.951   1.469  1.00  0.00    -0.277 N 
HETATM    6  H   UNL     1      49.696 -29.956   2.483  1.00  0.00     0.189 HD
HETATM    7  N   UNL     1      50.687 -30.601   0.830  1.00  0.00    -0.168 NA
HETATM    8  C   UNL     1      50.411 -30.404  -0.478  1.00  0.00     0.156 A 
HETATM    9  C   UNL     1      47.651 -28.593   0.907  1.00  0.00     0.034 A 
HETATM   10  C   UNL     1      46.947 -28.101  -0.201  1.00  0.00     0.032 A 
ENDROOT
BRANCH   1  11
HETATM   11  N   UNL     1      46.575 -27.762  -2.529  1.00  0.00    -0.326 N 
HETATM   12  C   UNL     1      45.500 -28.168  -3.282  1.00  0.00     0.235 C 
HETATM   13  O   UNL     1      45.014 -27.343  -4.060  1.00  0.00    -0.272 OA
HETATM   14  H   UNL     1      46.849 -26.831  -2.823  1.00  0.00     0.169 HD
BRANCH  12  15
HETATM   15  C   UNL     1      44.939 -29.572  -3.281  1.00  0.00     0.068 A 
HETATM   16  C   UNL     1      45.239 -30.538  -4.427  1.00  0.00     0.026 A 
HETATM   17  C   UNL     1      43.927 -29.838  -4.420  1.00  0.00     0.026 A 
BRANCH  15  18
HETATM   18  C   UNL     1      44.463 -30.103  -1.914  1.00  0.00    -0.039 A 
HETATM   19  C   UNL     1      43.708 -29.333  -1.011  1.00  0.00     0.032 A 
HETATM   20  C   UNL     1      43.306 -29.853   0.224  1.00  0.00     0.034 A 
HETATM   21  C   UNL     1      43.652 -31.147   0.598  1.00  0.00     0.024 A 
HETATM   22 CL   UNL     1      42.373 -28.882   1.297  1.00  0.00    -0.084 Cl
HETATM   23  C   UNL     1      44.405 -31.930  -0.271  1.00  0.00     0.002 A 
HETATM   24  C   UNL     1      44.799 -31.411  -1.506  1.00  0.00     0.008 A 
ENDBRANCH  15  18
ENDBRANCH  12  15
ENDBRANCH   1  11
BRANCH   8  25
HETATM   25  C   UNL     1      51.276 -30.943  -1.536  1.00  0.00     0.270 C 
HETATM   26  N   UNL     1      51.319 -32.308  -1.585  1.00  0.00    -0.365 N 
HETATM   27  H   UNL     1      50.776 -32.838  -0.913  1.00  0.00     0.159 HD
HETATM   28  H   UNL     1      51.889 -32.768  -2.279  1.00  0.00     0.159 HD
HETATM   29  O   UNL     1      51.924 -30.253  -2.316  1.00  0.00    -0.266 OA
ENDBRANCH   8  25
TORSDOF 4
ENDMDL
MODEL 5
REMARK VINA RESULT:      -8.1      4.398      6.032
REMARK  4 active torsions:
REMARK  status: ('A' for Active; 'I' for Inactive)
REMARK    1  A    between atoms: C_6  and  C_7 
REMARK    2  A    between atoms: C_7  and  C_8 
REMARK       I    between atoms: C_8  and  N_9 
REMARK    3  A    between atoms: N_9  and  C_10 
REMARK    4  A    between atoms: C_17  and  C_18 
REMARK       I    between atoms: C_18  and  N_19 
ROOT
HETATM    1  C   UNL     1      42.905 -12.275   6.449  1.00  0.00     0.035 A 
HETATM    2  C   UNL     1      43.323 -11.693   7.644  1.00  0.00     0.046 A 
HETATM    3  C   UNL     1      44.578 -11.049   7.716  1.00  0.00     0.030 A 
HETATM    4  C   UNL     1      45.361 -10.974   6.573  1.00  0.00     0.063 A 
HETATM    5  N   UNL     1      46.492 -10.304   6.950  1.00  0.00    -0.277 N 
HETATM    6  H   UNL     1      47.289 -10.067   6.369  1.00  0.00     0.189 HD
HETATM    7  N   UNL     1      46.514  -9.939   8.244  1.00  0.00    -0.168 NA
HETATM    8  C   UNL     1      45.339 -10.397   8.730  1.00  0.00     0.156 A 
HETATM    9  C   UNL     1      44.963 -11.506   5.347  1.00  0.00     0.034 A 
HETATM   10  C   UNL     1      43.720 -12.153   5.313  1.00  0.00     0.032 A 
ENDROOT
BRANCH   1  11
HETATM   11  N   UNL     1      41.700 -12.971   6.275  1.00  0.00    -0.326 N 
HETATM   12  C   UNL     1      41.347 -14.289   6.118  1.00  0.00     0.235 C 
HETATM   13  O   UNL     1      40.143 -14.547   6.051  1.00  0.00    -0.272 OA
HETATM   14  H   UNL     1      40.865 -12.399   6.219  1.00  0.00     0.169 HD
BRANCH  12  15
HETATM   15  C   UNL     1      42.335 -15.420   5.936  1.00  0.00     0.068 A 
HETATM   16  C   UNL     1      42.630 -16.395   7.076  1.00  0.00     0.026 A 
HETATM   17  C   UNL     1      43.595 -15.293   6.825  1.00  0.00     0.026 A 
BRANCH  15  18
HETATM   18  C   UNL     1      42.660 -15.799   4.478  1.00  0.00    -0.039 A 
HETATM   19  C   UNL     1      42.779 -17.129   4.036  1.00  0.00     0.032 A 
HETATM   20  C   UNL     1      43.086 -17.425   2.704  1.00  0.00     0.034 A 
HETATM   21  C   UNL     1      43.294 -16.408   1.778  1.00  0.00     0.024 A 
HETATM   22 CL   UNL     1      43.213 -19.067   2.202  1.00  0.00    -0.084 Cl
HETATM   23  C   UNL     1      43.191 -15.083   2.187  1.00  0.00     0.002 A 
HETATM   24  C   UNL     1      42.877 -14.790   3.516  1.00  0.00     0.008 A 
ENDBRANCH  15  18
ENDBRANCH  12  15
ENDBRANCH   1  11
BRANCH   8  25
HETATM   25  C   UNL     1      44.969 -10.220  10.141  1.00  0.00     0.270 C 
HETATM   26  N   UNL     1      44.322  -9.046  10.408  1.00  0.00    -0.365 N 
HETATM   27  H   UNL     1      44.151  -8.399   9.647  1.00  0.00     0.159 HD
HETATM   28  H   UNL     1      44.031  -8.837  11.351  1.00  0.00     0.159 HD
HETATM   29  O   UNL     1      45.216 -11.033  11.025  1.00  0.00    -0.266 OA
ENDBRANCH   8  25
TORSDOF 4
ENDMDL
MODEL 6
REMARK VINA RESULT:      -7.9      3.395      6.784
REMARK  4 active torsions:
REMARK  status: ('A' for Active; 'I' for Inactive)
REMARK    1  A    between atoms: C_6  and  C_7 
REMARK    2  A    between atoms: C_7  and  C_8 
REMARK       I    between atoms: C_8  and  N_9 
REMARK    3  A    between atoms: N_9  and  C_10 
REMARK    4  A    between atoms: C_17  and  C_18 
REMARK       I    between atoms: C_18  and  N_19 
ROOT
HETATM    1  C   UNL     1      42.995 -13.888   2.966  1.00  0.00     0.035 A 
HETATM    2  C   UNL     1      42.906 -14.513   4.208  1.00  0.00     0.046 A 
HETATM    3  C   UNL     1      43.037 -15.916   4.303  1.00  0.00     0.030 A 
HETATM    4  C   UNL     1      43.295 -16.647   3.152  1.00  0.00     0.063 A 
HETATM    5  N   UNL     1      43.370 -17.951   3.558  1.00  0.00    -0.277 N 
HETATM    6  H   UNL     1      43.546 -18.765   2.981  1.00  0.00     0.189 HD
HETATM    7  N   UNL     1      43.181 -18.132   4.877  1.00  0.00    -0.168 NA
HETATM    8  C   UNL     1      42.970 -16.884   5.349  1.00  0.00     0.156 A 
HETATM    9  C   UNL     1      43.433 -16.057   1.897  1.00  0.00     0.034 A 
HETATM   10  C   UNL     1      43.280 -14.665   1.833  1.00  0.00     0.032 A 
ENDROOT
BRANCH   1  11
HETATM   11  N   UNL     1      42.842 -12.510   2.750  1.00  0.00    -0.326 N 
HETATM   12  C   UNL     1      41.799 -11.686   2.404  1.00  0.00     0.235 C 
HETATM   13  O   UNL     1      42.027 -10.474   2.363  1.00  0.00    -0.272 OA
HETATM   14  H   UNL     1      43.686 -11.955   2.833  1.00  0.00     0.169 HD
BRANCH  12  15
HETATM   15  C   UNL     1      40.429 -12.173   1.989  1.00  0.00     0.068 A 
HETATM   16  C   UNL     1      39.171 -11.683   2.707  1.00  0.00     0.026 A 
HETATM   17  C   UNL     1      39.715 -13.018   3.071  1.00  0.00     0.026 A 
BRANCH  15  18
HETATM   18  C   UNL     1      40.335 -12.794   0.581  1.00  0.00    -0.039 A 
HETATM   19  C   UNL     1      40.702 -12.105  -0.589  1.00  0.00     0.032 A 
HETATM   20  C   UNL     1      40.590 -12.705  -1.848  1.00  0.00     0.034 A 
HETATM   21  C   UNL     1      40.102 -14.001  -1.978  1.00  0.00     0.024 A 
HETATM   22 CL   UNL     1      41.060 -11.831  -3.255  1.00  0.00    -0.084 Cl
HETATM   23  C   UNL     1      39.724 -14.704  -0.839  1.00  0.00     0.002 A 
HETATM   24  C   UNL     1      39.842 -14.105   0.417  1.00  0.00     0.008 A 
ENDBRANCH  15  18
ENDBRANCH  12  15
ENDBRANCH   1  11
BRANCH   8  25
HETATM   25  C   UNL     1      42.696 -16.635   6.771  1.00  0.00     0.270 C 
HETATM   26  N   UNL     1      43.587 -17.224   7.625  1.00  0.00    -0.365 N 
HETATM   27  H   UNL     1      44.344 -17.775   7.236  1.00  0.00     0.159 HD
HETATM   28  H   UNL     1      43.477 -17.109   8.621  1.00  0.00     0.159 HD
HETATM   29  O   UNL     1      41.753 -15.970   7.186  1.00  0.00    -0.266 OA
ENDBRANCH   8  25
TORSDOF 4
ENDMDL
MODEL 7
REMARK VINA RESULT:      -7.8      2.364      3.245
REMARK  4 active torsions:
REMARK  status: ('A' for Active; 'I' for Inactive)
REMARK    1  A    between atoms: C_6  and  C_7 
REMARK    2  A    between atoms: C_7  and  C_8 
REMARK       I    between atoms: C_8  and  N_9 
REMARK    3  A    between atoms: N_9  and  C_10 
REMARK    4  A    between atoms: C_17  and  C_18 
REMARK       I    between atoms: C_18  and  N_19 
ROOT
HETATM    1  C   UNL     1      39.773 -12.836   3.685  1.00  0.00     0.035 A 
HETATM    2  C   UNL     1      39.520 -13.255   2.380  1.00  0.00     0.046 A 
HETATM    3  C   UNL     1      39.680 -12.353   1.305  1.00  0.00     0.030 A 
HETATM    4  C   UNL     1      40.129 -11.067   1.568  1.00  0.00     0.063 A 
HETATM    5  N   UNL     1      40.184 -10.446   0.351  1.00  0.00    -0.277 N 
HETATM    6  H   UNL     1      40.471  -9.492   0.161  1.00  0.00     0.189 HD
HETATM    7  N   UNL     1      39.807 -11.217  -0.683  1.00  0.00    -0.168 NA
HETATM    8  C   UNL     1      39.488 -12.397  -0.108  1.00  0.00     0.156 A 
HETATM    9  C   UNL     1      40.433 -10.620   2.853  1.00  0.00     0.034 A 
HETATM   10  C   UNL     1      40.247 -11.533   3.900  1.00  0.00     0.032 A 
ENDROOT
BRANCH   1  11
HETATM   11  N   UNL     1      39.609 -13.633   4.828  1.00  0.00    -0.326 N 
HETATM   12  C   UNL     1      40.454 -14.267   5.706  1.00  0.00     0.235 C 
HETATM   13  O   UNL     1      39.939 -14.848   6.665  1.00  0.00    -0.272 OA
HETATM   14  H   UNL     1      38.651 -13.835   5.090  1.00  0.00     0.169 HD
BRANCH  12  15
HETATM   15  C   UNL     1      41.952 -14.372   5.523  1.00  0.00     0.068 A 
HETATM   16  C   UNL     1      42.892 -14.348   6.727  1.00  0.00     0.026 A 
HETATM   17  C   UNL     1      42.719 -13.096   5.944  1.00  0.00     0.026 A 
BRANCH  15  18
HETATM   18  C   UNL     1      42.425 -14.941   4.171  1.00  0.00    -0.039 A 
HETATM   19  C   UNL     1      42.403 -16.314   3.864  1.00  0.00     0.032 A 
HETATM   20  C   UNL     1      42.852 -16.786   2.626  1.00  0.00     0.034 A 
HETATM   21  C   UNL     1      43.343 -15.909   1.665  1.00  0.00     0.024 A 
HETATM   22 CL   UNL     1      42.800 -18.474   2.287  1.00  0.00    -0.084 Cl
HETATM   23  C   UNL     1      43.384 -14.547   1.943  1.00  0.00     0.002 A 
HETATM   24  C   UNL     1      42.929 -14.077   3.176  1.00  0.00     0.008 A 
ENDBRANCH  15  18
ENDBRANCH  12  15
ENDBRANCH   1  11
BRANCH   8  25
HETATM   25  C   UNL     1      38.998 -13.533  -0.901  1.00  0.00     0.270 C 
HETATM   26  N   UNL     1      39.567 -14.732  -0.575  1.00  0.00    -0.365 N 
HETATM   27  H   UNL     1      40.264 -14.758   0.160  1.00  0.00     0.159 HD
HETATM   28  H   UNL     1      39.293 -15.568  -1.068  1.00  0.00     0.159 HD
HETATM   29  O   UNL     1      38.160 -13.441  -1.792  1.00  0.00    -0.266 OA
ENDBRANCH   8  25
TORSDOF 4
ENDMDL
MODEL 8
REMARK VINA RESULT:      -7.8      2.684      3.788
REMARK  4 active torsions:
REMARK  status: ('A' for Active; 'I' for Inactive)
REMARK    1  A    between atoms: C_6  and  C_7 
REMARK    2  A    between atoms: C_7  and  C_8 
REMARK       I    between atoms: C_8  and  N_9 
REMARK    3  A    between atoms: N_9  and  C_10 
REMARK    4  A    between atoms: C_17  and  C_18 
REMARK       I    between atoms: C_18  and  N_19 
ROOT
HETATM    1  C   UNL     1      39.807 -14.708   2.373  1.00  0.00     0.035 A 
HETATM    2  C   UNL     1      39.388 -13.380   2.390  1.00  0.00     0.046 A 
HETATM    3  C   UNL     1      39.316 -12.645   1.186  1.00  0.00     0.030 A 
HETATM    4  C   UNL     1      39.630 -13.280  -0.008  1.00  0.00     0.063 A 
HETATM    5  N   UNL     1      39.468 -12.330  -0.978  1.00  0.00    -0.277 N 
HETATM    6  H   UNL     1      39.611 -12.440  -1.976  1.00  0.00     0.189 HD
HETATM    7  N   UNL     1      39.077 -11.129  -0.518  1.00  0.00    -0.168 NA
HETATM    8  C   UNL     1      38.984 -11.308   0.818  1.00  0.00     0.156 A 
HETATM    9  C   UNL     1      40.013 -14.619  -0.075  1.00  0.00     0.034 A 
HETATM   10  C   UNL     1      40.092 -15.315   1.140  1.00  0.00     0.032 A 
ENDROOT
BRANCH   1  11
HETATM   11  N   UNL     1      39.952 -15.518   3.509  1.00  0.00    -0.326 N 
HETATM   12  C   UNL     1      41.006 -15.921   4.293  1.00  0.00     0.235 C 
HETATM   13  O   UNL     1      40.742 -16.609   5.282  1.00  0.00    -0.272 OA
HETATM   14  H   UNL     1      39.103 -15.951   3.853  1.00  0.00     0.169 HD
BRANCH  12  15
HETATM   15  C   UNL     1      42.459 -15.652   3.972  1.00  0.00     0.068 A 
HETATM   16  C   UNL     1      43.231 -16.555   3.011  1.00  0.00     0.026 A 
HETATM   17  C   UNL     1      43.421 -16.757   4.471  1.00  0.00     0.026 A 
BRANCH  15  18
HETATM   18  C   UNL     1      42.962 -14.228   4.283  1.00  0.00    -0.039 A 
HETATM   19  C   UNL     1      43.236 -13.777   5.587  1.00  0.00     0.032 A 
HETATM   20  C   UNL     1      43.681 -12.472   5.823  1.00  0.00     0.034 A 
HETATM   21  C   UNL     1      43.856 -11.578   4.771  1.00  0.00     0.024 A 
HETATM   22 CL   UNL     1      44.015 -11.962   7.433  1.00  0.00    -0.084 Cl
HETATM   23  C   UNL     1      43.586 -11.994   3.472  1.00  0.00     0.002 A 
HETATM   24  C   UNL     1      43.148 -13.299   3.238  1.00  0.00     0.008 A 
ENDBRANCH  15  18
ENDBRANCH  12  15
ENDBRANCH   1  11
BRANCH   8  25
HETATM   25  C   UNL     1      38.597 -10.212   1.716  1.00  0.00     0.270 C 
HETATM   26  N   UNL     1      37.250  -9.992   1.786  1.00  0.00    -0.365 N 
HETATM   27  H   UNL     1      36.632 -10.573   1.232  1.00  0.00     0.159 HD
HETATM   28  H   UNL     1      36.891  -9.257   2.377  1.00  0.00     0.159 HD
HETATM   29  O   UNL     1      39.392  -9.529   2.353  1.00  0.00    -0.266 OA
ENDBRANCH   8  25
TORSDOF 4
ENDMDL
MODEL 9
REMARK VINA RESULT:      -7.7     15.060     16.914
REMARK  4 active torsions:
REMARK  status: ('A' for Active; 'I' for Inactive)
REMARK    1  A    between atoms: C_6  and  C_7 
REMARK    2  A    between atoms: C_7  and  C_8 
REMARK       I    between atoms: C_8  and  N_9 
REMARK    3  A    between atoms: N_9  and  C_10 
REMARK    4  A    between atoms: C_17  and  C_18 
REMARK       I    between atoms: C_18  and  N_19 
ROOT
HETATM    1  C   UNL     1      47.762 -28.766  -1.708  1.00  0.00     0.035 A 
HETATM    2  C   UNL     1      47.781 -28.739  -0.315  1.00  0.00     0.046 A 
HETATM    3  C   UNL     1      48.699 -29.544   0.395  1.00  0.00     0.030 A 
HETATM    4  C   UNL     1      49.599 -30.324  -0.317  1.00  0.00     0.063 A 
HETATM    5  N   UNL     1      50.343 -30.975   0.628  1.00  0.00    -0.277 N 
HETATM    6  H   UNL     1      51.099 -31.632   0.471  1.00  0.00     0.189 HD
HETATM    7  N   UNL     1      50.002 -30.686   1.897  1.00  0.00    -0.168 NA
HETATM    8  C   UNL     1      48.984 -29.807   1.767  1.00  0.00     0.156 A 
HETATM    9  C   UNL     1      49.642 -30.349  -1.710  1.00  0.00     0.034 A 
HETATM   10  C   UNL     1      48.706 -29.553  -2.385  1.00  0.00     0.032 A 
ENDROOT
BRANCH   1  11
HETATM   11  N   UNL     1      46.870 -28.040  -2.512  1.00  0.00    -0.326 N 
HETATM   12  C   UNL     1      45.640 -28.284  -3.072  1.00  0.00     0.235 C 
HETATM   13  O   UNL     1      45.108 -27.358  -3.690  1.00  0.00    -0.272 OA
HETATM   14  H   UNL     1      47.181 -27.117  -2.792  1.00  0.00     0.169 HD
BRANCH  12  15
HETATM   15  C   UNL     1      44.946 -29.628  -3.054  1.00  0.00     0.068 A 
HETATM   16  C   UNL     1      45.221 -30.668  -4.140  1.00  0.00     0.026 A 
HETATM   17  C   UNL     1      43.986 -29.848  -4.247  1.00  0.00     0.026 A 
BRANCH  15  18
HETATM   18  C   UNL     1      44.335 -30.049  -1.703  1.00  0.00    -0.039 A 
HETATM   19  C   UNL     1      44.154 -31.392  -1.325  1.00  0.00     0.032 A 
HETATM   20  C   UNL     1      43.586 -31.727  -0.091  1.00  0.00     0.034 A 
HETATM   21  C   UNL     1      43.173 -30.737   0.794  1.00  0.00     0.024 A 
HETATM   22 CL   UNL     1      43.392 -33.383   0.338  1.00  0.00    -0.084 Cl
HETATM   23  C   UNL     1      43.331 -29.400   0.445  1.00  0.00     0.002 A 
HETATM   24  C   UNL     1      43.905 -29.068  -0.784  1.00  0.00     0.008 A 
ENDBRANCH  15  18
ENDBRANCH  12  15
ENDBRANCH   1  11
BRANCH   8  25
HETATM   25  C   UNL     1      48.298 -29.247   2.939  1.00  0.00     0.270 C 
HETATM   26  N   UNL     1      48.882 -28.120   3.446  1.00  0.00    -0.365 N 
HETATM   27  H   UNL     1      49.719 -27.762   3.002  1.00  0.00     0.159 HD
HETATM   28  H   UNL     1      48.481 -27.667   4.253  1.00  0.00     0.159 HD
HETATM   29  O   UNL     1      47.292 -29.732   3.446  1.00  0.00    -0.266 OA
ENDBRANCH   8  25
TORSDOF 4
ENDMDL
MODEL 10
REMARK VINA RESULT:      -7.6      2.231      3.623
REMARK  4 active torsions:
REMARK  status: ('A' for Active; 'I' for Inactive)
REMARK    1  A    between atoms: C_6  and  C_7 
REMARK    2  A    between atoms: C_7  and  C_8 
REMARK       I    between atoms: C_8  and  N_9 
REMARK    3  A    between atoms: N_9  and  C_10 
REMARK    4  A    between atoms: C_17  and  C_18 
REMARK       I    between atoms: C_18  and  N_19 
ROOT
HETATM    1  C   UNL     1      40.730 -12.971   1.746  1.00  0.00     0.035 A 
HETATM    2  C   UNL     1      40.720 -12.709   0.377  1.00  0.00     0.046 A 
HETATM    3  C   UNL     1      41.130 -11.446  -0.103  1.00  0.00     0.030 A 
HETATM    4  C   UNL     1      41.578 -10.496   0.803  1.00  0.00     0.063 A 
HETATM    5  N   UNL     1      41.901  -9.400   0.051  1.00  0.00    -0.277 N 
HETATM    6  H   UNL     1      42.263  -8.513   0.381  1.00  0.00     0.189 HD
HETATM    7  N   UNL     1      41.700  -9.556  -1.270  1.00  0.00    -0.168 NA
HETATM    8  C   UNL     1      41.220 -10.814  -1.378  1.00  0.00     0.156 A 
HETATM    9  C   UNL     1      41.644 -10.731   2.175  1.00  0.00     0.034 A 
HETATM   10  C   UNL     1      41.212 -11.988   2.623  1.00  0.00     0.032 A 
ENDROOT
BRANCH   1  11
HETATM   11  N   UNL     1      40.307 -14.173   2.335  1.00  0.00    -0.326 N 
HETATM   12  C   UNL     1      40.932 -15.249   2.915  1.00  0.00     0.235 C 
HETATM   13  O   UNL     1      40.212 -16.127   3.397  1.00  0.00    -0.272 OA
HETATM   14  H   UNL     1      39.307 -14.338   2.328  1.00  0.00     0.169 HD
BRANCH  12  15
HETATM   15  C   UNL     1      42.429 -15.464   2.922  1.00  0.00     0.068 A 
HETATM   16  C   UNL     1      43.331 -14.729   1.931  1.00  0.00     0.026 A 
HETATM   17  C   UNL     1      42.966 -16.139   1.637  1.00  0.00     0.026 A 
BRANCH  15  18
HETATM   18  C   UNL     1      43.014 -16.071   4.213  1.00  0.00    -0.039 A 
HETATM   19  C   UNL     1      43.160 -17.455   4.414  1.00  0.00     0.032 A 
HETATM   20  C   UNL     1      43.687 -17.962   5.607  1.00  0.00     0.034 A 
HETATM   21  C   UNL     1      44.072 -17.107   6.635  1.00  0.00     0.024 A 
HETATM   22 CL   UNL     1      43.859 -19.663   5.810  1.00  0.00    -0.084 Cl
HETATM   23  C   UNL     1      43.932 -15.733   6.467  1.00  0.00     0.002 A 
HETATM   24  C   UNL     1      43.412 -15.230   5.273  1.00  0.00     0.008 A 
ENDBRANCH  15  18
ENDBRANCH  12  15
ENDBRANCH   1  11
BRANCH   8  25
HETATM   25  C   UNL     1      40.844 -11.384  -2.679  1.00  0.00     0.270 C 
HETATM   26  N   UNL     1      41.618 -12.438  -3.075  1.00  0.00    -0.365 N 
HETATM   27  H   UNL     1      42.373 -12.742  -2.471  1.00  0.00     0.159 HD
HETATM   28  H   UNL     1      41.435 -12.893  -3.956  1.00  0.00     0.159 HD
HETATM   29  O   UNL     1      39.926 -10.965  -3.377  1.00  0.00    -0.266 OA
ENDBRANCH   8  25
TORSDOF 4
ENDMDL
