MODEL 1
REMARK VINA RESULT:      -8.6      0.000      0.000
REMARK  5 active torsions:
REMARK  status: ('A' for Active; 'I' for Inactive)
REMARK    1  A    between atoms: C_7  and  C_8 
REMARK       I    between atoms: C_8  and  N_9 
REMARK    2  A    between atoms: N_9  and  C_10 
REMARK    3  A    between atoms: C_10  and  C_11 
REMARK    4  A    between atoms: C_11  and  O_12 
REMARK    5  A    between atoms: C_11  and  C_13 
ROOT
HETATM    1  C   UNL     1      43.060 -15.703   2.798  1.00  0.00     0.254 C 
HETATM    2  N   UNL     1      42.098 -14.844   3.281  1.00  0.00    -0.354 N 
HETATM    3  O   UNL     1      43.577 -15.552   1.695  1.00  0.00    -0.268 OA
HETATM    4  H   UNL     1      41.945 -14.842   4.281  1.00  0.00     0.162 HD
ENDROOT
BRANCH   2   5
HETATM    5  C   UNL     1      41.792 -13.599   2.592  1.00  0.00     0.159 C 
BRANCH   5   6
HETATM    6  C   UNL     1      40.278 -13.385   2.404  1.00  0.00     0.175 C 
BRANCH   6   7
HETATM    7  O   UNL     1      39.574 -14.257   3.301  1.00  0.00    -0.389 OA
HETATM    8  H   UNL     1      40.176 -14.511   4.022  1.00  0.00     0.210 HD
ENDBRANCH   6   7
BRANCH   6   9
HETATM    9  C   UNL     1      39.856 -13.519   0.959  1.00  0.00     0.049 A 
HETATM   10  C   UNL     1      39.456 -12.380   0.255  1.00  0.00     0.128 A 
HETATM   11  F   UNL     1      39.415 -11.194   0.881  1.00  0.00    -0.205 F 
HETATM   12  C   UNL     1      39.091 -12.434  -1.090  1.00  0.00     0.043 A 
HETATM   13  C   UNL     1      39.133 -13.649  -1.768  1.00  0.00     0.006 A 
HETATM   14  C   UNL     1      39.537 -14.799  -1.092  1.00  0.00     0.043 A 
HETATM   15  C   UNL     1      39.893 -14.723   0.256  1.00  0.00     0.128 A 
HETATM   16  F   UNL     1      40.255 -15.852   0.881  1.00  0.00    -0.205 F 
ENDBRANCH   6   9
ENDBRANCH   5   6
ENDBRANCH   2   5
BRANCH   1  17
HETATM   17  C   UNL     1      43.467 -16.767   3.720  1.00  0.00     0.066 A 
HETATM   18  C   UNL     1      43.838 -16.653   5.060  1.00  0.00     0.022 A 
HETATM   19  C   UNL     1      43.894 -15.491   5.987  1.00  0.00     0.069 C 
HETATM   20  N   UNL     1      44.154 -17.911   5.514  1.00  0.00    -0.358 N 
HETATM   21  H   UNL     1      44.458 -18.131   6.453  1.00  0.00     0.166 HD
HETATM   22  C   UNL     1      43.962 -18.850   4.533  1.00  0.00     0.043 A 
HETATM   23  C   UNL     1      43.523 -18.170   3.399  1.00  0.00     0.008 A 
HETATM   24  C   UNL     1      44.140 -20.240   4.568  1.00  0.00     0.030 A 
HETATM   25  C   UNL     1      43.248 -18.924   2.238  1.00  0.00     0.015 A 
HETATM   26  C   UNL     1      43.418 -20.313   2.252  1.00  0.00     0.001 A 
HETATM   27  C   UNL     1      43.858 -20.960   3.404  1.00  0.00     0.002 A 
ENDBRANCH   1  17
TORSDOF 5
ENDMDL
MODEL 2
REMARK VINA RESULT:      -8.6      0.195      1.688
REMARK  5 active torsions:
REMARK  status: ('A' for Active; 'I' for Inactive)
REMARK    1  A    between atoms: C_7  and  C_8 
REMARK       I    between atoms: C_8  and  N_9 
REMARK    2  A    between atoms: N_9  and  C_10 
REMARK    3  A    between atoms: C_10  and  C_11 
REMARK    4  A    between atoms: C_11  and  O_12 
REMARK    5  A    between atoms: C_11  and  C_13 
ROOT
HETATM    1  C   UNL     1      43.000 -15.591   2.952  1.00  0.00     0.254 C 
HETATM    2  N   UNL     1      41.950 -14.841   3.435  1.00  0.00    -0.354 N 
HETATM    3  O   UNL     1      43.564 -15.321   1.896  1.00  0.00    -0.268 OA
HETATM    4  H   UNL     1      41.742 -14.926   4.422  1.00  0.00     0.162 HD
ENDROOT
BRANCH   2   5
HETATM    5  C   UNL     1      41.593 -13.572   2.820  1.00  0.00     0.159 C 
BRANCH   5   6
HETATM    6  C   UNL     1      40.083 -13.460   2.534  1.00  0.00     0.175 C 
BRANCH   6   7
HETATM    7  O   UNL     1      39.401 -14.508   3.240  1.00  0.00    -0.389 OA
HETATM    8  H   UNL     1      38.483 -14.227   3.399  1.00  0.00     0.210 HD
ENDBRANCH   6   7
BRANCH   6   9
HETATM    9  C   UNL     1      39.782 -13.419   1.054  1.00  0.00     0.049 A 
HETATM   10  C   UNL     1      39.923 -14.584   0.294  1.00  0.00     0.128 A 
HETATM   11  F   UNL     1      40.361 -15.708   0.880  1.00  0.00    -0.205 F 
HETATM   12  C   UNL     1      39.624 -14.617  -1.068  1.00  0.00     0.043 A 
HETATM   13  C   UNL     1      39.160 -13.467  -1.701  1.00  0.00     0.006 A 
HETATM   14  C   UNL     1      39.001 -12.295  -0.964  1.00  0.00     0.043 A 
HETATM   15  C   UNL     1      39.310 -12.283   0.397  1.00  0.00     0.128 A 
HETATM   16  F   UNL     1      39.167 -11.131   1.069  1.00  0.00    -0.205 F 
ENDBRANCH   6   9
ENDBRANCH   5   6
ENDBRANCH   2   5
BRANCH   1  17
HETATM   17  C   UNL     1      43.432 -16.692   3.818  1.00  0.00     0.066 A 
HETATM   18  C   UNL     1      43.836 -16.632   5.152  1.00  0.00     0.022 A 
HETATM   19  C   UNL     1      43.913 -15.510   6.125  1.00  0.00     0.069 C 
HETATM   20  N   UNL     1      44.166 -17.907   5.545  1.00  0.00    -0.358 N 
HETATM   21  H   UNL     1      44.495 -18.165   6.466  1.00  0.00     0.166 HD
HETATM   22  C   UNL     1      43.953 -18.805   4.531  1.00  0.00     0.043 A 
HETATM   23  C   UNL     1      43.483 -18.080   3.438  1.00  0.00     0.008 A 
HETATM   24  C   UNL     1      44.134 -20.194   4.503  1.00  0.00     0.030 A 
HETATM   25  C   UNL     1      43.181 -18.786   2.253  1.00  0.00     0.015 A 
HETATM   26  C   UNL     1      43.354 -20.174   2.205  1.00  0.00     0.001 A 
HETATM   27  C   UNL     1      43.825 -20.866   3.317  1.00  0.00     0.002 A 
ENDBRANCH   1  17
TORSDOF 5
ENDMDL
MODEL 3
REMARK VINA RESULT:      -8.4      1.791      3.041
REMARK  5 active torsions:
REMARK  status: ('A' for Active; 'I' for Inactive)
REMARK    1  A    between atoms: C_7  and  C_8 
REMARK       I    between atoms: C_8  and  N_9 
REMARK    2  A    between atoms: N_9  and  C_10 
REMARK    3  A    between atoms: C_10  and  C_11 
REMARK    4  A    between atoms: C_11  and  O_12 
REMARK    5  A    between atoms: C_11  and  C_13 
ROOT
HETATM    1  C   UNL     1      42.842 -15.929   2.243  1.00  0.00     0.254 C 
HETATM    2  N   UNL     1      41.491 -15.930   1.975  1.00  0.00    -0.354 N 
HETATM    3  O   UNL     1      43.625 -15.191   1.651  1.00  0.00    -0.268 OA
HETATM    4  H   UNL     1      40.883 -16.318   2.685  1.00  0.00     0.162 HD
ENDROOT
BRANCH   2   5
HETATM    5  C   UNL     1      40.897 -14.913   1.120  1.00  0.00     0.159 C 
BRANCH   5   6
HETATM    6  C   UNL     1      40.020 -13.921   1.908  1.00  0.00     0.175 C 
BRANCH   6   7
HETATM    7  O   UNL     1      39.037 -13.368   1.019  1.00  0.00    -0.389 OA
HETATM    8  H   UNL     1      39.447 -12.643   0.517  1.00  0.00     0.210 HD
ENDBRANCH   6   7
BRANCH   6   9
HETATM    9  C   UNL     1      40.842 -12.884   2.636  1.00  0.00     0.049 A 
HETATM   10  C   UNL     1      40.907 -12.919   4.033  1.00  0.00     0.128 A 
HETATM   11  F   UNL     1      40.209 -13.845   4.705  1.00  0.00    -0.205 F 
HETATM   12  C   UNL     1      41.679 -12.011   4.758  1.00  0.00     0.043 A 
HETATM   13  C   UNL     1      42.422 -11.044   4.087  1.00  0.00     0.006 A 
HETATM   14  C   UNL     1      42.381 -10.993   2.695  1.00  0.00     0.043 A 
HETATM   15  C   UNL     1      41.599 -11.907   1.988  1.00  0.00     0.128 A 
HETATM   16  F   UNL     1      41.567 -11.815   0.651  1.00  0.00    -0.205 F 
ENDBRANCH   6   9
ENDBRANCH   5   6
ENDBRANCH   2   5
BRANCH   1  17
HETATM   17  C   UNL     1      43.265 -16.821   3.326  1.00  0.00     0.066 A 
HETATM   18  C   UNL     1      43.539 -16.496   4.655  1.00  0.00     0.022 A 
HETATM   19  C   UNL     1      43.450 -15.217   5.411  1.00  0.00     0.069 C 
HETATM   20  N   UNL     1      43.916 -17.650   5.298  1.00  0.00    -0.358 N 
HETATM   21  H   UNL     1      44.175 -17.715   6.273  1.00  0.00     0.166 HD
HETATM   22  C   UNL     1      43.858 -18.727   4.450  1.00  0.00     0.043 A 
HETATM   23  C   UNL     1      43.444 -18.245   3.210  1.00  0.00     0.008 A 
HETATM   24  C   UNL     1      44.134 -20.079   4.690  1.00  0.00     0.030 A 
HETATM   25  C   UNL     1      43.301 -19.170   2.153  1.00  0.00     0.015 A 
HETATM   26  C   UNL     1      43.570 -20.526   2.372  1.00  0.00     0.001 A 
HETATM   27  C   UNL     1      43.981 -20.972   3.625  1.00  0.00     0.002 A 
ENDBRANCH   1  17
TORSDOF 5
ENDMDL
MODEL 4
REMARK VINA RESULT:      -8.3      4.551      6.917
REMARK  5 active torsions:
REMARK  status: ('A' for Active; 'I' for Inactive)
REMARK    1  A    between atoms: C_7  and  C_8 
REMARK       I    between atoms: C_8  and  N_9 
REMARK    2  A    between atoms: N_9  and  C_10 
REMARK    3  A    between atoms: C_10  and  C_11 
REMARK    4  A    between atoms: C_11  and  O_12 
REMARK    5  A    between atoms: C_11  and  C_13 
ROOT
HETATM    1  C   UNL     1      42.165 -14.240   5.055  1.00  0.00     0.254 C 
HETATM    2  N   UNL     1      43.127 -13.274   4.860  1.00  0.00    -0.354 N 
HETATM    3  O   UNL     1      41.425 -14.236   6.035  1.00  0.00    -0.268 OA
HETATM    4  H   UNL     1      43.477 -13.160   3.917  1.00  0.00     0.162 HD
ENDROOT
BRANCH   2   5
HETATM    5  C   UNL     1      43.177 -12.087   5.700  1.00  0.00     0.159 C 
BRANCH   5   6
HETATM    6  C   UNL     1      44.123 -12.258   6.905  1.00  0.00     0.175 C 
BRANCH   6   7
HETATM    7  O   UNL     1      43.522 -13.169   7.837  1.00  0.00    -0.389 OA
HETATM    8  H   UNL     1      44.097 -13.236   8.618  1.00  0.00     0.210 HD
ENDBRANCH   6   7
BRANCH   6   9
HETATM    9  C   UNL     1      44.523 -10.933   7.511  1.00  0.00     0.049 A 
HETATM   10  C   UNL     1      45.863 -10.537   7.467  1.00  0.00     0.128 A 
HETATM   11  F   UNL     1      46.777 -11.354   6.925  1.00  0.00    -0.205 F 
HETATM   12  C   UNL     1      46.287  -9.309   7.976  1.00  0.00     0.043 A 
HETATM   13  C   UNL     1      45.358  -8.437   8.537  1.00  0.00     0.006 A 
HETATM   14  C   UNL     1      44.014  -8.803   8.584  1.00  0.00     0.043 A 
HETATM   15  C   UNL     1      43.612 -10.038   8.074  1.00  0.00     0.128 A 
HETATM   16  F   UNL     1      42.315 -10.368   8.157  1.00  0.00    -0.205 F 
ENDBRANCH   6   9
ENDBRANCH   5   6
ENDBRANCH   2   5
BRANCH   1  17
HETATM   17  C   UNL     1      42.047 -15.231   3.982  1.00  0.00     0.066 A 
HETATM   18  C   UNL     1      41.227 -15.188   2.854  1.00  0.00     0.022 A 
HETATM   19  C   UNL     1      40.283 -14.158   2.342  1.00  0.00     0.069 C 
HETATM   20  N   UNL     1      41.440 -16.341   2.138  1.00  0.00    -0.358 N 
HETATM   21  H   UNL     1      40.979 -16.581   1.271  1.00  0.00     0.166 HD
HETATM   22  C   UNL     1      42.401 -17.119   2.734  1.00  0.00     0.043 A 
HETATM   23  C   UNL     1      42.809 -16.449   3.885  1.00  0.00     0.008 A 
HETATM   24  C   UNL     1      42.936 -18.351   2.339  1.00  0.00     0.030 A 
HETATM   25  C   UNL     1      43.807 -17.049   4.684  1.00  0.00     0.015 A 
HETATM   26  C   UNL     1      44.355 -18.280   4.306  1.00  0.00     0.001 A 
HETATM   27  C   UNL     1      43.923 -18.921   3.148  1.00  0.00     0.002 A 
ENDBRANCH   1  17
TORSDOF 5
ENDMDL
MODEL 5
REMARK VINA RESULT:      -8.3      4.558      6.835
REMARK  5 active torsions:
REMARK  status: ('A' for Active; 'I' for Inactive)
REMARK    1  A    between atoms: C_7  and  C_8 
REMARK       I    between atoms: C_8  and  N_9 
REMARK    2  A    between atoms: N_9  and  C_10 
REMARK    3  A    between atoms: C_10  and  C_11 
REMARK    4  A    between atoms: C_11  and  O_12 
REMARK    5  A    between atoms: C_11  and  C_13 
ROOT
HETATM    1  C   UNL     1      42.095 -14.245   5.092  1.00  0.00     0.254 C 
HETATM    2  N   UNL     1      43.042 -13.267   4.887  1.00  0.00    -0.354 N 
HETATM    3  O   UNL     1      41.367 -14.253   6.081  1.00  0.00    -0.268 OA
HETATM    4  H   UNL     1      43.379 -13.147   3.940  1.00  0.00     0.162 HD
ENDROOT
BRANCH   2   5
HETATM    5  C   UNL     1      43.087 -12.081   5.728  1.00  0.00     0.159 C 
BRANCH   5   6
HETATM    6  C   UNL     1      44.079 -12.227   6.899  1.00  0.00     0.175 C 
BRANCH   6   7
HETATM    7  O   UNL     1      43.499 -13.087   7.890  1.00  0.00    -0.389 OA
HETATM    8  H   UNL     1      42.610 -13.346   7.593  1.00  0.00     0.210 HD
ENDBRANCH   6   7
BRANCH   6   9
HETATM    9  C   UNL     1      44.532 -10.889   7.435  1.00  0.00     0.049 A 
HETATM   10  C   UNL     1      43.584 -10.005   7.959  1.00  0.00     0.128 A 
HETATM   11  F   UNL     1      42.286 -10.340   7.943  1.00  0.00    -0.205 F 
HETATM   12  C   UNL     1      43.946  -8.772   8.503  1.00  0.00     0.043 A 
HETATM   13  C   UNL     1      45.288  -8.402   8.541  1.00  0.00     0.006 A 
HETATM   14  C   UNL     1      46.253  -9.268   8.033  1.00  0.00     0.043 A 
HETATM   15  C   UNL     1      45.869 -10.495   7.490  1.00  0.00     0.128 A 
HETATM   16  F   UNL     1      46.823 -11.294   6.990  1.00  0.00    -0.205 F 
ENDBRANCH   6   9
ENDBRANCH   5   6
ENDBRANCH   2   5
BRANCH   1  17
HETATM   17  C   UNL     1      41.976 -15.236   4.018  1.00  0.00     0.066 A 
HETATM   18  C   UNL     1      41.123 -15.215   2.915  1.00  0.00     0.022 A 
HETATM   19  C   UNL     1      40.133 -14.213   2.435  1.00  0.00     0.069 C 
HETATM   20  N   UNL     1      41.351 -16.359   2.188  1.00  0.00    -0.358 N 
HETATM   21  H   UNL     1      40.873 -16.610   1.334  1.00  0.00     0.166 HD
HETATM   22  C   UNL     1      42.352 -17.108   2.753  1.00  0.00     0.043 A 
HETATM   23  C   UNL     1      42.773 -16.430   3.895  1.00  0.00     0.008 A 
HETATM   24  C   UNL     1      42.913 -18.322   2.337  1.00  0.00     0.030 A 
HETATM   25  C   UNL     1      43.812 -17.001   4.662  1.00  0.00     0.015 A 
HETATM   26  C   UNL     1      44.387 -18.213   4.262  1.00  0.00     0.001 A 
HETATM   27  C   UNL     1      43.941 -18.863   3.115  1.00  0.00     0.002 A 
ENDBRANCH   1  17
TORSDOF 5
ENDMDL
MODEL 6
REMARK VINA RESULT:      -8.0      1.518      2.264
REMARK  5 active torsions:
REMARK  status: ('A' for Active; 'I' for Inactive)
REMARK    1  A    between atoms: C_7  and  C_8 
REMARK       I    between atoms: C_8  and  N_9 
REMARK    2  A    between atoms: N_9  and  C_10 
REMARK    3  A    between atoms: C_10  and  C_11 
REMARK    4  A    between atoms: C_11  and  O_12 
REMARK    5  A    between atoms: C_11  and  C_13 
ROOT
HETATM    1  C   UNL     1      42.484 -15.843   2.394  1.00  0.00     0.254 C 
HETATM    2  N   UNL     1      41.118 -15.937   2.254  1.00  0.00    -0.354 N 
HETATM    3  O   UNL     1      43.152 -15.030   1.760  1.00  0.00    -0.268 OA
HETATM    4  H   UNL     1      40.610 -16.392   3.002  1.00  0.00     0.162 HD
ENDROOT
BRANCH   2   5
HETATM    5  C   UNL     1      40.372 -14.941   1.500  1.00  0.00     0.159 C 
BRANCH   5   6
HETATM    6  C   UNL     1      39.949 -13.739   2.367  1.00  0.00     0.175 C 
BRANCH   6   7
HETATM    7  O   UNL     1      38.543 -13.838   2.638  1.00  0.00    -0.389 OA
HETATM    8  H   UNL     1      38.425 -14.080   3.572  1.00  0.00     0.210 HD
ENDBRANCH   6   7
BRANCH   6   9
HETATM    9  C   UNL     1      40.367 -12.420   1.760  1.00  0.00     0.049 A 
HETATM   10  C   UNL     1      41.445 -11.723   2.314  1.00  0.00     0.128 A 
HETATM   11  F   UNL     1      42.065 -12.214   3.397  1.00  0.00    -0.205 F 
HETATM   12  C   UNL     1      41.900 -10.519   1.776  1.00  0.00     0.043 A 
HETATM   13  C   UNL     1      41.281  -9.990   0.646  1.00  0.00     0.006 A 
HETATM   14  C   UNL     1      40.210 -10.670   0.070  1.00  0.00     0.043 A 
HETATM   15  C   UNL     1      39.768 -11.870   0.627  1.00  0.00     0.128 A 
HETATM   16  F   UNL     1      38.721 -12.486   0.059  1.00  0.00    -0.205 F 
ENDBRANCH   6   9
ENDBRANCH   5   6
ENDBRANCH   2   5
BRANCH   1  17
HETATM   17  C   UNL     1      43.073 -16.735   3.397  1.00  0.00     0.066 A 
HETATM   18  C   UNL     1      43.485 -16.424   4.692  1.00  0.00     0.022 A 
HETATM   19  C   UNL     1      43.423 -15.168   5.488  1.00  0.00     0.069 C 
HETATM   20  N   UNL     1      43.989 -17.572   5.257  1.00  0.00    -0.358 N 
HETATM   21  H   UNL     1      44.362 -17.643   6.194  1.00  0.00     0.166 HD
HETATM   22  C   UNL     1      43.884 -18.632   4.393  1.00  0.00     0.043 A 
HETATM   23  C   UNL     1      43.305 -18.146   3.222  1.00  0.00     0.008 A 
HETATM   24  C   UNL     1      44.250 -19.973   4.563  1.00  0.00     0.030 A 
HETATM   25  C   UNL     1      43.085 -19.055   2.164  1.00  0.00     0.015 A 
HETATM   26  C   UNL     1      43.442 -20.399   2.315  1.00  0.00     0.001 A 
HETATM   27  C   UNL     1      44.017 -20.850   3.500  1.00  0.00     0.002 A 
ENDBRANCH   1  17
TORSDOF 5
ENDMDL
MODEL 7
REMARK VINA RESULT:      -7.8      2.283      6.655
REMARK  5 active torsions:
REMARK  status: ('A' for Active; 'I' for Inactive)
REMARK    1  A    between atoms: C_7  and  C_8 
REMARK       I    between atoms: C_8  and  N_9 
REMARK    2  A    between atoms: N_9  and  C_10 
REMARK    3  A    between atoms: C_10  and  C_11 
REMARK    4  A    between atoms: C_11  and  O_12 
REMARK    5  A    between atoms: C_11  and  C_13 
ROOT
HETATM    1  C   UNL     1      42.469 -13.640   2.547  1.00  0.00     0.254 C 
HETATM    2  N   UNL     1      42.192 -13.661   3.896  1.00  0.00    -0.354 N 
HETATM    3  O   UNL     1      43.395 -14.284   2.060  1.00  0.00    -0.268 OA
HETATM    4  H   UNL     1      41.265 -13.370   4.178  1.00  0.00     0.162 HD
ENDROOT
BRANCH   2   5
HETATM    5  C   UNL     1      42.855 -14.606   4.782  1.00  0.00     0.159 C 
BRANCH   5   6
HETATM    6  C   UNL     1      42.078 -15.929   4.920  1.00  0.00     0.175 C 
BRANCH   6   7
HETATM    7  O   UNL     1      41.814 -16.166   6.310  1.00  0.00    -0.389 OA
HETATM    8  H   UNL     1      42.660 -16.328   6.762  1.00  0.00     0.210 HD
ENDBRANCH   6   7
BRANCH   6   9
HETATM    9  C   UNL     1      42.772 -17.075   4.221  1.00  0.00     0.049 A 
HETATM   10  C   UNL     1      42.347 -17.458   2.945  1.00  0.00     0.128 A 
HETATM   11  F   UNL     1      41.307 -16.829   2.378  1.00  0.00    -0.205 F 
HETATM   12  C   UNL     1      42.972 -18.483   2.236  1.00  0.00     0.043 A 
HETATM   13  C   UNL     1      44.060 -19.147   2.797  1.00  0.00     0.006 A 
HETATM   14  C   UNL     1      44.508 -18.780   4.063  1.00  0.00     0.043 A 
HETATM   15  C   UNL     1      43.866 -17.754   4.758  1.00  0.00     0.128 A 
HETATM   16  F   UNL     1      44.311 -17.442   5.984  1.00  0.00    -0.205 F 
ENDBRANCH   6   9
ENDBRANCH   5   6
ENDBRANCH   2   5
BRANCH   1  17
HETATM   17  C   UNL     1      41.544 -12.849   1.730  1.00  0.00     0.066 A 
HETATM   18  C   UNL     1      41.310 -11.475   1.780  1.00  0.00     0.022 A 
HETATM   19  C   UNL     1      41.918 -10.384   2.588  1.00  0.00     0.069 C 
HETATM   20  N   UNL     1      40.350 -11.181   0.841  1.00  0.00    -0.358 N 
HETATM   21  H   UNL     1      39.981 -10.258   0.655  1.00  0.00     0.166 HD
HETATM   22  C   UNL     1      39.978 -12.306   0.151  1.00  0.00     0.043 A 
HETATM   23  C   UNL     1      40.713 -13.367   0.675  1.00  0.00     0.008 A 
HETATM   24  C   UNL     1      39.056 -12.460  -0.893  1.00  0.00     0.030 A 
HETATM   25  C   UNL     1      40.512 -14.651   0.123  1.00  0.00     0.015 A 
HETATM   26  C   UNL     1      39.597 -14.825  -0.921  1.00  0.00     0.001 A 
HETATM   27  C   UNL     1      38.879 -13.742  -1.421  1.00  0.00     0.002 A 
ENDBRANCH   1  17
TORSDOF 5
ENDMDL
MODEL 8
REMARK VINA RESULT:      -7.8      3.332      4.477
REMARK  5 active torsions:
REMARK  status: ('A' for Active; 'I' for Inactive)
REMARK    1  A    between atoms: C_7  and  C_8 
REMARK       I    between atoms: C_8  and  N_9 
REMARK    2  A    between atoms: N_9  and  C_10 
REMARK    3  A    between atoms: C_10  and  C_11 
REMARK    4  A    between atoms: C_11  and  O_12 
REMARK    5  A    between atoms: C_11  and  C_13 
ROOT
HETATM    1  C   UNL     1      42.786 -16.105   5.644  1.00  0.00     0.254 C 
HETATM    2  N   UNL     1      43.726 -15.153   5.970  1.00  0.00    -0.354 N 
HETATM    3  O   UNL     1      41.770 -16.277   6.312  1.00  0.00    -0.268 OA
HETATM    4  H   UNL     1      44.357 -14.861   5.235  1.00  0.00     0.162 HD
ENDROOT
BRANCH   2   5
HETATM    5  C   UNL     1      43.461 -14.165   7.005  1.00  0.00     0.159 C 
BRANCH   5   6
HETATM    6  C   UNL     1      43.776 -12.729   6.544  1.00  0.00     0.175 C 
BRANCH   6   7
HETATM    7  O   UNL     1      43.592 -11.838   7.654  1.00  0.00    -0.389 OA
HETATM    8  H   UNL     1      44.357 -11.239   7.700  1.00  0.00     0.210 HD
ENDBRANCH   6   7
BRANCH   6   9
HETATM    9  C   UNL     1      42.998 -12.341   5.309  1.00  0.00     0.049 A 
HETATM   10  C   UNL     1      41.614 -12.542   5.280  1.00  0.00     0.128 A 
HETATM   11  F   UNL     1      41.006 -13.111   6.330  1.00  0.00    -0.205 F 
HETATM   12  C   UNL     1      40.838 -12.170   4.182  1.00  0.00     0.043 A 
HETATM   13  C   UNL     1      41.441 -11.569   3.081  1.00  0.00     0.006 A 
HETATM   14  C   UNL     1      42.817 -11.349   3.088  1.00  0.00     0.043 A 
HETATM   15  C   UNL     1      43.577 -11.733   4.195  1.00  0.00     0.128 A 
HETATM   16  F   UNL     1      44.901 -11.527   4.158  1.00  0.00    -0.205 F 
ENDBRANCH   6   9
ENDBRANCH   5   6
ENDBRANCH   2   5
BRANCH   1  17
HETATM   17  C   UNL     1      43.055 -16.852   4.411  1.00  0.00     0.066 A 
HETATM   18  C   UNL     1      43.029 -16.385   3.097  1.00  0.00     0.022 A 
HETATM   19  C   UNL     1      42.792 -15.035   2.519  1.00  0.00     0.069 C 
HETATM   20  N   UNL     1      43.329 -17.443   2.272  1.00  0.00    -0.358 N 
HETATM   21  H   UNL     1      43.382 -17.397   1.264  1.00  0.00     0.166 HD
HETATM   22  C   UNL     1      43.592 -18.575   3.001  1.00  0.00     0.043 A 
HETATM   23  C   UNL     1      43.439 -18.239   4.344  1.00  0.00     0.008 A 
HETATM   24  C   UNL     1      43.955 -19.859   2.573  1.00  0.00     0.030 A 
HETATM   25  C   UNL     1      43.660 -19.244   5.310  1.00  0.00     0.015 A 
HETATM   26  C   UNL     1      44.025 -20.533   4.903  1.00  0.00     0.001 A 
HETATM   27  C   UNL     1      44.169 -20.833   3.551  1.00  0.00     0.002 A 
ENDBRANCH   1  17
TORSDOF 5
ENDMDL
MODEL 9
REMARK VINA RESULT:      -7.6      1.888      2.904
REMARK  5 active torsions:
REMARK  status: ('A' for Active; 'I' for Inactive)
REMARK    1  A    between atoms: C_7  and  C_8 
REMARK       I    between atoms: C_8  and  N_9 
REMARK    2  A    between atoms: N_9  and  C_10 
REMARK    3  A    between atoms: C_10  and  C_11 
REMARK    4  A    between atoms: C_11  and  O_12 
REMARK    5  A    between atoms: C_11  and  C_13 
ROOT
HETATM    1  C   UNL     1      40.264 -15.207   3.094  1.00  0.00     0.254 C 
HETATM    2  N   UNL     1      40.467 -13.868   2.844  1.00  0.00    -0.354 N 
HETATM    3  O   UNL     1      39.410 -15.860   2.501  1.00  0.00    -0.268 OA
HETATM    4  H   UNL     1      41.357 -13.478   3.126  1.00  0.00     0.162 HD
ENDROOT
BRANCH   2   5
HETATM    5  C   UNL     1      39.817 -13.209   1.720  1.00  0.00     0.159 C 
BRANCH   5   6
HETATM    6  C   UNL     1      40.755 -13.045   0.510  1.00  0.00     0.175 C 
BRANCH   6   7
HETATM    7  O   UNL     1      41.416 -11.775   0.607  1.00  0.00    -0.389 OA
HETATM    8  H   UNL     1      40.999 -11.161  -0.022  1.00  0.00     0.210 HD
ENDBRANCH   6   7
BRANCH   6   9
HETATM    9  C   UNL     1      40.041 -13.268  -0.803  1.00  0.00     0.049 A 
HETATM   10  C   UNL     1      39.539 -14.538  -1.102  1.00  0.00     0.128 A 
HETATM   11  F   UNL     1      39.732 -15.547  -0.240  1.00  0.00    -0.205 F 
HETATM   12  C   UNL     1      38.838 -14.796  -2.281  1.00  0.00     0.043 A 
HETATM   13  C   UNL     1      38.615 -13.766  -3.190  1.00  0.00     0.006 A 
HETATM   14  C   UNL     1      39.097 -12.489  -2.912  1.00  0.00     0.043 A 
HETATM   15  C   UNL     1      39.799 -12.253  -1.729  1.00  0.00     0.128 A 
HETATM   16  F   UNL     1      40.269 -11.017  -1.504  1.00  0.00    -0.205 F 
ENDBRANCH   6   9
ENDBRANCH   5   6
ENDBRANCH   2   5
BRANCH   1  17
HETATM   17  C   UNL     1      41.181 -15.807   4.067  1.00  0.00     0.066 A 
HETATM   18  C   UNL     1      41.238 -15.592   5.444  1.00  0.00     0.022 A 
HETATM   19  C   UNL     1      40.405 -14.773   6.365  1.00  0.00     0.069 C 
HETATM   20  N   UNL     1      42.266 -16.356   5.943  1.00  0.00    -0.358 N 
HETATM   21  H   UNL     1      42.540 -16.399   6.916  1.00  0.00     0.166 HD
HETATM   22  C   UNL     1      42.856 -17.095   4.950  1.00  0.00     0.043 A 
HETATM   23  C   UNL     1      42.195 -16.784   3.764  1.00  0.00     0.008 A 
HETATM   24  C   UNL     1      43.913 -18.012   5.015  1.00  0.00     0.030 A 
HETATM   25  C   UNL     1      42.618 -17.425   2.579  1.00  0.00     0.015 A 
HETATM   26  C   UNL     1      43.672 -18.345   2.624  1.00  0.00     0.001 A 
HETATM   27  C   UNL     1      44.309 -18.633   3.827  1.00  0.00     0.002 A 
ENDBRANCH   1  17
TORSDOF 5
ENDMDL
MODEL 10
REMARK VINA RESULT:      -7.6      2.271      3.230
REMARK  5 active torsions:
REMARK  status: ('A' for Active; 'I' for Inactive)
REMARK    1  A    between atoms: C_7  and  C_8 
REMARK       I    between atoms: C_8  and  N_9 
REMARK    2  A    between atoms: N_9  and  C_10 
REMARK    3  A    between atoms: C_10  and  C_11 
REMARK    4  A    between atoms: C_11  and  O_12 
REMARK    5  A    between atoms: C_11  and  C_13 
ROOT
HETATM    1  C   UNL     1      40.770 -15.434   1.549  1.00  0.00     0.254 C 
HETATM    2  N   UNL     1      41.144 -14.510   0.599  1.00  0.00    -0.354 N 
HETATM    3  O   UNL     1      39.728 -16.077   1.461  1.00  0.00    -0.268 OA
HETATM    4  H   UNL     1      42.122 -14.253   0.569  1.00  0.00     0.162 HD
ENDROOT
BRANCH   2   5
HETATM    5  C   UNL     1      40.422 -14.398  -0.659  1.00  0.00     0.159 C 
BRANCH   5   6
HETATM    6  C   UNL     1      39.425 -13.224  -0.664  1.00  0.00     0.175 C 
BRANCH   6   7
HETATM    7  O   UNL     1      38.193 -13.667  -1.253  1.00  0.00    -0.389 OA
HETATM    8  H   UNL     1      37.504 -13.007  -1.064  1.00  0.00     0.210 HD
ENDBRANCH   6   7
BRANCH   6   9
HETATM    9  C   UNL     1      40.002 -11.985  -1.308  1.00  0.00     0.049 A 
HETATM   10  C   UNL     1      40.550 -10.985  -0.499  1.00  0.00     0.128 A 
HETATM   11  F   UNL     1      40.520 -11.122   0.835  1.00  0.00    -0.205 F 
HETATM   12  C   UNL     1      41.131  -9.836  -1.036  1.00  0.00     0.043 A 
HETATM   13  C   UNL     1      41.185  -9.671  -2.418  1.00  0.00     0.006 A 
HETATM   14  C   UNL     1      40.653 -10.657  -3.247  1.00  0.00     0.043 A 
HETATM   15  C   UNL     1      40.073 -11.797  -2.688  1.00  0.00     0.128 A 
HETATM   16  F   UNL     1      39.551 -12.714  -3.516  1.00  0.00    -0.205 F 
ENDBRANCH   6   9
ENDBRANCH   5   6
ENDBRANCH   2   5
BRANCH   1  17
HETATM   17  C   UNL     1      41.734 -15.639   2.635  1.00  0.00     0.066 A 
HETATM   18  C   UNL     1      42.057 -14.770   3.676  1.00  0.00     0.022 A 
HETATM   19  C   UNL     1      41.532 -13.433   4.064  1.00  0.00     0.069 C 
HETATM   20  N   UNL     1      43.022 -15.378   4.443  1.00  0.00    -0.358 N 
HETATM   21  H   UNL     1      43.448 -14.977   5.269  1.00  0.00     0.166 HD
HETATM   22  C   UNL     1      43.312 -16.631   3.966  1.00  0.00     0.043 A 
HETATM   23  C   UNL     1      42.516 -16.831   2.840  1.00  0.00     0.008 A 
HETATM   24  C   UNL     1      44.208 -17.594   4.447  1.00  0.00     0.030 A 
HETATM   25  C   UNL     1      42.626 -18.063   2.160  1.00  0.00     0.015 A 
HETATM   26  C   UNL     1      43.514 -19.039   2.626  1.00  0.00     0.001 A 
HETATM   27  C   UNL     1      44.294 -18.805   3.755  1.00  0.00     0.002 A 
ENDBRANCH   1  17
TORSDOF 5
ENDMDL
