MODEL 1
REMARK VINA RESULT:      -9.5      0.000      0.000
REMARK  5 active torsions:
REMARK  status: ('A' for Active; 'I' for Inactive)
REMARK    1  A    between atoms: C_5  and  C_6 
REMARK    2  A    between atoms: C_11  and  C_12 
REMARK    3  A    between atoms: C_12  and  N_13 
REMARK    4  A    between atoms: N_13  and  C_15 
REMARK    5  A    between atoms: N_18  and  C_19 
ROOT
HETATM    1  N   UNL     1      41.425 -14.730   4.586  1.00  0.00    -0.067 N 
HETATM    2  H   UNL     1      42.279 -14.363   5.030  1.00  0.00     0.280 HD
HETATM    3  C   UNL     1      40.422 -13.622   4.701  1.00  0.00     0.270 C 
ENDROOT
BRANCH   1   4
HETATM    4  C   UNL     1      41.064 -15.916   5.492  1.00  0.00     0.277 C 
BRANCH   4   5
HETATM    5  C   UNL     1      42.141 -16.232   6.470  1.00  0.00     0.016 A 
HETATM    6  C   UNL     1      43.179 -17.209   6.332  1.00  0.00     0.096 A 
HETATM    7  N   UNL     1      44.000 -17.186   7.385  1.00  0.00    -0.174 NA
HETATM    8  N   UNL     1      43.538 -16.217   8.176  1.00  0.00    -0.288 N 
HETATM    9  H   UNL     1      44.048 -16.013   9.033  1.00  0.00     0.188 HD
HETATM   10  C   UNL     1      42.413 -15.619   7.681  1.00  0.00     0.120 A 
BRANCH   6  11
HETATM   11  C   UNL     1      43.427 -18.133   5.232  1.00  0.00    -0.005 A 
HETATM   12  C   UNL     1      43.636 -19.496   5.469  1.00  0.00     0.014 A 
HETATM   13  C   UNL     1      43.889 -20.363   4.401  1.00  0.00     0.007 A 
HETATM   14  C   UNL     1      43.954 -19.876   3.090  1.00  0.00    -0.062 A 
HETATM   15  C   UNL     1      44.231 -20.801   1.940  1.00  0.00     0.048 C 
HETATM   16  C   UNL     1      43.736 -18.514   2.857  1.00  0.00     0.007 A 
HETATM   17  C   UNL     1      43.483 -17.647   3.921  1.00  0.00     0.014 A 
ENDBRANCH   6  11
ENDBRANCH   4   5
ENDBRANCH   1   4
BRANCH   1  18
HETATM   18  C   UNL     1      41.828 -15.156   3.169  1.00  0.00     0.190 C 
HETATM   19  C   UNL     1      40.700 -15.853   2.396  1.00  0.00     0.048 C 
HETATM   20  C   UNL     1      39.937 -14.955   1.428  1.00  0.00     0.099 C 
HETATM   21  N   UNL     1      40.903 -14.187   0.639  1.00  0.00    -0.268 NA
HETATM   22  C   UNL     1      41.679 -13.237   1.443  1.00  0.00     0.099 C 
HETATM   23  C   UNL     1      42.545 -14.019   2.426  1.00  0.00     0.048 C 
BRANCH  21  24
HETATM   24  C   UNL     1      40.393 -13.656  -0.557  1.00  0.00     0.109 A 
HETATM   25  N   UNL     1      40.768 -12.430  -0.962  1.00  0.00    -0.224 NA
HETATM   26  C   UNL     1      40.314 -11.988  -2.162  1.00  0.00     0.102 A 
HETATM   27  C   UNL     1      40.743 -10.635  -2.637  1.00  0.00     0.091 C 
HETATM   28  N   UNL     1      39.519 -12.712  -2.960  1.00  0.00    -0.348 N 
HETATM   29  H   UNL     1      39.228 -12.326  -3.857  1.00  0.00     0.167 HD
HETATM   30  C   UNL     1      39.128 -13.939  -2.584  1.00  0.00     0.009 A 
HETATM   31  C   UNL     1      38.264 -14.741  -3.503  1.00  0.00     0.068 C 
HETATM   32  C   UNL     1      39.565 -14.438  -1.356  1.00  0.00     0.069 A 
ENDBRANCH  21  24
ENDBRANCH   1  18
TORSDOF 5
ENDMDL
MODEL 2
REMARK VINA RESULT:      -9.3      1.002      2.231
REMARK  5 active torsions:
REMARK  status: ('A' for Active; 'I' for Inactive)
REMARK    1  A    between atoms: C_5  and  C_6 
REMARK    2  A    between atoms: C_11  and  C_12 
REMARK    3  A    between atoms: C_12  and  N_13 
REMARK    4  A    between atoms: N_13  and  C_15 
REMARK    5  A    between atoms: N_18  and  C_19 
ROOT
HETATM    1  N   UNL     1      41.484 -14.302   4.915  1.00  0.00    -0.067 N 
HETATM    2  H   UNL     1      41.248 -13.968   5.860  1.00  0.00     0.280 HD
HETATM    3  C   UNL     1      40.595 -15.487   4.690  1.00  0.00     0.270 C 
ENDROOT
BRANCH   1   4
HETATM    4  C   UNL     1      42.954 -14.719   5.069  1.00  0.00     0.277 C 
BRANCH   4   5
HETATM    5  C   UNL     1      43.168 -15.631   6.226  1.00  0.00     0.016 A 
HETATM    6  C   UNL     1      43.450 -17.034   6.184  1.00  0.00     0.096 A 
HETATM    7  N   UNL     1      43.631 -17.522   7.414  1.00  0.00    -0.174 NA
HETATM    8  N   UNL     1      43.497 -16.480   8.234  1.00  0.00    -0.288 N 
HETATM    9  H   UNL     1      43.630 -16.633   9.232  1.00  0.00     0.188 HD
HETATM   10  C   UNL     1      43.203 -15.319   7.574  1.00  0.00     0.120 A 
BRANCH   6  11
HETATM   11  C   UNL     1      43.579 -17.909   5.025  1.00  0.00    -0.005 A 
HETATM   12  C   UNL     1      43.378 -17.421   3.729  1.00  0.00     0.014 A 
HETATM   13  C   UNL     1      43.490 -18.281   2.630  1.00  0.00     0.007 A 
HETATM   14  C   UNL     1      43.784 -19.637   2.817  1.00  0.00    -0.062 A 
HETATM   15  C   UNL     1      43.900 -20.566   1.643  1.00  0.00     0.048 C 
HETATM   16  C   UNL     1      43.992 -20.118   4.114  1.00  0.00     0.007 A 
HETATM   17  C   UNL     1      43.881 -19.262   5.211  1.00  0.00     0.014 A 
ENDBRANCH   6  11
ENDBRANCH   4   5
ENDBRANCH   1   4
BRANCH   1  18
HETATM   18  C   UNL     1      41.294 -13.104   3.976  1.00  0.00     0.190 C 
HETATM   19  C   UNL     1      42.416 -12.954   2.940  1.00  0.00     0.048 C 
HETATM   20  C   UNL     1      42.094 -13.517   1.560  1.00  0.00     0.099 C 
HETATM   21  N   UNL     1      40.762 -13.055   1.164  1.00  0.00    -0.268 NA
HETATM   22  C   UNL     1      39.690 -13.591   2.008  1.00  0.00     0.099 C 
HETATM   23  C   UNL     1      39.862 -13.048   3.424  1.00  0.00     0.048 C 
BRANCH  21  24
HETATM   24  C   UNL     1      40.504 -13.121  -0.215  1.00  0.00     0.109 A 
HETATM   25  N   UNL     1      39.814 -14.158  -0.721  1.00  0.00    -0.224 NA
HETATM   26  C   UNL     1      39.519 -14.144  -2.045  1.00  0.00     0.102 A 
HETATM   27  C   UNL     1      38.730 -15.279  -2.617  1.00  0.00     0.091 C 
HETATM   28  N   UNL     1      39.876 -13.148  -2.867  1.00  0.00    -0.348 N 
HETATM   29  H   UNL     1      39.607 -13.192  -3.849  1.00  0.00     0.167 HD
HETATM   30  C   UNL     1      40.565 -12.099  -2.393  1.00  0.00     0.009 A 
HETATM   31  C   UNL     1      40.928 -10.986  -3.322  1.00  0.00     0.068 C 
HETATM   32  C   UNL     1      40.897 -12.069  -1.037  1.00  0.00     0.069 A 
ENDBRANCH  21  24
ENDBRANCH   1  18
TORSDOF 5
ENDMDL
MODEL 3
REMARK VINA RESULT:      -9.0      3.785      7.249
REMARK  5 active torsions:
REMARK  status: ('A' for Active; 'I' for Inactive)
REMARK    1  A    between atoms: C_5  and  C_6 
REMARK    2  A    between atoms: C_11  and  C_12 
REMARK    3  A    between atoms: C_12  and  N_13 
REMARK    4  A    between atoms: N_13  and  C_15 
REMARK    5  A    between atoms: N_18  and  C_19 
ROOT
HETATM    1  N   UNL     1      41.245 -15.016   5.230  1.00  0.00    -0.067 N 
HETATM    2  H   UNL     1      41.859 -15.756   5.601  1.00  0.00     0.280 HD
HETATM    3  C   UNL     1      40.230 -14.781   6.308  1.00  0.00     0.270 C 
ENDROOT
BRANCH   1   4
HETATM    4  C   UNL     1      40.618 -15.690   4.001  1.00  0.00     0.277 C 
BRANCH   4   5
HETATM    5  C   UNL     1      41.470 -15.563   2.787  1.00  0.00     0.016 A 
HETATM    6  C   UNL     1      42.552 -16.414   2.394  1.00  0.00     0.096 A 
HETATM    7  N   UNL     1      43.060 -16.030   1.220  1.00  0.00    -0.174 NA
HETATM    8  N   UNL     1      42.328 -14.982   0.841  1.00  0.00    -0.288 N 
HETATM    9  H   UNL     1      42.536 -14.550  -0.057  1.00  0.00     0.188 HD
HETATM   10  C   UNL     1      41.366 -14.648   1.753  1.00  0.00     0.120 A 
BRANCH   6  11
HETATM   11  C   UNL     1      43.094 -17.582   3.077  1.00  0.00    -0.005 A 
HETATM   12  C   UNL     1      43.169 -18.823   2.434  1.00  0.00     0.014 A 
HETATM   13  C   UNL     1      43.677 -19.936   3.113  1.00  0.00     0.007 A 
HETATM   14  C   UNL     1      44.097 -19.825   4.444  1.00  0.00    -0.062 A 
HETATM   15  C   UNL     1      44.638 -21.017   5.180  1.00  0.00     0.048 C 
HETATM   16  C   UNL     1      44.028 -18.581   5.081  1.00  0.00     0.007 A 
HETATM   17  C   UNL     1      43.522 -17.469   4.405  1.00  0.00     0.014 A 
ENDBRANCH   6  11
ENDBRANCH   4   5
ENDBRANCH   1   4
BRANCH   1  18
HETATM   18  C   UNL     1      42.160 -13.840   4.870  1.00  0.00     0.190 C 
HETATM   19  C   UNL     1      41.424 -12.496   4.785  1.00  0.00     0.048 C 
HETATM   20  C   UNL     1      41.537 -11.623   6.031  1.00  0.00     0.099 C 
HETATM   21  N   UNL     1      42.940 -11.583   6.450  1.00  0.00    -0.268 NA
HETATM   22  C   UNL     1      43.445 -12.884   6.900  1.00  0.00     0.099 C 
HETATM   23  C   UNL     1      43.441 -13.848   5.717  1.00  0.00     0.048 C 
BRANCH  21  24
HETATM   24  C   UNL     1      43.269 -10.508   7.292  1.00  0.00     0.109 A 
HETATM   25  N   UNL     1      42.674  -9.315   7.122  1.00  0.00    -0.224 NA
HETATM   26  C   UNL     1      42.962  -8.327   8.006  1.00  0.00     0.102 A 
HETATM   27  C   UNL     1      42.288  -7.000   7.845  1.00  0.00     0.091 C 
HETATM   28  N   UNL     1      43.802  -8.484   9.038  1.00  0.00    -0.348 N 
HETATM   29  H   UNL     1      43.961  -7.705   9.674  1.00  0.00     0.167 HD
HETATM   30  C   UNL     1      44.411  -9.663   9.234  1.00  0.00     0.009 A 
HETATM   31  C   UNL     1      45.323  -9.825  10.407  1.00  0.00     0.068 C 
HETATM   32  C   UNL     1      44.151 -10.711   8.348  1.00  0.00     0.069 A 
ENDBRANCH  21  24
ENDBRANCH   1  18
TORSDOF 5
ENDMDL
MODEL 4
REMARK VINA RESULT:      -9.0      1.744      4.291
REMARK  5 active torsions:
REMARK  status: ('A' for Active; 'I' for Inactive)
REMARK    1  A    between atoms: C_5  and  C_6 
REMARK    2  A    between atoms: C_11  and  C_12 
REMARK    3  A    between atoms: C_12  and  N_13 
REMARK    4  A    between atoms: N_13  and  C_15 
REMARK    5  A    between atoms: N_18  and  C_19 
ROOT
HETATM    1  N   UNL     1      42.207 -16.631   3.559  1.00  0.00    -0.067 N 
HETATM    2  H   UNL     1      41.737 -17.186   4.288  1.00  0.00     0.280 HD
HETATM    3  C   UNL     1      42.418 -17.586   2.423  1.00  0.00     0.270 C 
ENDROOT
BRANCH   1   4
HETATM    4  C   UNL     1      43.533 -16.251   4.233  1.00  0.00     0.277 C 
BRANCH   4   5
HETATM    5  C   UNL     1      43.481 -16.399   5.713  1.00  0.00     0.016 A 
HETATM    6  C   UNL     1      43.210 -15.378   6.678  1.00  0.00     0.096 A 
HETATM    7  N   UNL     1      43.195 -15.880   7.916  1.00  0.00    -0.174 NA
HETATM    8  N   UNL     1      43.423 -17.186   7.773  1.00  0.00    -0.288 N 
HETATM    9  H   UNL     1      43.423 -17.768   8.607  1.00  0.00     0.188 HD
HETATM   10  C   UNL     1      43.617 -17.551   6.470  1.00  0.00     0.120 A 
BRANCH   6  11
HETATM   11  C   UNL     1      42.941 -13.961   6.461  1.00  0.00    -0.005 A 
HETATM   12  C   UNL     1      43.967 -13.013   6.538  1.00  0.00     0.014 A 
HETATM   13  C   UNL     1      43.685 -11.656   6.344  1.00  0.00     0.007 A 
HETATM   14  C   UNL     1      42.375 -11.232   6.089  1.00  0.00    -0.062 A 
HETATM   15  C   UNL     1      42.064  -9.777   5.885  1.00  0.00     0.048 C 
HETATM   16  C   UNL     1      41.353 -12.185   6.006  1.00  0.00     0.007 A 
HETATM   17  C   UNL     1      41.633 -13.539   6.199  1.00  0.00     0.014 A 
ENDBRANCH   6  11
ENDBRANCH   4   5
ENDBRANCH   1   4
BRANCH   1  18
HETATM   18  C   UNL     1      41.301 -15.424   3.290  1.00  0.00     0.190 C 
HETATM   19  C   UNL     1      42.042 -14.226   2.679  1.00  0.00     0.048 C 
HETATM   20  C   UNL     1      41.912 -14.097   1.165  1.00  0.00     0.099 C 
HETATM   21  N   UNL     1      40.502 -14.258   0.800  1.00  0.00    -0.268 NA
HETATM   22  C   UNL     1      39.986 -15.604   1.071  1.00  0.00     0.099 C 
HETATM   23  C   UNL     1      40.006 -15.842   2.578  1.00  0.00     0.048 C 
BRANCH  21  24
HETATM   24  C   UNL     1      40.163 -13.749  -0.464  1.00  0.00     0.109 A 
HETATM   25  N   UNL     1      40.686 -12.583  -0.881  1.00  0.00    -0.224 NA
HETATM   26  C   UNL     1      40.394 -12.166  -2.139  1.00  0.00     0.102 A 
HETATM   27  C   UNL     1      40.989 -10.882  -2.627  1.00  0.00     0.091 C 
HETATM   28  N   UNL     1      39.619 -12.860  -2.983  1.00  0.00    -0.348 N 
HETATM   29  H   UNL     1      39.453 -12.497  -3.921  1.00  0.00     0.167 HD
HETATM   30  C   UNL     1      39.083 -14.028  -2.596  1.00  0.00     0.009 A 
HETATM   31  C   UNL     1      38.243 -14.799  -3.563  1.00  0.00     0.068 C 
HETATM   32  C   UNL     1      39.349 -14.497  -1.309  1.00  0.00     0.069 A 
ENDBRANCH  21  24
ENDBRANCH   1  18
TORSDOF 5
ENDMDL
MODEL 5
REMARK VINA RESULT:      -8.9      1.985      2.626
REMARK  5 active torsions:
REMARK  status: ('A' for Active; 'I' for Inactive)
REMARK    1  A    between atoms: C_5  and  C_6 
REMARK    2  A    between atoms: C_11  and  C_12 
REMARK    3  A    between atoms: C_12  and  N_13 
REMARK    4  A    between atoms: N_13  and  C_15 
REMARK    5  A    between atoms: N_18  and  C_19 
ROOT
HETATM    1  N   UNL     1      42.643 -12.569   2.722  1.00  0.00    -0.067 N 
HETATM    2  H   UNL     1      43.085 -12.615   1.793  1.00  0.00     0.280 HD
HETATM    3  C   UNL     1      42.745 -11.130   3.128  1.00  0.00     0.270 C 
ENDROOT
BRANCH   1   4
HETATM    4  C   UNL     1      43.559 -13.463   3.570  1.00  0.00     0.277 C 
BRANCH   4   5
HETATM    5  C   UNL     1      42.871 -14.001   4.775  1.00  0.00     0.016 A 
HETATM    6  C   UNL     1      42.610 -15.375   5.084  1.00  0.00     0.096 A 
HETATM    7  N   UNL     1      42.016 -15.492   6.274  1.00  0.00    -0.174 NA
HETATM    8  N   UNL     1      41.909 -14.249   6.744  1.00  0.00    -0.288 N 
HETATM    9  H   UNL     1      41.503 -14.118   7.668  1.00  0.00     0.188 HD
HETATM   10  C   UNL     1      42.394 -13.311   5.876  1.00  0.00     0.120 A 
BRANCH   6  11
HETATM   11  C   UNL     1      42.930 -16.565   4.306  1.00  0.00    -0.005 A 
HETATM   12  C   UNL     1      42.237 -16.863   3.127  1.00  0.00     0.014 A 
HETATM   13  C   UNL     1      42.547 -18.020   2.404  1.00  0.00     0.007 A 
HETATM   14  C   UNL     1      43.538 -18.898   2.859  1.00  0.00    -0.062 A 
HETATM   15  C   UNL     1      43.872 -20.144   2.090  1.00  0.00     0.048 C 
HETATM   16  C   UNL     1      44.234 -18.592   4.034  1.00  0.00     0.007 A 
HETATM   17  C   UNL     1      43.926 -17.438   4.757  1.00  0.00     0.014 A 
ENDBRANCH   6  11
ENDBRANCH   4   5
ENDBRANCH   1   4
BRANCH   1  18
HETATM   18  C   UNL     1      41.231 -13.143   2.553  1.00  0.00     0.190 C 
HETATM   19  C   UNL     1      40.144 -12.066   2.428  1.00  0.00     0.048 C 
HETATM   20  C   UNL     1      39.707 -11.759   0.999  1.00  0.00     0.099 C 
HETATM   21  N   UNL     1      39.469 -13.024   0.299  1.00  0.00    -0.268 NA
HETATM   22  C   UNL     1      40.686 -13.822   0.119  1.00  0.00     0.099 C 
HETATM   23  C   UNL     1      41.200 -14.251   1.490  1.00  0.00     0.048 C 
BRANCH  21  24
HETATM   24  C   UNL     1      38.668 -12.916  -0.849  1.00  0.00     0.109 A 
HETATM   25  N   UNL     1      37.928 -11.812  -1.051  1.00  0.00    -0.224 NA
HETATM   26  C   UNL     1      37.231 -11.715  -2.211  1.00  0.00     0.102 A 
HETATM   27  C   UNL     1      36.421 -10.481  -2.461  1.00  0.00     0.091 C 
HETATM   28  N   UNL     1      37.250 -12.658  -3.163  1.00  0.00    -0.348 N 
HETATM   29  H   UNL     1      36.715 -12.513  -4.018  1.00  0.00     0.167 HD
HETATM   30  C   UNL     1      37.980 -13.770  -2.991  1.00  0.00     0.009 A 
HETATM   31  C   UNL     1      38.008 -14.797  -4.077  1.00  0.00     0.068 C 
HETATM   32  C   UNL     1      38.711 -13.920  -1.811  1.00  0.00     0.069 A 
ENDBRANCH  21  24
ENDBRANCH   1  18
TORSDOF 5
ENDMDL
MODEL 6
REMARK VINA RESULT:      -8.7      4.260      7.144
REMARK  5 active torsions:
REMARK  status: ('A' for Active; 'I' for Inactive)
REMARK    1  A    between atoms: C_5  and  C_6 
REMARK    2  A    between atoms: C_11  and  C_12 
REMARK    3  A    between atoms: C_12  and  N_13 
REMARK    4  A    between atoms: N_13  and  C_15 
REMARK    5  A    between atoms: N_18  and  C_19 
ROOT
HETATM    1  N   UNL     1      41.477 -13.391   4.210  1.00  0.00    -0.067 N 
HETATM    2  H   UNL     1      40.982 -13.609   5.087  1.00  0.00     0.280 HD
HETATM    3  C   UNL     1      40.613 -13.959   3.126  1.00  0.00     0.270 C 
ENDROOT
BRANCH   1   4
HETATM    4  C   UNL     1      42.785 -14.182   4.363  1.00  0.00     0.277 C 
BRANCH   4   5
HETATM    5  C   UNL     1      42.842 -14.943   5.641  1.00  0.00     0.016 A 
HETATM    6  C   UNL     1      43.053 -16.349   5.805  1.00  0.00     0.096 A 
HETATM    7  N   UNL     1      43.094 -16.679   7.098  1.00  0.00    -0.174 NA
HETATM    8  N   UNL     1      42.940 -15.534   7.764  1.00  0.00    -0.288 N 
HETATM    9  H   UNL     1      42.972 -15.561   8.780  1.00  0.00     0.188 HD
HETATM   10  C   UNL     1      42.770 -14.459   6.937  1.00  0.00     0.120 A 
BRANCH   6  11
HETATM   11  C   UNL     1      43.242 -17.372   4.783  1.00  0.00    -0.005 A 
HETATM   12  C   UNL     1      43.934 -18.554   5.067  1.00  0.00     0.014 A 
HETATM   13  C   UNL     1      44.119 -19.516   4.068  1.00  0.00     0.007 A 
HETATM   14  C   UNL     1      43.632 -19.299   2.773  1.00  0.00    -0.062 A 
HETATM   15  C   UNL     1      43.832 -20.325   1.695  1.00  0.00     0.048 C 
HETATM   16  C   UNL     1      42.934 -18.118   2.496  1.00  0.00     0.007 A 
HETATM   17  C   UNL     1      42.748 -17.157   3.492  1.00  0.00     0.014 A 
ENDBRANCH   6  11
ENDBRANCH   4   5
ENDBRANCH   1   4
BRANCH   1  18
HETATM   18  C   UNL     1      41.689 -11.872   4.204  1.00  0.00     0.190 C 
HETATM   19  C   UNL     1      40.704 -11.114   5.105  1.00  0.00     0.048 C 
HETATM   20  C   UNL     1      41.253 -10.735   6.477  1.00  0.00     0.099 C 
HETATM   21  N   UNL     1      42.582 -10.144   6.304  1.00  0.00    -0.268 NA
HETATM   22  C   UNL     1      43.575 -11.094   5.792  1.00  0.00     0.099 C 
HETATM   23  C   UNL     1      43.171 -11.513   4.381  1.00  0.00     0.048 C 
BRANCH  21  24
HETATM   24  C   UNL     1      43.024  -9.369   7.389  1.00  0.00     0.109 A 
HETATM   25  N   UNL     1      42.502  -8.149   7.600  1.00  0.00    -0.224 NA
HETATM   26  C   UNL     1      42.899  -7.467   8.704  1.00  0.00     0.102 A 
HETATM   27  C   UNL     1      42.307  -6.117   8.965  1.00  0.00     0.091 C 
HETATM   28  N   UNL     1      43.777  -7.951   9.592  1.00  0.00    -0.348 N 
HETATM   29  H   UNL     1      44.020  -7.393  10.409  1.00  0.00     0.167 HD
HETATM   30  C   UNL     1      44.316  -9.167   9.409  1.00  0.00     0.009 A 
HETATM   31  C   UNL     1      45.273  -9.699  10.426  1.00  0.00     0.068 C 
HETATM   32  C   UNL     1      43.943  -9.906   8.285  1.00  0.00     0.069 A 
ENDBRANCH  21  24
ENDBRANCH   1  18
TORSDOF 5
ENDMDL
MODEL 7
REMARK VINA RESULT:      -8.7      5.350      8.930
REMARK  5 active torsions:
REMARK  status: ('A' for Active; 'I' for Inactive)
REMARK    1  A    between atoms: C_5  and  C_6 
REMARK    2  A    between atoms: C_11  and  C_12 
REMARK    3  A    between atoms: C_12  and  N_13 
REMARK    4  A    between atoms: N_13  and  C_15 
REMARK    5  A    between atoms: N_18  and  C_19 
ROOT
HETATM    1  N   UNL     1      42.156  -9.093   6.454  1.00  0.00    -0.067 N 
HETATM    2  H   UNL     1      43.146  -9.015   6.179  1.00  0.00     0.280 HD
HETATM    3  C   UNL     1      41.654  -7.681   6.492  1.00  0.00     0.270 C 
ENDROOT
BRANCH   1   4
HETATM    4  C   UNL     1      42.250  -9.697   7.863  1.00  0.00     0.277 C 
BRANCH   4   5
HETATM    5  C   UNL     1      43.642 -10.081   8.224  1.00  0.00     0.016 A 
HETATM    6  C   UNL     1      44.235 -10.067   9.527  1.00  0.00     0.096 A 
HETATM    7  N   UNL     1      45.490 -10.523   9.486  1.00  0.00    -0.174 NA
HETATM    8  N   UNL     1      45.709 -10.848   8.212  1.00  0.00    -0.288 N 
HETATM    9  H   UNL     1      46.612 -11.251   7.968  1.00  0.00     0.188 HD
HETATM   10  C   UNL     1      44.636 -10.590   7.406  1.00  0.00     0.120 A 
BRANCH   6  11
HETATM   11  C   UNL     1      43.645  -9.664  10.798  1.00  0.00    -0.005 A 
HETATM   12  C   UNL     1      43.604  -8.318  11.179  1.00  0.00     0.014 A 
HETATM   13  C   UNL     1      43.049  -7.953  12.410  1.00  0.00     0.007 A 
HETATM   14  C   UNL     1      42.547  -8.929  13.280  1.00  0.00    -0.062 A 
HETATM   15  C   UNL     1      41.955  -8.545  14.605  1.00  0.00     0.048 C 
HETATM   16  C   UNL     1      42.584 -10.273  12.892  1.00  0.00     0.007 A 
HETATM   17  C   UNL     1      43.137 -10.639  11.663  1.00  0.00     0.014 A 
ENDBRANCH   6  11
ENDBRANCH   4   5
ENDBRANCH   1   4
BRANCH   1  18
HETATM   18  C   UNL     1      41.500 -10.035   5.438  1.00  0.00     0.190 C 
HETATM   19  C   UNL     1      42.390 -10.339   4.224  1.00  0.00     0.048 C 
HETATM   20  C   UNL     1      43.141 -11.665   4.296  1.00  0.00     0.099 C 
HETATM   21  N   UNL     1      42.205 -12.713   4.710  1.00  0.00    -0.268 NA
HETATM   22  C   UNL     1      41.703 -12.531   6.076  1.00  0.00     0.099 C 
HETATM   23  C   UNL     1      40.871 -11.253   6.128  1.00  0.00     0.048 C 
BRANCH  21  24
HETATM   24  C   UNL     1      42.620 -14.021   4.412  1.00  0.00     0.109 A 
HETATM   25  N   UNL     1      42.688 -14.428   3.133  1.00  0.00    -0.224 NA
HETATM   26  C   UNL     1      43.170 -15.672   2.884  1.00  0.00     0.102 A 
HETATM   27  C   UNL     1      43.274 -16.132   1.464  1.00  0.00     0.091 C 
HETATM   28  N   UNL     1      43.585 -16.507   3.847  1.00  0.00    -0.348 N 
HETATM   29  H   UNL     1      43.951 -17.422   3.590  1.00  0.00     0.167 HD
HETATM   30  C   UNL     1      43.530 -16.128   5.133  1.00  0.00     0.009 A 
HETATM   31  C   UNL     1      44.024 -17.064   6.189  1.00  0.00     0.068 C 
HETATM   32  C   UNL     1      43.038 -14.858   5.441  1.00  0.00     0.069 A 
ENDBRANCH  21  24
ENDBRANCH   1  18
TORSDOF 5
ENDMDL
MODEL 8
REMARK VINA RESULT:      -8.5      2.101      8.427
REMARK  5 active torsions:
REMARK  status: ('A' for Active; 'I' for Inactive)
REMARK    1  A    between atoms: C_5  and  C_6 
REMARK    2  A    between atoms: C_11  and  C_12 
REMARK    3  A    between atoms: C_12  and  N_13 
REMARK    4  A    between atoms: N_13  and  C_15 
REMARK    5  A    between atoms: N_18  and  C_19 
ROOT
HETATM    1  N   UNL     1      40.387 -11.202   1.927  1.00  0.00    -0.067 N 
HETATM    2  H   UNL     1      39.578 -10.748   1.479  1.00  0.00     0.280 HD
HETATM    3  C   UNL     1      40.452 -10.607   3.301  1.00  0.00     0.270 C 
ENDROOT
BRANCH   1   4
HETATM    4  C   UNL     1      41.558 -10.733   1.051  1.00  0.00     0.277 C 
BRANCH   4   5
HETATM    5  C   UNL     1      41.133  -9.756   0.011  1.00  0.00     0.016 A 
HETATM    6  C   UNL     1      40.404 -10.030  -1.190  1.00  0.00     0.096 A 
HETATM    7  N   UNL     1      40.154  -8.905  -1.865  1.00  0.00    -0.174 NA
HETATM    8  N   UNL     1      40.676  -7.924  -1.128  1.00  0.00    -0.288 N 
HETATM    9  H   UNL     1      40.567  -6.967  -1.456  1.00  0.00     0.188 HD
HETATM   10  C   UNL     1      41.291  -8.381   0.004  1.00  0.00     0.120 A 
BRANCH   6  11
HETATM   11  C   UNL     1      39.918 -11.309  -1.695  1.00  0.00    -0.005 A 
HETATM   12  C   UNL     1      40.735 -12.129  -2.481  1.00  0.00     0.014 A 
HETATM   13  C   UNL     1      40.245 -13.344  -2.971  1.00  0.00     0.007 A 
HETATM   14  C   UNL     1      38.931 -13.743  -2.696  1.00  0.00    -0.062 A 
HETATM   15  C   UNL     1      38.397 -15.044  -3.223  1.00  0.00     0.048 C 
HETATM   16  C   UNL     1      38.120 -12.923  -1.903  1.00  0.00     0.007 A 
HETATM   17  C   UNL     1      38.608 -11.710  -1.413  1.00  0.00     0.014 A 
ENDBRANCH   6  11
ENDBRANCH   4   5
ENDBRANCH   1   4
BRANCH   1  18
HETATM   18  C   UNL     1      40.135 -12.712   1.836  1.00  0.00     0.190 C 
HETATM   19  C   UNL     1      41.138 -13.446   0.936  1.00  0.00     0.048 C 
HETATM   20  C   UNL     1      42.280 -14.133   1.677  1.00  0.00     0.099 C 
HETATM   21  N   UNL     1      41.723 -14.890   2.801  1.00  0.00    -0.268 NA
HETATM   22  C   UNL     1      41.118 -14.035   3.827  1.00  0.00     0.099 C 
HETATM   23  C   UNL     1      39.908 -13.326   3.225  1.00  0.00     0.048 C 
BRANCH  21  24
HETATM   24  C   UNL     1      42.563 -15.897   3.303  1.00  0.00     0.109 A 
HETATM   25  N   UNL     1      43.183 -15.728   4.484  1.00  0.00    -0.224 NA
HETATM   26  C   UNL     1      43.922 -16.757   4.970  1.00  0.00     0.102 A 
HETATM   27  C   UNL     1      44.597 -16.593   6.296  1.00  0.00     0.091 C 
HETATM   28  N   UNL     1      44.058 -17.929   4.336  1.00  0.00    -0.348 N 
HETATM   29  H   UNL     1      44.615 -18.666   4.765  1.00  0.00     0.167 HD
HETATM   30  C   UNL     1      43.452 -18.128   3.155  1.00  0.00     0.009 A 
HETATM   31  C   UNL     1      43.595 -19.453   2.478  1.00  0.00     0.068 C 
HETATM   32  C   UNL     1      42.683 -17.097   2.611  1.00  0.00     0.069 A 
ENDBRANCH  21  24
ENDBRANCH   1  18
TORSDOF 5
ENDMDL
MODEL 9
REMARK VINA RESULT:      -8.5      2.263      3.213
REMARK  5 active torsions:
REMARK  status: ('A' for Active; 'I' for Inactive)
REMARK    1  A    between atoms: C_5  and  C_6 
REMARK    2  A    between atoms: C_11  and  C_12 
REMARK    3  A    between atoms: C_12  and  N_13 
REMARK    4  A    between atoms: N_13  and  C_15 
REMARK    5  A    between atoms: N_18  and  C_19 
ROOT
HETATM    1  N   UNL     1      40.926 -12.063   3.843  1.00  0.00    -0.067 N 
HETATM    2  H   UNL     1      41.131 -11.433   4.632  1.00  0.00     0.280 HD
HETATM    3  C   UNL     1      39.765 -12.893   4.304  1.00  0.00     0.270 C 
ENDROOT
BRANCH   1   4
HETATM    4  C   UNL     1      42.211 -12.897   3.740  1.00  0.00     0.277 C 
BRANCH   4   5
HETATM    5  C   UNL     1      42.691 -13.368   5.068  1.00  0.00     0.016 A 
HETATM    6  C   UNL     1      43.142 -14.682   5.410  1.00  0.00     0.096 A 
HETATM    7  N   UNL     1      43.546 -14.733   6.683  1.00  0.00    -0.174 NA
HETATM    8  N   UNL     1      43.389 -13.496   7.155  1.00  0.00    -0.288 N 
HETATM    9  H   UNL     1      43.671 -13.309   8.115  1.00  0.00     0.188 HD
HETATM   10  C   UNL     1      42.865 -12.636   6.230  1.00  0.00     0.120 A 
BRANCH   6  11
HETATM   11  C   UNL     1      43.228 -15.870   4.569  1.00  0.00    -0.005 A 
HETATM   12  C   UNL     1      42.757 -15.856   3.252  1.00  0.00     0.014 A 
HETATM   13  C   UNL     1      42.832 -17.011   2.467  1.00  0.00     0.007 A 
HETATM   14  C   UNL     1      43.361 -18.195   2.995  1.00  0.00    -0.062 A 
HETATM   15  C   UNL     1      43.440 -19.440   2.159  1.00  0.00     0.048 C 
HETATM   16  C   UNL     1      43.838 -18.203   4.310  1.00  0.00     0.007 A 
HETATM   17  C   UNL     1      43.764 -17.051   5.095  1.00  0.00     0.014 A 
ENDBRANCH   6  11
ENDBRANCH   4   5
ENDBRANCH   1   4
BRANCH   1  18
HETATM   18  C   UNL     1      40.693 -11.162   2.624  1.00  0.00     0.190 C 
HETATM   19  C   UNL     1      41.437 -11.630   1.366  1.00  0.00     0.048 C 
HETATM   20  C   UNL     1      40.589 -12.427   0.379  1.00  0.00     0.099 C 
HETATM   21  N   UNL     1      39.322 -11.722   0.174  1.00  0.00    -0.268 NA
HETATM   22  C   UNL     1      38.486 -11.674   1.378  1.00  0.00     0.099 C 
HETATM   23  C   UNL     1      39.202 -10.843   2.440  1.00  0.00     0.048 C 
BRANCH  21  24
HETATM   24  C   UNL     1      38.634 -12.081  -0.997  1.00  0.00     0.109 A 
HETATM   25  N   UNL     1      38.848 -13.283  -1.559  1.00  0.00    -0.224 NA
HETATM   26  C   UNL     1      38.106 -13.621  -2.644  1.00  0.00     0.102 A 
HETATM   27  C   UNL     1      38.315 -14.966  -3.266  1.00  0.00     0.091 C 
HETATM   28  N   UNL     1      37.171 -12.821  -3.174  1.00  0.00    -0.348 N 
HETATM   29  H   UNL     1      36.638 -13.144  -3.980  1.00  0.00     0.167 HD
HETATM   30  C   UNL     1      36.934 -11.616  -2.635  1.00  0.00     0.009 A 
HETATM   31  C   UNL     1      35.868 -10.751  -3.225  1.00  0.00     0.068 C 
HETATM   32  C   UNL     1      37.676 -11.219  -1.520  1.00  0.00     0.069 A 
ENDBRANCH  21  24
ENDBRANCH   1  18
TORSDOF 5
ENDMDL
MODEL 10
REMARK VINA RESULT:      -8.4      1.787      4.674
REMARK  5 active torsions:
REMARK  status: ('A' for Active; 'I' for Inactive)
REMARK    1  A    between atoms: C_5  and  C_6 
REMARK    2  A    between atoms: C_11  and  C_12 
REMARK    3  A    between atoms: C_12  and  N_13 
REMARK    4  A    between atoms: N_13  and  C_15 
REMARK    5  A    between atoms: N_18  and  C_19 
ROOT
HETATM    1  N   UNL     1      42.304 -16.152   3.175  1.00  0.00    -0.067 N 
HETATM    2  H   UNL     1      41.912 -16.909   3.753  1.00  0.00     0.280 HD
HETATM    3  C   UNL     1      42.854 -16.838   1.961  1.00  0.00     0.270 C 
ENDROOT
BRANCH   1   4
HETATM    4  C   UNL     1      43.424 -15.598   4.067  1.00  0.00     0.277 C 
BRANCH   4   5
HETATM    5  C   UNL     1      43.201 -15.895   5.509  1.00  0.00     0.016 A 
HETATM    6  C   UNL     1      42.447 -15.121   6.447  1.00  0.00     0.096 A 
HETATM    7  N   UNL     1      42.419 -15.713   7.644  1.00  0.00    -0.174 NA
HETATM    8  N   UNL     1      43.108 -16.846   7.496  1.00  0.00    -0.288 N 
HETATM    9  H   UNL     1      43.183 -17.470   8.296  1.00  0.00     0.188 HD
HETATM   10  C   UNL     1      43.613 -16.999   6.235  1.00  0.00     0.120 A 
BRANCH   6  11
HETATM   11  C   UNL     1      41.737 -13.864   6.237  1.00  0.00    -0.005 A 
HETATM   12  C   UNL     1      40.341 -13.832   6.147  1.00  0.00     0.014 A 
HETATM   13  C   UNL     1      39.680 -12.618   5.929  1.00  0.00     0.007 A 
HETATM   14  C   UNL     1      40.406 -11.430   5.782  1.00  0.00    -0.062 A 
HETATM   15  C   UNL     1      39.703 -10.125   5.542  1.00  0.00     0.048 C 
HETATM   16  C   UNL     1      41.801 -11.466   5.881  1.00  0.00     0.007 A 
HETATM   17  C   UNL     1      42.463 -12.676   6.099  1.00  0.00     0.014 A 
ENDBRANCH   6  11
ENDBRANCH   4   5
ENDBRANCH   1   4
BRANCH   1  18
HETATM   18  C   UNL     1      41.164 -15.151   2.949  1.00  0.00     0.190 C 
HETATM   19  C   UNL     1      41.639 -13.794   2.411  1.00  0.00     0.048 C 
HETATM   20  C   UNL     1      41.495 -13.617   0.903  1.00  0.00     0.099 C 
HETATM   21  N   UNL     1      40.154 -14.054   0.505  1.00  0.00    -0.268 NA
HETATM   22  C   UNL     1      39.934 -15.490   0.701  1.00  0.00     0.099 C 
HETATM   23  C   UNL     1      39.993 -15.797   2.195  1.00  0.00     0.048 C 
BRANCH  21  24
HETATM   24  C   UNL     1      39.723 -13.563  -0.738  1.00  0.00     0.109 A 
HETATM   25  N   UNL     1      39.183 -14.401  -1.640  1.00  0.00    -0.224 NA
HETATM   26  C   UNL     1      38.707 -13.873  -2.796  1.00  0.00     0.102 A 
HETATM   27  C   UNL     1      38.081 -14.789  -3.800  1.00  0.00     0.091 C 
HETATM   28  N   UNL     1      38.744 -12.563  -3.077  1.00  0.00    -0.348 N 
HETATM   29  H   UNL     1      38.353 -12.232  -3.958  1.00  0.00     0.167 HD
HETATM   30  C   UNL     1      39.276 -11.702  -2.196  1.00  0.00     0.009 A 
HETATM   31  C   UNL     1      39.281 -10.243  -2.518  1.00  0.00     0.068 C 
HETATM   32  C   UNL     1      39.783 -12.197  -0.994  1.00  0.00     0.069 A 
ENDBRANCH  21  24
ENDBRANCH   1  18
TORSDOF 5
ENDMDL
