MODEL 1
REMARK VINA RESULT:      -8.1      0.000      0.000
REMARK  6 active torsions:
REMARK  status: ('A' for Active; 'I' for Inactive)
REMARK    1  A    between atoms: C_3  and  O_4 
REMARK    2  A    between atoms: O_4  and  C_5 
REMARK    3  A    between atoms: C_5  and  C_6 
REMARK    4  A    between atoms: C_15  and  C_16 
REMARK       I    between atoms: C_16  and  N_17 
REMARK    5  A    between atoms: N_17  and  N_18 
REMARK       I    between atoms: N_18  and  C_19 
REMARK    6  A    between atoms: C_19  and  C_20 
ROOT
HETATM    1  C   UNL     1      42.799 -13.633   1.962  1.00  0.00     0.051 C 
HETATM    2  C   UNL     1      42.330 -13.769   3.384  1.00  0.00    -0.027 A 
HETATM    3  C   UNL     1      42.019 -15.021   3.943  1.00  0.00     0.081 A 
HETATM    4  C   UNL     1      41.518 -15.120   5.251  1.00  0.00    -0.027 A 
HETATM    5  C   UNL     1      41.066 -16.422   5.849  1.00  0.00     0.051 C 
HETATM    6  C   UNL     1      41.460 -13.959   6.040  1.00  0.00     0.026 A 
HETATM    7  C   UNL     1      41.844 -12.713   5.525  1.00  0.00     0.034 A 
HETATM    8  C   UNL     1      42.253 -12.621   4.191  1.00  0.00     0.026 A 
ENDROOT
BRANCH   7   9
HETATM    9  C   UNL     1      41.771 -11.531   6.430  1.00  0.00     0.270 C 
HETATM   10  N   UNL     1      42.823 -11.348   7.306  1.00  0.00    -0.263 N 
HETATM   11  H   UNL     1      43.556 -12.032   7.476  1.00  0.00     0.190 HD
HETATM   12  O   UNL     1      40.799 -10.779   6.409  1.00  0.00    -0.266 OA
BRANCH  10  13
HETATM   13  N   UNL     1      42.717 -10.319   8.248  1.00  0.00    -0.262 N 
HETATM   14  C   UNL     1      43.522 -10.345   9.365  1.00  0.00     0.286 C 
HETATM   15  O   UNL     1      44.342 -11.246   9.549  1.00  0.00    -0.264 OA
HETATM   16  H   UNL     1      42.024  -9.598   8.061  1.00  0.00     0.190 HD
BRANCH  14  17
HETATM   17  C   UNL     1      43.336  -9.254  10.296  1.00  0.00     0.102 A 
HETATM   18  N   UNL     1      42.849  -8.032   9.879  1.00  0.00    -0.361 N 
HETATM   19  H   UNL     1      42.595  -7.825   8.920  1.00  0.00     0.165 HD
HETATM   20  C   UNL     1      42.764  -7.168  10.938  1.00  0.00     0.088 A 
HETATM   21  C   UNL     1      43.206  -7.831  12.058  1.00  0.00     0.019 A 
HETATM   22  C   UNL     1      43.565  -9.142  11.658  1.00  0.00     0.036 A 
ENDBRANCH  14  17
ENDBRANCH  10  13
ENDBRANCH   7   9
BRANCH   3  23
HETATM   23  O   UNL     1      42.160 -16.126   3.139  1.00  0.00    -0.346 OA
BRANCH  23  24
HETATM   24  C   UNL     1      43.518 -16.591   3.096  1.00  0.00     0.216 C 
BRANCH  24  25
HETATM   25  C   UNL     1      43.603 -18.095   3.137  1.00  0.00    -0.017 A 
HETATM   26  C   UNL     1      44.072 -18.716   4.293  1.00  0.00     0.125 A 
HETATM   27  N   UNL     1      44.175 -20.054   4.455  1.00  0.00    -0.272 NA
HETATM   28  C   UNL     1      43.786 -20.820   3.415  1.00  0.00     0.116 A 
HETATM   29  C   UNL     1      43.294 -20.308   2.226  1.00  0.00     0.020 A 
HETATM   30  C   UNL     1      43.196 -18.926   2.091  1.00  0.00     0.012 A 
ENDBRANCH  24  25
ENDBRANCH  23  24
ENDBRANCH   3  23
TORSDOF 6
ENDMDL
MODEL 2
REMARK VINA RESULT:      -8.0      1.037      2.202
REMARK  6 active torsions:
REMARK  status: ('A' for Active; 'I' for Inactive)
REMARK    1  A    between atoms: C_3  and  O_4 
REMARK    2  A    between atoms: O_4  and  C_5 
REMARK    3  A    between atoms: C_5  and  C_6 
REMARK    4  A    between atoms: C_15  and  C_16 
REMARK       I    between atoms: C_16  and  N_17 
REMARK    5  A    between atoms: N_17  and  N_18 
REMARK       I    between atoms: N_18  and  C_19 
REMARK    6  A    between atoms: C_19  and  C_20 
ROOT
HETATM    1  C   UNL     1      41.907 -16.511   6.340  1.00  0.00     0.051 C 
HETATM    2  C   UNL     1      42.247 -15.313   5.498  1.00  0.00    -0.027 A 
HETATM    3  C   UNL     1      42.463 -15.421   4.113  1.00  0.00     0.081 A 
HETATM    4  C   UNL     1      42.846 -14.302   3.355  1.00  0.00    -0.027 A 
HETATM    5  C   UNL     1      43.198 -14.392   1.897  1.00  0.00     0.051 C 
HETATM    6  C   UNL     1      42.877 -13.044   3.979  1.00  0.00     0.026 A 
HETATM    7  C   UNL     1      42.584 -12.905   5.343  1.00  0.00     0.034 A 
HETATM    8  C   UNL     1      42.295 -14.044   6.101  1.00  0.00     0.026 A 
ENDROOT
BRANCH   7   9
HETATM    9  C   UNL     1      42.621 -11.535   5.929  1.00  0.00     0.270 C 
HETATM   10  N   UNL     1      42.762 -11.444   7.300  1.00  0.00    -0.263 N 
HETATM   11  H   UNL     1      42.695 -12.233   7.939  1.00  0.00     0.190 HD
HETATM   12  O   UNL     1      42.496 -10.541   5.217  1.00  0.00    -0.266 OA
BRANCH  10  13
HETATM   13  N   UNL     1      42.673 -10.176   7.883  1.00  0.00    -0.262 N 
HETATM   14  C   UNL     1      43.304  -9.943   9.085  1.00  0.00     0.286 C 
HETATM   15  O   UNL     1      43.956 -10.821   9.653  1.00  0.00    -0.264 OA
HETATM   16  H   UNL     1      42.121  -9.482   7.385  1.00  0.00     0.190 HD
BRANCH  14  17
HETATM   17  C   UNL     1      43.147  -8.612   9.626  1.00  0.00     0.102 A 
HETATM   18  N   UNL     1      42.733  -8.411  10.928  1.00  0.00    -0.361 N 
HETATM   19  H   UNL     1      42.519  -9.164  11.571  1.00  0.00     0.165 HD
HETATM   20  C   UNL     1      42.661  -7.073  11.204  1.00  0.00     0.088 A 
HETATM   21  C   UNL     1      43.028  -6.389  10.069  1.00  0.00     0.019 A 
HETATM   22  C   UNL     1      43.334  -7.353   9.077  1.00  0.00     0.036 A 
ENDBRANCH  14  17
ENDBRANCH  10  13
ENDBRANCH   7   9
BRANCH   3  23
HETATM   23  O   UNL     1      42.352 -16.669   3.550  1.00  0.00    -0.346 OA
BRANCH  23  24
HETATM   24  C   UNL     1      43.628 -17.205   3.168  1.00  0.00     0.216 C 
BRANCH  24  25
HETATM   25  C   UNL     1      43.771 -18.655   3.550  1.00  0.00    -0.017 A 
HETATM   26  C   UNL     1      43.642 -19.632   2.565  1.00  0.00     0.125 A 
HETATM   27  N   UNL     1      43.768 -20.960   2.782  1.00  0.00    -0.272 NA
HETATM   28  C   UNL     1      44.042 -21.342   4.046  1.00  0.00     0.116 A 
HETATM   29  C   UNL     1      44.203 -20.456   5.098  1.00  0.00     0.020 A 
HETATM   30  C   UNL     1      44.072 -19.093   4.842  1.00  0.00     0.012 A 
ENDBRANCH  24  25
ENDBRANCH  23  24
ENDBRANCH   3  23
TORSDOF 6
ENDMDL
MODEL 3
REMARK VINA RESULT:      -8.0      2.310      9.914
REMARK  6 active torsions:
REMARK  status: ('A' for Active; 'I' for Inactive)
REMARK    1  A    between atoms: C_3  and  O_4 
REMARK    2  A    between atoms: O_4  and  C_5 
REMARK    3  A    between atoms: C_5  and  C_6 
REMARK    4  A    between atoms: C_15  and  C_16 
REMARK       I    between atoms: C_16  and  N_17 
REMARK    5  A    between atoms: N_17  and  N_18 
REMARK       I    between atoms: N_18  and  C_19 
REMARK    6  A    between atoms: C_19  and  C_20 
ROOT
HETATM    1  C   UNL     1      41.596  -9.297   8.217  1.00  0.00     0.051 C 
HETATM    2  C   UNL     1      42.735 -10.090   7.638  1.00  0.00    -0.027 A 
HETATM    3  C   UNL     1      44.061  -9.895   8.064  1.00  0.00     0.081 A 
HETATM    4  C   UNL     1      45.118 -10.599   7.463  1.00  0.00    -0.027 A 
HETATM    5  C   UNL     1      46.559 -10.342   7.805  1.00  0.00     0.051 C 
HETATM    6  C   UNL     1      44.816 -11.598   6.524  1.00  0.00     0.026 A 
HETATM    7  C   UNL     1      43.492 -11.862   6.148  1.00  0.00     0.034 A 
HETATM    8  C   UNL     1      42.460 -11.089   6.689  1.00  0.00     0.026 A 
ENDROOT
BRANCH   7   9
HETATM    9  C   UNL     1      43.250 -12.951   5.159  1.00  0.00     0.270 C 
HETATM   10  N   UNL     1      43.188 -14.240   5.651  1.00  0.00    -0.263 N 
HETATM   11  H   UNL     1      43.438 -14.507   6.599  1.00  0.00     0.190 HD
HETATM   12  O   UNL     1      43.145 -12.702   3.960  1.00  0.00    -0.266 OA
BRANCH  10  13
HETATM   13  N   UNL     1      43.087 -15.287   4.728  1.00  0.00    -0.262 N 
HETATM   14  C   UNL     1      43.720 -16.481   4.994  1.00  0.00     0.286 C 
HETATM   15  O   UNL     1      44.362 -16.654   6.032  1.00  0.00    -0.264 OA
HETATM   16  H   UNL     1      42.553 -15.101   3.883  1.00  0.00     0.190 HD
BRANCH  14  17
HETATM   17  C   UNL     1      43.580 -17.503   3.982  1.00  0.00     0.102 A 
HETATM   18  N   UNL     1      44.223 -18.719   4.096  1.00  0.00    -0.361 N 
HETATM   19  H   UNL     1      44.817 -18.968   4.878  1.00  0.00     0.165 HD
HETATM   20  C   UNL     1      43.936 -19.513   3.019  1.00  0.00     0.088 A 
HETATM   21  C   UNL     1      43.100 -18.806   2.187  1.00  0.00     0.019 A 
HETATM   22  C   UNL     1      42.874 -17.544   2.789  1.00  0.00     0.036 A 
ENDBRANCH  14  17
ENDBRANCH  10  13
ENDBRANCH   7   9
BRANCH   3  23
HETATM   23  O   UNL     1      44.282  -8.949   9.034  1.00  0.00    -0.346 OA
BRANCH  23  24
HETATM   24  C   UNL     1      44.677  -9.539  10.282  1.00  0.00     0.216 C 
BRANCH  24  25
HETATM   25  C   UNL     1      43.664  -9.291  11.370  1.00  0.00    -0.017 A 
HETATM   26  C   UNL     1      42.640 -10.216  11.566  1.00  0.00     0.125 A 
HETATM   27  N   UNL     1      41.686 -10.113  12.519  1.00  0.00    -0.272 NA
HETATM   28  C   UNL     1      41.754  -9.034  13.327  1.00  0.00     0.116 A 
HETATM   29  C   UNL     1      42.735  -8.062  13.228  1.00  0.00     0.020 A 
HETATM   30  C   UNL     1      43.706  -8.198  12.238  1.00  0.00     0.012 A 
ENDBRANCH  24  25
ENDBRANCH  23  24
ENDBRANCH   3  23
TORSDOF 6
ENDMDL
MODEL 4
REMARK VINA RESULT:      -7.7      1.683      1.987
REMARK  6 active torsions:
REMARK  status: ('A' for Active; 'I' for Inactive)
REMARK    1  A    between atoms: C_3  and  O_4 
REMARK    2  A    between atoms: O_4  and  C_5 
REMARK    3  A    between atoms: C_5  and  C_6 
REMARK    4  A    between atoms: C_15  and  C_16 
REMARK       I    between atoms: C_16  and  N_17 
REMARK    5  A    between atoms: N_17  and  N_18 
REMARK       I    between atoms: N_18  and  C_19 
REMARK    6  A    between atoms: C_19  and  C_20 
ROOT
HETATM    1  C   UNL     1      40.742 -14.363   3.791  1.00  0.00     0.051 C 
HETATM    2  C   UNL     1      41.808 -14.175   4.835  1.00  0.00    -0.027 A 
HETATM    3  C   UNL     1      42.613 -15.243   5.270  1.00  0.00     0.081 A 
HETATM    4  C   UNL     1      43.557 -15.061   6.294  1.00  0.00    -0.027 A 
HETATM    5  C   UNL     1      44.357 -16.196   6.869  1.00  0.00     0.051 C 
HETATM    6  C   UNL     1      43.779 -13.764   6.783  1.00  0.00     0.026 A 
HETATM    7  C   UNL     1      43.043 -12.672   6.302  1.00  0.00     0.034 A 
HETATM    8  C   UNL     1      42.043 -12.888   5.348  1.00  0.00     0.026 A 
ENDROOT
BRANCH   7   9
HETATM    9  C   UNL     1      43.350 -11.323   6.857  1.00  0.00     0.270 C 
HETATM   10  N   UNL     1      42.382 -10.738   7.649  1.00  0.00    -0.263 N 
HETATM   11  H   UNL     1      41.434 -11.091   7.757  1.00  0.00     0.190 HD
HETATM   12  O   UNL     1      44.406 -10.756   6.587  1.00  0.00    -0.266 OA
BRANCH  10  13
HETATM   13  N   UNL     1      42.596  -9.423   8.077  1.00  0.00    -0.262 N 
HETATM   14  C   UNL     1      42.079  -9.017   9.288  1.00  0.00     0.286 C 
HETATM   15  O   UNL     1      41.444  -9.788  10.009  1.00  0.00    -0.264 OA
HETATM   16  H   UNL     1      43.120  -8.818   7.449  1.00  0.00     0.190 HD
BRANCH  14  17
HETATM   17  C   UNL     1      42.331  -7.639   9.645  1.00  0.00     0.102 A 
HETATM   18  N   UNL     1      41.512  -6.968  10.531  1.00  0.00    -0.361 N 
HETATM   19  H   UNL     1      40.704  -7.386  10.977  1.00  0.00     0.165 HD
HETATM   20  C   UNL     1      41.954  -5.684  10.708  1.00  0.00     0.088 A 
HETATM   21  C   UNL     1      43.071  -5.512   9.925  1.00  0.00     0.019 A 
HETATM   22  C   UNL     1      43.311  -6.739   9.258  1.00  0.00     0.036 A 
ENDBRANCH  14  17
ENDBRANCH  10  13
ENDBRANCH   7   9
BRANCH   3  23
HETATM   23  O   UNL     1      42.390 -16.474   4.704  1.00  0.00    -0.346 OA
BRANCH  23  24
HETATM   24  C   UNL     1      43.285 -16.735   3.611  1.00  0.00     0.216 C 
BRANCH  24  25
HETATM   25  C   UNL     1      43.503 -18.211   3.398  1.00  0.00    -0.017 A 
HETATM   26  C   UNL     1      43.971 -18.987   4.456  1.00  0.00     0.125 A 
HETATM   27  N   UNL     1      44.187 -20.320   4.391  1.00  0.00    -0.272 NA
HETATM   28  C   UNL     1      43.918 -20.919   3.212  1.00  0.00     0.116 A 
HETATM   29  C   UNL     1      43.437 -20.245   2.101  1.00  0.00     0.020 A 
HETATM   30  C   UNL     1      43.222 -18.873   2.200  1.00  0.00     0.012 A 
ENDBRANCH  24  25
ENDBRANCH  23  24
ENDBRANCH   3  23
TORSDOF 6
ENDMDL
MODEL 5
REMARK VINA RESULT:      -7.7      2.341      3.190
REMARK  6 active torsions:
REMARK  status: ('A' for Active; 'I' for Inactive)
REMARK    1  A    between atoms: C_3  and  O_4 
REMARK    2  A    between atoms: O_4  and  C_5 
REMARK    3  A    between atoms: C_5  and  C_6 
REMARK    4  A    between atoms: C_15  and  C_16 
REMARK       I    between atoms: C_16  and  N_17 
REMARK    5  A    between atoms: N_17  and  N_18 
REMARK       I    between atoms: N_18  and  C_19 
REMARK    6  A    between atoms: C_19  and  C_20 
ROOT
HETATM    1  C   UNL     1      41.492 -16.658   6.057  1.00  0.00     0.051 C 
HETATM    2  C   UNL     1      41.866 -15.387   5.347  1.00  0.00    -0.027 A 
HETATM    3  C   UNL     1      42.277 -15.386   4.002  1.00  0.00     0.081 A 
HETATM    4  C   UNL     1      42.686 -14.197   3.376  1.00  0.00    -0.027 A 
HETATM    5  C   UNL     1      43.240 -14.165   1.980  1.00  0.00     0.051 C 
HETATM    6  C   UNL     1      42.550 -12.986   4.075  1.00  0.00     0.026 A 
HETATM    7  C   UNL     1      42.065 -12.959   5.389  1.00  0.00     0.034 A 
HETATM    8  C   UNL     1      41.748 -14.163   6.027  1.00  0.00     0.026 A 
ENDROOT
BRANCH   7   9
HETATM    9  C   UNL     1      41.932 -11.633   6.058  1.00  0.00     0.270 C 
HETATM   10  N   UNL     1      40.827 -11.448   6.866  1.00  0.00    -0.263 N 
HETATM   11  H   UNL     1      40.037 -12.087   6.917  1.00  0.00     0.190 HD
HETATM   12  O   UNL     1      42.758 -10.744   5.865  1.00  0.00    -0.266 OA
BRANCH  10  13
HETATM   13  N   UNL     1      40.617 -10.173   7.402  1.00  0.00    -0.262 N 
HETATM   14  C   UNL     1      39.452  -9.918   8.092  1.00  0.00     0.286 C 
HETATM   15  O   UNL     1      38.597 -10.789   8.260  1.00  0.00    -0.264 OA
HETATM   16  H   UNL     1      41.344  -9.482   7.237  1.00  0.00     0.190 HD
BRANCH  14  17
HETATM   17  C   UNL     1      39.306  -8.572   8.598  1.00  0.00     0.102 A 
HETATM   18  N   UNL     1      39.267  -7.486   7.747  1.00  0.00    -0.361 N 
HETATM   19  H   UNL     1      39.334  -7.561   6.738  1.00  0.00     0.165 HD
HETATM   20  C   UNL     1      39.124  -6.327   8.460  1.00  0.00     0.088 A 
HETATM   21  C   UNL     1      39.075  -6.657   9.794  1.00  0.00     0.019 A 
HETATM   22  C   UNL     1      39.189  -8.066   9.884  1.00  0.00     0.036 A 
ENDBRANCH  14  17
ENDBRANCH  10  13
ENDBRANCH   7   9
BRANCH   3  23
HETATM   23  O   UNL     1      42.325 -16.596   3.354  1.00  0.00    -0.346 OA
BRANCH  23  24
HETATM   24  C   UNL     1      43.669 -17.081   3.215  1.00  0.00     0.216 C 
BRANCH  24  25
HETATM   25  C   UNL     1      43.781 -18.544   3.555  1.00  0.00    -0.017 A 
HETATM   26  C   UNL     1      43.618 -19.489   2.544  1.00  0.00     0.125 A 
HETATM   27  N   UNL     1      43.713 -20.826   2.723  1.00  0.00    -0.272 NA
HETATM   28  C   UNL     1      43.991 -21.250   3.973  1.00  0.00     0.116 A 
HETATM   29  C   UNL     1      44.185 -20.397   5.047  1.00  0.00     0.020 A 
HETATM   30  C   UNL     1      44.084 -19.025   4.831  1.00  0.00     0.012 A 
ENDBRANCH  24  25
ENDBRANCH  23  24
ENDBRANCH   3  23
TORSDOF 6
ENDMDL
MODEL 6
REMARK VINA RESULT:      -7.5      2.598     10.269
REMARK  6 active torsions:
REMARK  status: ('A' for Active; 'I' for Inactive)
REMARK    1  A    between atoms: C_3  and  O_4 
REMARK    2  A    between atoms: O_4  and  C_5 
REMARK    3  A    between atoms: C_5  and  C_6 
REMARK    4  A    between atoms: C_15  and  C_16 
REMARK       I    between atoms: C_16  and  N_17 
REMARK    5  A    between atoms: N_17  and  N_18 
REMARK       I    between atoms: N_18  and  C_19 
REMARK    6  A    between atoms: C_19  and  C_20 
ROOT
HETATM    1  C   UNL     1      41.026  -8.724   9.114  1.00  0.00     0.051 C 
HETATM    2  C   UNL     1      42.302  -9.259   8.527  1.00  0.00    -0.027 A 
HETATM    3  C   UNL     1      43.550  -9.022   9.131  1.00  0.00     0.081 A 
HETATM    4  C   UNL     1      44.737  -9.474   8.530  1.00  0.00    -0.027 A 
HETATM    5  C   UNL     1      46.097  -9.146   9.077  1.00  0.00     0.051 C 
HETATM    6  C   UNL     1      44.647 -10.284   7.386  1.00  0.00     0.026 A 
HETATM    7  C   UNL     1      43.406 -10.599   6.817  1.00  0.00     0.034 A 
HETATM    8  C   UNL     1      42.241 -10.064   7.376  1.00  0.00     0.026 A 
ENDROOT
BRANCH   7   9
HETATM    9  C   UNL     1      43.392 -11.480   5.614  1.00  0.00     0.270 C 
HETATM   10  N   UNL     1      42.548 -12.572   5.649  1.00  0.00    -0.263 N 
HETATM   11  H   UNL     1      42.057 -12.895   6.479  1.00  0.00     0.190 HD
HETATM   12  O   UNL     1      44.127 -11.250   4.656  1.00  0.00    -0.266 OA
BRANCH  10  13
HETATM   13  N   UNL     1      42.611 -13.480   4.586  1.00  0.00    -0.262 N 
HETATM   14  C   UNL     1      43.026 -14.771   4.828  1.00  0.00     0.286 C 
HETATM   15  O   UNL     1      43.330 -15.150   5.960  1.00  0.00    -0.264 OA
HETATM   16  H   UNL     1      42.357 -13.126   3.667  1.00  0.00     0.190 HD
BRANCH  14  17
HETATM   17  C   UNL     1      43.079 -15.638   3.673  1.00  0.00     0.102 A 
HETATM   18  N   UNL     1      43.173 -15.125   2.395  1.00  0.00    -0.361 N 
HETATM   19  H   UNL     1      43.212 -14.134   2.189  1.00  0.00     0.165 HD
HETATM   20  C   UNL     1      43.207 -16.139   1.476  1.00  0.00     0.088 A 
HETATM   21  C   UNL     1      43.129 -17.329   2.160  1.00  0.00     0.019 A 
HETATM   22  C   UNL     1      43.049 -17.018   3.540  1.00  0.00     0.036 A 
ENDBRANCH  14  17
ENDBRANCH  10  13
ENDBRANCH   7   9
BRANCH   3  23
HETATM   23  O   UNL     1      43.563  -8.278  10.285  1.00  0.00    -0.346 OA
BRANCH  23  24
HETATM   24  C   UNL     1      43.851  -9.081  11.440  1.00  0.00     0.216 C 
BRANCH  24  25
HETATM   25  C   UNL     1      42.992  -8.704  12.620  1.00  0.00    -0.017 A 
HETATM   26  C   UNL     1      41.880  -9.485  12.926  1.00  0.00     0.125 A 
HETATM   27  N   UNL     1      41.048  -9.258  13.967  1.00  0.00    -0.272 NA
HETATM   28  C   UNL     1      41.337  -8.199  14.752  1.00  0.00     0.116 A 
HETATM   29  C   UNL     1      42.424  -7.365  14.546  1.00  0.00     0.020 A 
HETATM   30  C   UNL     1      43.265  -7.627  13.467  1.00  0.00     0.012 A 
ENDBRANCH  24  25
ENDBRANCH  23  24
ENDBRANCH   3  23
TORSDOF 6
ENDMDL
MODEL 7
REMARK VINA RESULT:      -7.5      2.612      2.637
REMARK  6 active torsions:
REMARK  status: ('A' for Active; 'I' for Inactive)
REMARK    1  A    between atoms: C_3  and  O_4 
REMARK    2  A    between atoms: O_4  and  C_5 
REMARK    3  A    between atoms: C_5  and  C_6 
REMARK    4  A    between atoms: C_15  and  C_16 
REMARK       I    between atoms: C_16  and  N_17 
REMARK    5  A    between atoms: N_17  and  N_18 
REMARK       I    between atoms: N_18  and  C_19 
REMARK    6  A    between atoms: C_19  and  C_20 
ROOT
HETATM    1  C   UNL     1      40.339 -14.670   1.427  1.00  0.00     0.051 C 
HETATM    2  C   UNL     1      40.640 -14.441   2.882  1.00  0.00    -0.027 A 
HETATM    3  C   UNL     1      41.117 -15.473   3.709  1.00  0.00     0.081 A 
HETATM    4  C   UNL     1      41.329 -15.255   5.081  1.00  0.00    -0.027 A 
HETATM    5  C   UNL     1      41.728 -16.355   6.024  1.00  0.00     0.051 C 
HETATM    6  C   UNL     1      41.186 -13.953   5.586  1.00  0.00     0.026 A 
HETATM    7  C   UNL     1      40.790 -12.894   4.758  1.00  0.00     0.034 A 
HETATM    8  C   UNL     1      40.495 -13.149   3.415  1.00  0.00     0.026 A 
ENDROOT
BRANCH   7   9
HETATM    9  C   UNL     1      40.678 -11.536   5.365  1.00  0.00     0.270 C 
HETATM   10  N   UNL     1      40.886 -11.440   6.726  1.00  0.00    -0.263 N 
HETATM   11  H   UNL     1      40.961 -12.236   7.355  1.00  0.00     0.190 HD
HETATM   12  O   UNL     1      40.383 -10.561   4.677  1.00  0.00    -0.266 OA
BRANCH  10  13
HETATM   13  N   UNL     1      40.663 -10.200   7.335  1.00  0.00    -0.262 N 
HETATM   14  C   UNL     1      39.505 -10.004   8.055  1.00  0.00     0.286 C 
HETATM   15  O   UNL     1      38.667 -10.897   8.187  1.00  0.00    -0.264 OA
HETATM   16  H   UNL     1      41.376  -9.489   7.197  1.00  0.00     0.190 HD
BRANCH  14  17
HETATM   17  C   UNL     1      39.345  -8.690   8.636  1.00  0.00     0.102 A 
HETATM   18  N   UNL     1      39.896  -7.572   8.043  1.00  0.00    -0.361 N 
HETATM   19  H   UNL     1      40.432  -7.598   7.184  1.00  0.00     0.165 HD
HETATM   20  C   UNL     1      39.608  -6.453   8.778  1.00  0.00     0.088 A 
HETATM   21  C   UNL     1      38.866  -6.844   9.867  1.00  0.00     0.019 A 
HETATM   22  C   UNL     1      38.698  -8.249   9.780  1.00  0.00     0.036 A 
ENDBRANCH  14  17
ENDBRANCH  10  13
ENDBRANCH   7   9
BRANCH   3  23
HETATM   23  O   UNL     1      41.300 -16.709   3.138  1.00  0.00    -0.346 OA
BRANCH  23  24
HETATM   24  C   UNL     1      42.640 -16.886   2.653  1.00  0.00     0.216 C 
BRANCH  24  25
HETATM   25  C   UNL     1      43.167 -18.268   2.939  1.00  0.00    -0.017 A 
HETATM   26  C   UNL     1      43.778 -18.520   4.165  1.00  0.00     0.125 A 
HETATM   27  N   UNL     1      44.272 -19.721   4.542  1.00  0.00    -0.272 NA
HETATM   28  C   UNL     1      44.149 -20.730   3.655  1.00  0.00     0.116 A 
HETATM   29  C   UNL     1      43.548 -20.593   2.415  1.00  0.00     0.020 A 
HETATM   30  C   UNL     1      43.046 -19.344   2.057  1.00  0.00     0.012 A 
ENDBRANCH  24  25
ENDBRANCH  23  24
ENDBRANCH   3  23
TORSDOF 6
ENDMDL
MODEL 8
REMARK VINA RESULT:      -7.3     16.730     20.609
REMARK  6 active torsions:
REMARK  status: ('A' for Active; 'I' for Inactive)
REMARK    1  A    between atoms: C_3  and  O_4 
REMARK    2  A    between atoms: O_4  and  C_5 
REMARK    3  A    between atoms: C_5  and  C_6 
REMARK    4  A    between atoms: C_15  and  C_16 
REMARK       I    between atoms: C_16  and  N_17 
REMARK    5  A    between atoms: N_17  and  N_18 
REMARK       I    between atoms: N_18  and  C_19 
REMARK    6  A    between atoms: C_19  and  C_20 
ROOT
HETATM    1  C   UNL     1      45.801 -28.561  -3.268  1.00  0.00     0.051 C 
HETATM    2  C   UNL     1      46.652 -28.763  -2.045  1.00  0.00    -0.027 A 
HETATM    3  C   UNL     1      46.137 -28.583  -0.749  1.00  0.00     0.081 A 
HETATM    4  C   UNL     1      46.965 -28.711   0.378  1.00  0.00    -0.027 A 
HETATM    5  C   UNL     1      46.488 -28.418   1.772  1.00  0.00     0.051 C 
HETATM    6  C   UNL     1      48.286 -29.154   0.197  1.00  0.00     0.026 A 
HETATM    7  C   UNL     1      48.793 -29.417  -1.083  1.00  0.00     0.034 A 
HETATM    8  C   UNL     1      47.980 -29.196  -2.199  1.00  0.00     0.026 A 
ENDROOT
BRANCH   7   9
HETATM    9  C   UNL     1      50.198 -29.901  -1.192  1.00  0.00     0.270 C 
HETATM   10  N   UNL     1      50.702 -30.078  -2.465  1.00  0.00    -0.263 N 
HETATM   11  H   UNL     1      50.145 -30.043  -3.315  1.00  0.00     0.190 HD
HETATM   12  O   UNL     1      50.856 -30.159  -0.186  1.00  0.00    -0.266 OA
BRANCH  10  13
HETATM   13  N   UNL     1      51.973 -30.649  -2.592  1.00  0.00    -0.262 N 
HETATM   14  C   UNL     1      52.080 -31.979  -2.934  1.00  0.00     0.286 C 
HETATM   15  O   UNL     1      51.085 -32.675  -3.144  1.00  0.00    -0.264 OA
HETATM   16  H   UNL     1      52.767 -30.043  -2.405  1.00  0.00     0.190 HD
BRANCH  14  17
HETATM   17  C   UNL     1      53.427 -32.495  -3.026  1.00  0.00     0.102 A 
HETATM   18  N   UNL     1      54.161 -32.380  -4.190  1.00  0.00    -0.361 N 
HETATM   19  H   UNL     1      53.813 -31.937  -5.032  1.00  0.00     0.165 HD
HETATM   20  C   UNL     1      55.399 -32.941  -4.029  1.00  0.00     0.088 A 
HETATM   21  C   UNL     1      55.475 -33.434  -2.748  1.00  0.00     0.019 A 
HETATM   22  C   UNL     1      54.238 -33.154  -2.115  1.00  0.00     0.036 A 
ENDBRANCH  14  17
ENDBRANCH  10  13
ENDBRANCH   7   9
BRANCH   3  23
HETATM   23  O   UNL     1      44.818 -28.215  -0.637  1.00  0.00    -0.346 OA
BRANCH  23  24
HETATM   24  C   UNL     1      43.931 -29.333  -0.794  1.00  0.00     0.216 C 
BRANCH  24  25
HETATM   25  C   UNL     1      43.500 -29.904   0.532  1.00  0.00    -0.017 A 
HETATM   26  C   UNL     1      42.536 -29.231   1.279  1.00  0.00     0.125 A 
HETATM   27  N   UNL     1      42.058 -29.654   2.471  1.00  0.00    -0.272 NA
HETATM   28  C   UNL     1      42.560 -30.812   2.947  1.00  0.00     0.116 A 
HETATM   29  C   UNL     1      43.510 -31.568   2.280  1.00  0.00     0.020 A 
HETATM   30  C   UNL     1      43.981 -31.108   1.053  1.00  0.00     0.012 A 
ENDBRANCH  24  25
ENDBRANCH  23  24
ENDBRANCH   3  23
TORSDOF 6
ENDMDL
MODEL 9
REMARK VINA RESULT:      -7.3      2.429      3.773
REMARK  6 active torsions:
REMARK  status: ('A' for Active; 'I' for Inactive)
REMARK    1  A    between atoms: C_3  and  O_4 
REMARK    2  A    between atoms: O_4  and  C_5 
REMARK    3  A    between atoms: C_5  and  C_6 
REMARK    4  A    between atoms: C_15  and  C_16 
REMARK       I    between atoms: C_16  and  N_17 
REMARK    5  A    between atoms: N_17  and  N_18 
REMARK       I    between atoms: N_18  and  C_19 
REMARK    6  A    between atoms: C_19  and  C_20 
ROOT
HETATM    1  C   UNL     1      41.883 -10.005   4.216  1.00  0.00     0.051 C 
HETATM    2  C   UNL     1      42.562 -10.603   5.417  1.00  0.00    -0.027 A 
HETATM    3  C   UNL     1      43.170 -11.871   5.367  1.00  0.00     0.081 A 
HETATM    4  C   UNL     1      43.741 -12.440   6.517  1.00  0.00    -0.027 A 
HETATM    5  C   UNL     1      44.298 -13.835   6.539  1.00  0.00     0.051 C 
HETATM    6  C   UNL     1      43.815 -11.666   7.686  1.00  0.00     0.026 A 
HETATM    7  C   UNL     1      43.287 -10.368   7.731  1.00  0.00     0.034 A 
HETATM    8  C   UNL     1      42.641  -9.853   6.602  1.00  0.00     0.026 A 
ENDROOT
BRANCH   7   9
HETATM    9  C   UNL     1      43.421  -9.602   9.003  1.00  0.00     0.270 C 
HETATM   10  N   UNL     1      43.308 -10.317  10.178  1.00  0.00    -0.263 N 
HETATM   11  H   UNL     1      42.998 -11.284  10.237  1.00  0.00     0.190 HD
HETATM   12  O   UNL     1      43.592  -8.385   8.990  1.00  0.00    -0.266 OA
BRANCH  10  13
HETATM   13  N   UNL     1      43.305  -9.601  11.380  1.00  0.00    -0.262 N 
HETATM   14  C   UNL     1      42.119  -9.433  12.060  1.00  0.00     0.286 C 
HETATM   15  O   UNL     1      41.062  -9.909  11.641  1.00  0.00    -0.264 OA
HETATM   16  H   UNL     1      44.197  -9.221  11.688  1.00  0.00     0.190 HD
BRANCH  14  17
HETATM   17  C   UNL     1      42.201  -8.667  13.282  1.00  0.00     0.102 A 
HETATM   18  N   UNL     1      41.352  -8.915  14.342  1.00  0.00    -0.361 N 
HETATM   19  H   UNL     1      40.637  -9.633  14.333  1.00  0.00     0.165 HD
HETATM   20  C   UNL     1      41.624  -8.065  15.380  1.00  0.00     0.088 A 
HETATM   21  C   UNL     1      42.659  -7.247  14.992  1.00  0.00     0.019 A 
HETATM   22  C   UNL     1      43.024  -7.623  13.676  1.00  0.00     0.036 A 
ENDBRANCH  14  17
ENDBRANCH  10  13
ENDBRANCH   7   9
BRANCH   3  23
HETATM   23  O   UNL     1      43.121 -12.549   4.174  1.00  0.00    -0.346 OA
BRANCH  23  24
HETATM   24  C   UNL     1      42.060 -13.517   4.146  1.00  0.00     0.216 C 
BRANCH  24  25
HETATM   25  C   UNL     1      42.455 -14.770   3.408  1.00  0.00    -0.017 A 
HETATM   26  C   UNL     1      42.151 -16.010   3.966  1.00  0.00     0.125 A 
HETATM   27  N   UNL     1      42.438 -17.199   3.391  1.00  0.00    -0.272 NA
HETATM   28  C   UNL     1      43.056 -17.157   2.193  1.00  0.00     0.116 A 
HETATM   29  C   UNL     1      43.392 -15.981   1.543  1.00  0.00     0.020 A 
HETATM   30  C   UNL     1      43.080 -14.772   2.159  1.00  0.00     0.012 A 
ENDBRANCH  24  25
ENDBRANCH  23  24
ENDBRANCH   3  23
TORSDOF 6
ENDMDL
MODEL 10
REMARK VINA RESULT:      -7.3      4.596      6.694
REMARK  6 active torsions:
REMARK  status: ('A' for Active; 'I' for Inactive)
REMARK    1  A    between atoms: C_3  and  O_4 
REMARK    2  A    between atoms: O_4  and  C_5 
REMARK    3  A    between atoms: C_5  and  C_6 
REMARK    4  A    between atoms: C_15  and  C_16 
REMARK       I    between atoms: C_16  and  N_17 
REMARK    5  A    between atoms: N_17  and  N_18 
REMARK       I    between atoms: N_18  and  C_19 
REMARK    6  A    between atoms: C_19  and  C_20 
ROOT
HETATM    1  C   UNL     1      40.905 -15.863   1.898  1.00  0.00     0.051 C 
HETATM    2  C   UNL     1      41.479 -14.749   2.727  1.00  0.00    -0.027 A 
HETATM    3  C   UNL     1      42.154 -14.999   3.935  1.00  0.00     0.081 A 
HETATM    4  C   UNL     1      42.625 -13.940   4.729  1.00  0.00    -0.027 A 
HETATM    5  C   UNL     1      43.249 -14.155   6.079  1.00  0.00     0.051 C 
HETATM    6  C   UNL     1      42.529 -12.631   4.231  1.00  0.00     0.026 A 
HETATM    7  C   UNL     1      41.933 -12.369   2.990  1.00  0.00     0.034 A 
HETATM    8  C   UNL     1      41.388 -13.428   2.256  1.00  0.00     0.026 A 
ENDROOT
BRANCH   7   9
HETATM    9  C   UNL     1      41.886 -10.955   2.521  1.00  0.00     0.270 C 
HETATM   10  N   UNL     1      41.718 -10.751   1.166  1.00  0.00    -0.263 N 
HETATM   11  H   UNL     1      41.773 -11.483   0.462  1.00  0.00     0.190 HD
HETATM   12  O   UNL     1      42.024 -10.024   3.312  1.00  0.00    -0.266 OA
BRANCH  10  13
HETATM   13  N   UNL     1      41.797  -9.438   0.689  1.00  0.00    -0.262 N 
HETATM   14  C   UNL     1      41.858  -9.219  -0.670  1.00  0.00     0.286 C 
HETATM   15  O   UNL     1      41.832 -10.151  -1.476  1.00  0.00    -0.264 OA
HETATM   16  H   UNL     1      41.822  -8.699   1.387  1.00  0.00     0.190 HD
BRANCH  14  17
HETATM   17  C   UNL     1      41.955  -7.835  -1.077  1.00  0.00     0.102 A 
HETATM   18  N   UNL     1      42.450  -7.486  -2.318  1.00  0.00    -0.361 N 
HETATM   19  H   UNL     1      42.767  -8.159  -3.006  1.00  0.00     0.165 HD
HETATM   20  C   UNL     1      42.442  -6.126  -2.467  1.00  0.00     0.088 A 
HETATM   21  C   UNL     1      41.941  -5.578  -1.310  1.00  0.00     0.019 A 
HETATM   22  C   UNL     1      41.634  -6.650  -0.435  1.00  0.00     0.036 A 
ENDBRANCH  14  17
ENDBRANCH  10  13
ENDBRANCH   7   9
BRANCH   3  23
HETATM   23  O   UNL     1      42.272 -16.308   4.335  1.00  0.00    -0.346 OA
BRANCH  23  24
HETATM   24  C   UNL     1      43.619 -16.791   4.209  1.00  0.00     0.216 C 
BRANCH  24  25
HETATM   25  C   UNL     1      43.665 -18.226   3.753  1.00  0.00    -0.017 A 
HETATM   26  C   UNL     1      44.059 -19.212   4.655  1.00  0.00     0.125 A 
HETATM   27  N   UNL     1      44.122 -20.532   4.369  1.00  0.00    -0.272 NA
HETATM   28  C   UNL     1      43.770 -20.896   3.118  1.00  0.00     0.116 A 
HETATM   29  C   UNL     1      43.351 -20.001   2.148  1.00  0.00     0.020 A 
HETATM   30  C   UNL     1      43.293 -18.648   2.474  1.00  0.00     0.012 A 
ENDBRANCH  24  25
ENDBRANCH  23  24
ENDBRANCH   3  23
TORSDOF 6
ENDMDL
