MODEL 1
REMARK VINA RESULT:      -7.4      0.000      0.000
REMARK  6 active torsions:
REMARK  status: ('A' for Active; 'I' for Inactive)
REMARK    1  A    between atoms: C_4  and  C_5 
REMARK    2  A    between atoms: C_7  and  N_8 
REMARK    3  A    between atoms: N_8  and  C_9 
REMARK    4  A    between atoms: C_9  and  C_10 
REMARK    5  A    between atoms: C_10  and  C_11 
REMARK    6  A    between atoms: C_11  and  N_12 
ROOT
HETATM    1  C   UNL     1      43.222 -16.698   3.400  1.00  0.00     0.162 C 
HETATM    2  N   UNL     1      42.913 -16.082   2.235  1.00  0.00    -0.216 NA
HETATM    3  C   UNL     1      42.545 -14.783   2.324  1.00  0.00     0.118 C 
HETATM    4  C   UNL     1      42.693 -14.032   3.509  1.00  0.00     0.033 A 
HETATM    5  C   UNL     1      43.103 -14.762   4.628  1.00  0.00     0.072 A 
HETATM    6  N   UNL     1      43.341 -16.072   4.578  1.00  0.00    -0.228 NA
HETATM    7  C   UNL     1      42.468 -12.635   3.641  1.00  0.00     0.017 A 
HETATM    8  C   UNL     1      42.640 -11.994   4.866  1.00  0.00     0.001 A 
HETATM    9  C   UNL     1      43.036 -12.732   5.972  1.00  0.00     0.002 A 
HETATM   10  C   UNL     1      43.264 -14.103   5.841  1.00  0.00     0.032 A 
ENDROOT
BRANCH   3  11
HETATM   11  N   UNL     1      42.100 -14.132   1.148  1.00  0.00    -0.277 NA
HETATM   12  H   UNL     1      42.057 -13.130   1.357  1.00  0.00     0.129 HD
BRANCH  11  13
HETATM   13  C   UNL     1      40.831 -14.561   0.566  1.00  0.00     0.095 C 
BRANCH  13  14
HETATM   14  C   UNL     1      39.903 -13.361   0.381  1.00  0.00     0.042 C 
BRANCH  14  15
HETATM   15  C   UNL     1      39.331 -12.774   1.664  1.00  0.00     0.230 C 
BRANCH  15  16
HETATM   16  N   UNL     1      39.042 -13.824   2.661  1.00  0.00    -0.079 N 
HETATM   17  H   UNL     1      38.727 -13.383   3.549  1.00  0.00     0.274 HD
HETATM   18  H   UNL     1      38.312 -14.476   2.358  1.00  0.00     0.274 HD
HETATM   19  H   UNL     1      39.884 -14.362   2.897  1.00  0.00     0.274 HD
ENDBRANCH  15  16
ENDBRANCH  14  15
ENDBRANCH  13  14
ENDBRANCH  11  13
ENDBRANCH   3  11
BRANCH   1  20
HETATM   20  C   UNL     1      43.457 -18.158   3.391  1.00  0.00     0.012 A 
HETATM   21  C   UNL     1      43.181 -18.961   2.268  1.00  0.00     0.015 A 
HETATM   22  C   UNL     1      43.424 -20.340   2.276  1.00  0.00     0.001 A 
HETATM   23  C   UNL     1      43.930 -20.953   3.417  1.00  0.00     0.000 A 
HETATM   24  C   UNL     1      44.194 -20.191   4.549  1.00  0.00     0.001 A 
HETATM   25  C   UNL     1      43.964 -18.812   4.532  1.00  0.00     0.015 A 
ENDBRANCH   1  20
TORSDOF 6
ENDMDL
MODEL 2
REMARK VINA RESULT:      -7.3      2.190      3.133
REMARK  6 active torsions:
REMARK  status: ('A' for Active; 'I' for Inactive)
REMARK    1  A    between atoms: C_4  and  C_5 
REMARK    2  A    between atoms: C_7  and  N_8 
REMARK    3  A    between atoms: N_8  and  C_9 
REMARK    4  A    between atoms: C_9  and  C_10 
REMARK    5  A    between atoms: C_10  and  C_11 
REMARK    6  A    between atoms: C_11  and  N_12 
ROOT
HETATM    1  C   UNL     1      41.732 -15.815   2.888  1.00  0.00     0.162 C 
HETATM    2  N   UNL     1      41.154 -15.818   1.664  1.00  0.00    -0.216 NA
HETATM    3  C   UNL     1      40.209 -14.875   1.445  1.00  0.00     0.118 C 
HETATM    4  C   UNL     1      39.991 -13.800   2.334  1.00  0.00     0.033 A 
HETATM    5  C   UNL     1      40.710 -13.862   3.529  1.00  0.00     0.072 A 
HETATM    6  N   UNL     1      41.547 -14.860   3.809  1.00  0.00    -0.228 NA
HETATM    7  C   UNL     1      39.125 -12.697   2.105  1.00  0.00     0.017 A 
HETATM    8  C   UNL     1      38.980 -11.690   3.057  1.00  0.00     0.001 A 
HETATM    9  C   UNL     1      39.692 -11.768   4.245  1.00  0.00     0.002 A 
HETATM   10  C   UNL     1      40.548 -12.849   4.467  1.00  0.00     0.032 A 
ENDROOT
BRANCH   3  11
HETATM   11  N   UNL     1      39.496 -14.913   0.223  1.00  0.00    -0.277 NA
HETATM   12  H   UNL     1      39.356 -15.900  -0.013  1.00  0.00     0.129 HD
BRANCH  11  13
HETATM   13  C   UNL     1      40.071 -14.218  -0.927  1.00  0.00     0.095 C 
BRANCH  13  14
HETATM   14  C   UNL     1      38.966 -13.810  -1.901  1.00  0.00     0.042 C 
BRANCH  14  15
HETATM   15  C   UNL     1      38.685 -14.801  -3.022  1.00  0.00     0.230 C 
BRANCH  15  16
HETATM   16  N   UNL     1      38.350 -16.139  -2.495  1.00  0.00    -0.079 N 
HETATM   17  H   UNL     1      38.281 -16.096  -1.457  1.00  0.00     0.274 HD
HETATM   18  H   UNL     1      37.462 -16.501  -2.854  1.00  0.00     0.274 HD
HETATM   19  H   UNL     1      39.090 -16.821  -2.700  1.00  0.00     0.274 HD
ENDBRANCH  15  16
ENDBRANCH  14  15
ENDBRANCH  13  14
ENDBRANCH  11  13
ENDBRANCH   3  11
BRANCH   1  20
HETATM   20  C   UNL     1      42.637 -16.927   3.249  1.00  0.00     0.012 A 
HETATM   21  C   UNL     1      43.361 -16.952   4.456  1.00  0.00     0.015 A 
HETATM   22  C   UNL     1      44.202 -18.023   4.785  1.00  0.00     0.001 A 
HETATM   23  C   UNL     1      44.356 -19.086   3.901  1.00  0.00     0.000 A 
HETATM   24  C   UNL     1      43.671 -19.081   2.692  1.00  0.00     0.001 A 
HETATM   25  C   UNL     1      42.820 -18.018   2.375  1.00  0.00     0.015 A 
ENDBRANCH   1  20
TORSDOF 6
ENDMDL
MODEL 3
REMARK VINA RESULT:      -7.1      1.684      5.904
REMARK  6 active torsions:
REMARK  status: ('A' for Active; 'I' for Inactive)
REMARK    1  A    between atoms: C_4  and  C_5 
REMARK    2  A    between atoms: C_7  and  N_8 
REMARK    3  A    between atoms: N_8  and  C_9 
REMARK    4  A    between atoms: C_9  and  C_10 
REMARK    5  A    between atoms: C_10  and  C_11 
REMARK    6  A    between atoms: C_11  and  N_12 
ROOT
HETATM    1  C   UNL     1      42.245 -15.579   2.380  1.00  0.00     0.162 C 
HETATM    2  N   UNL     1      42.748 -15.126   3.552  1.00  0.00    -0.216 NA
HETATM    3  C   UNL     1      43.255 -16.061   4.388  1.00  0.00     0.118 C 
HETATM    4  C   UNL     1      43.470 -17.398   3.989  1.00  0.00     0.033 A 
HETATM    5  C   UNL     1      42.983 -17.725   2.721  1.00  0.00     0.072 A 
HETATM    6  N   UNL     1      42.364 -16.838   1.942  1.00  0.00    -0.228 NA
HETATM    7  C   UNL     1      44.128 -18.397   4.755  1.00  0.00     0.017 A 
HETATM    8  C   UNL     1      44.282 -19.692   4.263  1.00  0.00     0.001 A 
HETATM    9  C   UNL     1      43.784 -20.007   3.007  1.00  0.00     0.002 A 
HETATM   10  C   UNL     1      43.143 -19.024   2.252  1.00  0.00     0.032 A 
ENDROOT
BRANCH   3  11
HETATM   11  N   UNL     1      43.685 -15.649   5.672  1.00  0.00    -0.277 NA
HETATM   12  H   UNL     1      44.070 -16.474   6.140  1.00  0.00     0.129 HD
BRANCH  11  13
HETATM   13  C   UNL     1      42.708 -15.007   6.548  1.00  0.00     0.095 C 
BRANCH  13  14
HETATM   14  C   UNL     1      41.643 -16.015   6.977  1.00  0.00     0.042 C 
BRANCH  14  15
HETATM   15  C   UNL     1      40.224 -15.701   6.522  1.00  0.00     0.230 C 
BRANCH  15  16
HETATM   16  N   UNL     1      40.202 -14.625   5.512  1.00  0.00    -0.079 N 
HETATM   17  H   UNL     1      40.902 -14.831   4.769  1.00  0.00     0.274 HD
HETATM   18  H   UNL     1      39.288 -14.516   5.061  1.00  0.00     0.274 HD
HETATM   19  H   UNL     1      40.478 -13.722   5.916  1.00  0.00     0.274 HD
ENDBRANCH  15  16
ENDBRANCH  14  15
ENDBRANCH  13  14
ENDBRANCH  11  13
ENDBRANCH   3  11
BRANCH   1  20
HETATM   20  C   UNL     1      41.518 -14.632   1.507  1.00  0.00     0.012 A 
HETATM   21  C   UNL     1      40.541 -15.052   0.584  1.00  0.00     0.015 A 
HETATM   22  C   UNL     1      39.854 -14.137  -0.224  1.00  0.00     0.001 A 
HETATM   23  C   UNL     1      40.144 -12.779  -0.142  1.00  0.00     0.000 A 
HETATM   24  C   UNL     1      41.118 -12.335   0.745  1.00  0.00     0.001 A 
HETATM   25  C   UNL     1      41.790 -13.250   1.560  1.00  0.00     0.015 A 
ENDBRANCH   1  20
TORSDOF 6
ENDMDL
MODEL 4
REMARK VINA RESULT:      -7.0      1.334      3.976
REMARK  6 active torsions:
REMARK  status: ('A' for Active; 'I' for Inactive)
REMARK    1  A    between atoms: C_4  and  C_5 
REMARK    2  A    between atoms: C_7  and  N_8 
REMARK    3  A    between atoms: N_8  and  C_9 
REMARK    4  A    between atoms: C_9  and  C_10 
REMARK    5  A    between atoms: C_10  and  C_11 
REMARK    6  A    between atoms: C_11  and  N_12 
ROOT
HETATM    1  C   UNL     1      42.763 -16.724   3.094  1.00  0.00     0.162 C 
HETATM    2  N   UNL     1      43.049 -15.840   4.078  1.00  0.00    -0.216 NA
HETATM    3  C   UNL     1      42.773 -14.542   3.816  1.00  0.00     0.118 C 
HETATM    4  C   UNL     1      42.019 -14.139   2.693  1.00  0.00     0.033 A 
HETATM    5  C   UNL     1      41.708 -15.158   1.789  1.00  0.00     0.072 A 
HETATM    6  N   UNL     1      42.092 -16.421   1.976  1.00  0.00    -0.228 NA
HETATM    7  C   UNL     1      41.566 -12.819   2.427  1.00  0.00     0.017 A 
HETATM    8  C   UNL     1      40.830 -12.531   1.280  1.00  0.00     0.001 A 
HETATM    9  C   UNL     1      40.537 -13.550   0.384  1.00  0.00     0.002 A 
HETATM   10  C   UNL     1      40.977 -14.849   0.648  1.00  0.00     0.032 A 
ENDROOT
BRANCH   3  11
HETATM   11  N   UNL     1      43.162 -13.569   4.768  1.00  0.00    -0.277 NA
HETATM   12  H   UNL     1      44.155 -13.724   4.968  1.00  0.00     0.129 HD
BRANCH  11  13
HETATM   13  C   UNL     1      42.419 -13.505   6.024  1.00  0.00     0.095 C 
BRANCH  13  14
HETATM   14  C   UNL     1      43.288 -14.006   7.176  1.00  0.00     0.042 C 
BRANCH  14  15
HETATM   15  C   UNL     1      42.956 -15.402   7.687  1.00  0.00     0.230 C 
BRANCH  15  16
HETATM   16  N   UNL     1      41.805 -15.984   6.969  1.00  0.00    -0.079 N 
HETATM   17  H   UNL     1      41.927 -15.846   5.945  1.00  0.00     0.274 HD
HETATM   18  H   UNL     1      41.693 -16.988   7.139  1.00  0.00     0.274 HD
HETATM   19  H   UNL     1      40.928 -15.510   7.215  1.00  0.00     0.274 HD
ENDBRANCH  15  16
ENDBRANCH  14  15
ENDBRANCH  13  14
ENDBRANCH  11  13
ENDBRANCH   3  11
BRANCH   1  20
HETATM   20  C   UNL     1      43.206 -18.127   3.249  1.00  0.00     0.012 A 
HETATM   21  C   UNL     1      43.785 -18.610   4.437  1.00  0.00     0.015 A 
HETATM   22  C   UNL     1      44.184 -19.946   4.568  1.00  0.00     0.001 A 
HETATM   23  C   UNL     1      44.034 -20.827   3.502  1.00  0.00     0.000 A 
HETATM   24  C   UNL     1      43.484 -20.375   2.308  1.00  0.00     0.001 A 
HETATM   25  C   UNL     1      43.072 -19.045   2.188  1.00  0.00     0.015 A 
ENDBRANCH   1  20
TORSDOF 6
ENDMDL
MODEL 5
REMARK VINA RESULT:      -6.9      1.284      5.354
REMARK  6 active torsions:
REMARK  status: ('A' for Active; 'I' for Inactive)
REMARK    1  A    between atoms: C_4  and  C_5 
REMARK    2  A    between atoms: C_7  and  N_8 
REMARK    3  A    between atoms: N_8  and  C_9 
REMARK    4  A    between atoms: C_9  and  C_10 
REMARK    5  A    between atoms: C_10  and  C_11 
REMARK    6  A    between atoms: C_11  and  N_12 
ROOT
HETATM    1  C   UNL     1      43.149 -14.306   4.597  1.00  0.00     0.162 C 
HETATM    2  N   UNL     1      42.715 -14.177   3.321  1.00  0.00    -0.216 NA
HETATM    3  C   UNL     1      42.868 -15.259   2.524  1.00  0.00     0.118 C 
HETATM    4  C   UNL     1      43.235 -16.525   3.027  1.00  0.00     0.033 A 
HETATM    5  C   UNL     1      43.579 -16.550   4.381  1.00  0.00     0.072 A 
HETATM    6  N   UNL     1      43.556 -15.458   5.144  1.00  0.00    -0.228 NA
HETATM    7  C   UNL     1      43.275 -17.735   2.283  1.00  0.00     0.017 A 
HETATM    8  C   UNL     1      43.659 -18.933   2.881  1.00  0.00     0.001 A 
HETATM    9  C   UNL     1      44.008 -18.942   4.224  1.00  0.00     0.002 A 
HETATM   10  C   UNL     1      43.963 -17.755   4.958  1.00  0.00     0.032 A 
ENDROOT
BRANCH   3  11
HETATM   11  N   UNL     1      42.537 -15.133   1.153  1.00  0.00    -0.277 NA
HETATM   12  H   UNL     1      43.244 -14.526   0.728  1.00  0.00     0.129 HD
BRANCH  11  13
HETATM   13  C   UNL     1      41.206 -14.637   0.814  1.00  0.00     0.095 C 
BRANCH  13  14
HETATM   14  C   UNL     1      40.151 -15.693   1.143  1.00  0.00     0.042 C 
BRANCH  14  15
HETATM   15  C   UNL     1      39.474 -15.541   2.498  1.00  0.00     0.230 C 
BRANCH  15  16
HETATM   16  N   UNL     1      39.031 -14.153   2.732  1.00  0.00    -0.079 N 
HETATM   17  H   UNL     1      38.631 -13.763   1.854  1.00  0.00     0.274 HD
HETATM   18  H   UNL     1      38.316 -14.078   3.463  1.00  0.00     0.274 HD
HETATM   19  H   UNL     1      39.818 -13.542   2.980  1.00  0.00     0.274 HD
ENDBRANCH  15  16
ENDBRANCH  14  15
ENDBRANCH  13  14
ENDBRANCH  11  13
ENDBRANCH   3  11
BRANCH   1  20
HETATM   20  C   UNL     1      43.174 -13.107   5.463  1.00  0.00     0.012 A 
HETATM   21  C   UNL     1      42.404 -11.961   5.190  1.00  0.00     0.015 A 
HETATM   22  C   UNL     1      42.432 -10.842   6.032  1.00  0.00     0.001 A 
HETATM   23  C   UNL     1      43.250 -10.835   7.157  1.00  0.00     0.000 A 
HETATM   24  C   UNL     1      44.038 -11.944   7.443  1.00  0.00     0.001 A 
HETATM   25  C   UNL     1      43.995 -13.065   6.608  1.00  0.00     0.015 A 
ENDBRANCH   1  20
TORSDOF 6
ENDMDL
MODEL 6
REMARK VINA RESULT:      -6.8      2.239      4.429
REMARK  6 active torsions:
REMARK  status: ('A' for Active; 'I' for Inactive)
REMARK    1  A    between atoms: C_4  and  C_5 
REMARK    2  A    between atoms: C_7  and  N_8 
REMARK    3  A    between atoms: N_8  and  C_9 
REMARK    4  A    between atoms: C_9  and  C_10 
REMARK    5  A    between atoms: C_10  and  C_11 
REMARK    6  A    between atoms: C_11  and  N_12 
ROOT
HETATM    1  C   UNL     1      42.138 -15.775   4.123  1.00  0.00     0.162 C 
HETATM    2  N   UNL     1      42.478 -15.228   5.315  1.00  0.00    -0.216 NA
HETATM    3  C   UNL     1      42.000 -13.986   5.561  1.00  0.00     0.118 C 
HETATM    4  C   UNL     1      41.021 -13.376   4.749  1.00  0.00     0.033 A 
HETATM    5  C   UNL     1      40.688 -14.078   3.588  1.00  0.00     0.072 A 
HETATM    6  N   UNL     1      41.252 -15.244   3.272  1.00  0.00    -0.228 NA
HETATM    7  C   UNL     1      40.368 -12.144   5.021  1.00  0.00     0.017 A 
HETATM    8  C   UNL     1      39.415 -11.628   4.144  1.00  0.00     0.001 A 
HETATM    9  C   UNL     1      39.102 -12.330   2.989  1.00  0.00     0.002 A 
HETATM   10  C   UNL     1      39.739 -13.544   2.725  1.00  0.00     0.032 A 
ENDROOT
BRANCH   3  11
HETATM   11  N   UNL     1      42.424 -13.329   6.741  1.00  0.00    -0.277 NA
HETATM   12  H   UNL     1      41.886 -12.460   6.811  1.00  0.00     0.129 HD
BRANCH  11  13
HETATM   13  C   UNL     1      43.847 -13.031   6.885  1.00  0.00     0.095 C 
BRANCH  13  14
HETATM   14  C   UNL     1      44.072 -11.519   6.871  1.00  0.00     0.042 C 
BRANCH  14  15
HETATM   15  C   UNL     1      45.463 -11.062   7.288  1.00  0.00     0.230 C 
BRANCH  15  16
HETATM   16  N   UNL     1      46.417 -11.122   6.162  1.00  0.00    -0.079 N 
HETATM   17  H   UNL     1      45.921 -10.899   5.274  1.00  0.00     0.274 HD
HETATM   18  H   UNL     1      47.196 -10.463   6.260  1.00  0.00     0.274 HD
HETATM   19  H   UNL     1      46.799 -12.067   6.042  1.00  0.00     0.274 HD
ENDBRANCH  15  16
ENDBRANCH  14  15
ENDBRANCH  13  14
ENDBRANCH  11  13
ENDBRANCH   3  11
BRANCH   1  20
HETATM   20  C   UNL     1      42.772 -17.049   3.721  1.00  0.00     0.012 A 
HETATM   21  C   UNL     1      42.480 -17.688   2.502  1.00  0.00     0.015 A 
HETATM   22  C   UNL     1      43.103 -18.887   2.134  1.00  0.00     0.001 A 
HETATM   23  C   UNL     1      44.019 -19.488   2.990  1.00  0.00     0.000 A 
HETATM   24  C   UNL     1      44.315 -18.893   4.211  1.00  0.00     0.001 A 
HETATM   25  C   UNL     1      43.702 -17.688   4.567  1.00  0.00     0.015 A 
ENDBRANCH   1  20
TORSDOF 6
ENDMDL
MODEL 7
REMARK VINA RESULT:      -6.8     13.835     16.581
REMARK  6 active torsions:
REMARK  status: ('A' for Active; 'I' for Inactive)
REMARK    1  A    between atoms: C_4  and  C_5 
REMARK    2  A    between atoms: C_7  and  N_8 
REMARK    3  A    between atoms: N_8  and  C_9 
REMARK    4  A    between atoms: C_9  and  C_10 
REMARK    5  A    between atoms: C_10  and  C_11 
REMARK    6  A    between atoms: C_11  and  N_12 
ROOT
HETATM    1  C   UNL     1      49.431 -30.158  -1.039  1.00  0.00     0.162 C 
HETATM    2  N   UNL     1      49.211 -29.632   0.189  1.00  0.00    -0.216 NA
HETATM    3  C   UNL     1      48.130 -28.827   0.311  1.00  0.00     0.118 C 
HETATM    4  C   UNL     1      47.150 -28.717  -0.699  1.00  0.00     0.033 A 
HETATM    5  C   UNL     1      47.449 -29.377  -1.893  1.00  0.00     0.072 A 
HETATM    6  N   UNL     1      48.578 -30.065  -2.066  1.00  0.00    -0.228 NA
HETATM    7  C   UNL     1      45.921 -28.012  -0.589  1.00  0.00     0.017 A 
HETATM    8  C   UNL     1      45.025 -27.964  -1.654  1.00  0.00     0.001 A 
HETATM    9  C   UNL     1      45.339 -28.614  -2.839  1.00  0.00     0.002 A 
HETATM   10  C   UNL     1      46.543 -29.312  -2.945  1.00  0.00     0.032 A 
ENDROOT
BRANCH   3  11
HETATM   11  N   UNL     1      47.926 -28.163   1.544  1.00  0.00    -0.277 NA
HETATM   12  H   UNL     1      48.752 -27.581   1.712  1.00  0.00     0.129 HD
BRANCH  11  13
HETATM   13  C   UNL     1      47.660 -28.979   2.725  1.00  0.00     0.095 C 
BRANCH  13  14
HETATM   14  C   UNL     1      48.763 -28.777   3.764  1.00  0.00     0.042 C 
BRANCH  14  15
HETATM   15  C   UNL     1      49.896 -29.794   3.721  1.00  0.00     0.230 C 
BRANCH  15  16
HETATM   16  N   UNL     1      50.825 -29.526   2.605  1.00  0.00    -0.079 N 
HETATM   17  H   UNL     1      51.779 -29.852   2.862  1.00  0.00     0.274 HD
HETATM   18  H   UNL     1      50.555 -29.999   1.737  1.00  0.00     0.274 HD
HETATM   19  H   UNL     1      50.910 -28.521   2.419  1.00  0.00     0.274 HD
ENDBRANCH  15  16
ENDBRANCH  14  15
ENDBRANCH  13  14
ENDBRANCH  11  13
ENDBRANCH   3  11
BRANCH   1  20
HETATM   20  C   UNL     1      50.690 -30.896  -1.279  1.00  0.00     0.012 A 
HETATM   21  C   UNL     1      51.284 -31.717  -0.303  1.00  0.00     0.015 A 
HETATM   22  C   UNL     1      52.469 -32.419  -0.556  1.00  0.00     0.001 A 
HETATM   23  C   UNL     1      53.101 -32.298  -1.789  1.00  0.00     0.000 A 
HETATM   24  C   UNL     1      52.550 -31.480  -2.769  1.00  0.00     0.001 A 
HETATM   25  C   UNL     1      51.359 -30.793  -2.516  1.00  0.00     0.015 A 
ENDBRANCH   1  20
TORSDOF 6
ENDMDL
MODEL 8
REMARK VINA RESULT:      -6.7      1.504      4.016
REMARK  6 active torsions:
REMARK  status: ('A' for Active; 'I' for Inactive)
REMARK    1  A    between atoms: C_4  and  C_5 
REMARK    2  A    between atoms: C_7  and  N_8 
REMARK    3  A    between atoms: N_8  and  C_9 
REMARK    4  A    between atoms: C_9  and  C_10 
REMARK    5  A    between atoms: C_10  and  C_11 
REMARK    6  A    between atoms: C_11  and  N_12 
ROOT
HETATM    1  C   UNL     1      41.647 -15.953   2.868  1.00  0.00     0.162 C 
HETATM    2  N   UNL     1      41.048 -15.296   3.889  1.00  0.00    -0.216 NA
HETATM    3  C   UNL     1      40.375 -14.168   3.563  1.00  0.00     0.118 C 
HETATM    4  C   UNL     1      40.104 -13.808   2.225  1.00  0.00     0.033 A 
HETATM    5  C   UNL     1      40.708 -14.614   1.258  1.00  0.00     0.072 A 
HETATM    6  N   UNL     1      41.481 -15.652   1.574  1.00  0.00    -0.228 NA
HETATM    7  C   UNL     1      39.285 -12.724   1.808  1.00  0.00     0.017 A 
HETATM    8  C   UNL     1      39.088 -12.454   0.455  1.00  0.00     0.001 A 
HETATM    9  C   UNL     1      39.702 -13.256  -0.496  1.00  0.00     0.002 A 
HETATM   10  C   UNL     1      40.502 -14.324  -0.086  1.00  0.00     0.032 A 
ENDROOT
BRANCH   3  11
HETATM   11  N   UNL     1      39.832 -13.386   4.610  1.00  0.00    -0.277 NA
HETATM   12  H   UNL     1      38.891 -13.106   4.320  1.00  0.00     0.129 HD
BRANCH  11  13
HETATM   13  C   UNL     1      40.578 -12.206   5.041  1.00  0.00     0.095 C 
BRANCH  13  14
HETATM   14  C   UNL     1      42.081 -12.469   4.947  1.00  0.00     0.042 C 
BRANCH  14  15
HETATM   15  C   UNL     1      42.721 -13.057   6.197  1.00  0.00     0.230 C 
BRANCH  15  16
HETATM   16  N   UNL     1      41.859 -14.081   6.820  1.00  0.00    -0.079 N 
HETATM   17  H   UNL     1      41.024 -13.624   7.240  1.00  0.00     0.274 HD
HETATM   18  H   UNL     1      41.530 -14.787   6.154  1.00  0.00     0.274 HD
HETATM   19  H   UNL     1      42.338 -14.557   7.593  1.00  0.00     0.274 HD
ENDBRANCH  15  16
ENDBRANCH  14  15
ENDBRANCH  13  14
ENDBRANCH  11  13
ENDBRANCH   3  11
BRANCH   1  20
HETATM   20  C   UNL     1      42.543 -17.087   3.183  1.00  0.00     0.012 A 
HETATM   21  C   UNL     1      42.780 -18.138   2.277  1.00  0.00     0.015 A 
HETATM   22  C   UNL     1      43.643 -19.195   2.589  1.00  0.00     0.001 A 
HETATM   23  C   UNL     1      44.275 -19.237   3.827  1.00  0.00     0.000 A 
HETATM   24  C   UNL     1      44.047 -18.224   4.752  1.00  0.00     0.001 A 
HETATM   25  C   UNL     1      43.196 -17.163   4.430  1.00  0.00     0.015 A 
ENDBRANCH   1  20
TORSDOF 6
ENDMDL
MODEL 9
REMARK VINA RESULT:      -6.5     14.420     16.910
REMARK  6 active torsions:
REMARK  status: ('A' for Active; 'I' for Inactive)
REMARK    1  A    between atoms: C_4  and  C_5 
REMARK    2  A    between atoms: C_7  and  N_8 
REMARK    3  A    between atoms: N_8  and  C_9 
REMARK    4  A    between atoms: C_9  and  C_10 
REMARK    5  A    between atoms: C_10  and  C_11 
REMARK    6  A    between atoms: C_11  and  N_12 
ROOT
HETATM    1  C   UNL     1      47.796 -29.577  -0.734  1.00  0.00     0.162 C 
HETATM    2  N   UNL     1      49.006 -30.115  -1.015  1.00  0.00    -0.216 NA
HETATM    3  C   UNL     1      49.890 -30.167   0.008  1.00  0.00     0.118 C 
HETATM    4  C   UNL     1      49.520 -29.902   1.344  1.00  0.00     0.033 A 
HETATM    5  C   UNL     1      48.216 -29.433   1.518  1.00  0.00     0.072 A 
HETATM    6  N   UNL     1      47.378 -29.254   0.497  1.00  0.00    -0.228 NA
HETATM    7  C   UNL     1      50.350 -30.075   2.485  1.00  0.00     0.017 A 
HETATM    8  C   UNL     1      49.883 -29.776   3.763  1.00  0.00     0.001 A 
HETATM    9  C   UNL     1      48.589 -29.300   3.922  1.00  0.00     0.002 A 
HETATM   10  C   UNL     1      47.771 -29.136   2.801  1.00  0.00     0.032 A 
ENDROOT
BRANCH   3  11
HETATM   11  N   UNL     1      51.205 -30.614  -0.266  1.00  0.00    -0.277 NA
HETATM   12  H   UNL     1      51.546 -30.071  -1.065  1.00  0.00     0.129 HD
BRANCH  11  13
HETATM   13  C   UNL     1      51.404 -32.037  -0.526  1.00  0.00     0.095 C 
BRANCH  13  14
HETATM   14  C   UNL     1      52.693 -32.253  -1.319  1.00  0.00     0.042 C 
BRANCH  14  15
HETATM   15  C   UNL     1      52.627 -31.868  -2.790  1.00  0.00     0.230 C 
BRANCH  15  16
HETATM   16  N   UNL     1      52.557 -30.404  -2.967  1.00  0.00    -0.079 N 
HETATM   17  H   UNL     1      51.719 -30.161  -3.534  1.00  0.00     0.274 HD
HETATM   18  H   UNL     1      52.494 -29.895  -2.080  1.00  0.00     0.274 HD
HETATM   19  H   UNL     1      53.364 -30.048  -3.492  1.00  0.00     0.274 HD
ENDBRANCH  15  16
ENDBRANCH  14  15
ENDBRANCH  13  14
ENDBRANCH  11  13
ENDBRANCH   3  11
BRANCH   1  20
HETATM   20  C   UNL     1      46.854 -29.328  -1.846  1.00  0.00     0.012 A 
HETATM   21  C   UNL     1      46.188 -28.100  -2.014  1.00  0.00     0.015 A 
HETATM   22  C   UNL     1      45.311 -27.881  -3.083  1.00  0.00     0.001 A 
HETATM   23  C   UNL     1      45.062 -28.896  -4.000  1.00  0.00     0.000 A 
HETATM   24  C   UNL     1      45.688 -30.128  -3.851  1.00  0.00     0.001 A 
HETATM   25  C   UNL     1      46.575 -30.337  -2.791  1.00  0.00     0.015 A 
ENDBRANCH   1  20
TORSDOF 6
ENDMDL
MODEL 10
REMARK VINA RESULT:      -6.4     13.964     15.160
REMARK  6 active torsions:
REMARK  status: ('A' for Active; 'I' for Inactive)
REMARK    1  A    between atoms: C_4  and  C_5 
REMARK    2  A    between atoms: C_7  and  N_8 
REMARK    3  A    between atoms: N_8  and  C_9 
REMARK    4  A    between atoms: C_9  and  C_10 
REMARK    5  A    between atoms: C_10  and  C_11 
REMARK    6  A    between atoms: C_11  and  N_12 
ROOT
HETATM    1  C   UNL     1      43.687 -29.700   1.382  1.00  0.00     0.162 C 
HETATM    2  N   UNL     1      44.708 -29.228   2.135  1.00  0.00    -0.216 NA
HETATM    3  C   UNL     1      45.797 -28.791   1.460  1.00  0.00     0.118 C 
HETATM    4  C   UNL     1      45.799 -28.610   0.061  1.00  0.00     0.033 A 
HETATM    5  C   UNL     1      44.652 -29.058  -0.599  1.00  0.00     0.072 A 
HETATM    6  N   UNL     1      43.626 -29.611   0.047  1.00  0.00    -0.228 NA
HETATM    7  C   UNL     1      46.847 -28.022  -0.698  1.00  0.00     0.017 A 
HETATM    8  C   UNL     1      46.747 -27.897  -2.082  1.00  0.00     0.001 A 
HETATM    9  C   UNL     1      45.607 -28.356  -2.727  1.00  0.00     0.002 A 
HETATM   10  C   UNL     1      44.575 -28.928  -1.981  1.00  0.00     0.032 A 
ENDROOT
BRANCH   3  11
HETATM   11  N   UNL     1      46.933 -28.398   2.207  1.00  0.00    -0.277 NA
HETATM   12  H   UNL     1      47.350 -27.598   1.722  1.00  0.00     0.129 HD
BRANCH  11  13
HETATM   13  C   UNL     1      47.964 -29.400   2.465  1.00  0.00     0.095 C 
BRANCH  13  14
HETATM   14  C   UNL     1      48.258 -29.481   3.962  1.00  0.00     0.042 C 
BRANCH  14  15
HETATM   15  C   UNL     1      47.553 -30.606   4.707  1.00  0.00     0.230 C 
BRANCH  15  16
HETATM   16  N   UNL     1      46.089 -30.544   4.528  1.00  0.00    -0.079 N 
HETATM   17  H   UNL     1      45.656 -30.085   5.356  1.00  0.00     0.274 HD
HETATM   18  H   UNL     1      45.809 -30.018   3.695  1.00  0.00     0.274 HD
HETATM   19  H   UNL     1      45.675 -31.483   4.478  1.00  0.00     0.274 HD
ENDBRANCH  15  16
ENDBRANCH  14  15
ENDBRANCH  13  14
ENDBRANCH  11  13
ENDBRANCH   3  11
BRANCH   1  20
HETATM   20  C   UNL     1      42.548 -30.355   2.061  1.00  0.00     0.012 A 
HETATM   21  C   UNL     1      41.685 -31.249   1.400  1.00  0.00     0.015 A 
HETATM   22  C   UNL     1      40.621 -31.870   2.066  1.00  0.00     0.001 A 
HETATM   23  C   UNL     1      40.382 -31.593   3.408  1.00  0.00     0.000 A 
HETATM   24  C   UNL     1      41.204 -30.699   4.084  1.00  0.00     0.001 A 
HETATM   25  C   UNL     1      42.274 -30.094   3.419  1.00  0.00     0.015 A 
ENDBRANCH   1  20
TORSDOF 6
ENDMDL
