MODEL 1
REMARK VINA RESULT:      -9.5      0.000      0.000
REMARK  7 active torsions:
REMARK  status: ('A' for Active; 'I' for Inactive)
REMARK    1  A    between atoms: C_4  and  N_5 
REMARK    2  A    between atoms: C_6  and  S_7 
REMARK    3  A    between atoms: S_7  and  C_8 
REMARK    4  A    between atoms: C_8  and  C_9 
REMARK       I    between atoms: C_9  and  N_10 
REMARK    5  A    between atoms: C_12  and  C_13 
REMARK    6  A    between atoms: C_13  and  N_14 
REMARK       I    between atoms: N_14  and  C_15 
REMARK       I    between atoms: C_15  and  N_16 
REMARK    7  A    between atoms: N_16  and  C_17 
ROOT
HETATM    1  C   UNL     1      41.155  -9.774   6.016  1.00  0.00     0.229 C 
HETATM    2  N   UNL     1      42.178 -10.740   5.969  1.00  0.00    -0.351 N 
HETATM    3  C   UNL     1      41.958 -11.832   5.015  1.00  0.00     0.132 C 
HETATM    4  C   UNL     1      43.253 -12.571   4.672  1.00  0.00     0.021 C 
HETATM    5  C   UNL     1      43.866 -13.118   5.966  1.00  0.00     0.009 C 
HETATM    6  C   UNL     1      44.177 -11.957   6.898  1.00  0.00     0.020 C 
HETATM    7  C   UNL     1      42.963 -11.070   7.159  1.00  0.00     0.126 C 
HETATM    8  O   UNL     1      40.148  -9.896   5.307  1.00  0.00    -0.273 OA
ENDROOT
BRANCH   1   9
HETATM    9  C   UNL     1      41.388  -8.468   6.766  1.00  0.00     0.185 C 
BRANCH   9  10
HETATM   10  S   UNL     1      40.563  -8.264   8.353  1.00  0.00    -0.082 SA
BRANCH  10  11
HETATM   11  C   UNL     1      41.308  -6.851   9.019  1.00  0.00     0.173 A 
HETATM   12  N   UNL     1      42.542  -6.843   9.664  1.00  0.00    -0.299 N 
HETATM   13  C   UNL     1      42.700  -5.543  10.109  1.00  0.00     0.118 A 
HETATM   14  C   UNL     1      41.575  -4.858   9.721  1.00  0.00     0.137 A 
HETATM   15  N   UNL     1      40.719  -5.678   9.046  1.00  0.00    -0.235 NA
BRANCH  12  16
HETATM   16  C   UNL     1      43.487  -7.902   9.840  1.00  0.00     0.047 A 
HETATM   17  C   UNL     1      44.515  -8.048   8.887  1.00  0.00     0.037 A 
HETATM   18  C   UNL     1      45.462  -9.075   8.985  1.00  0.00    -0.060 A 
HETATM   19  C   UNL     1      46.527  -9.246   7.941  1.00  0.00     0.048 C 
HETATM   20  C   UNL     1      45.404  -9.944  10.072  1.00  0.00     0.007 A 
HETATM   21  C   UNL     1      44.408  -9.797  11.038  1.00  0.00     0.009 A 
HETATM   22  C   UNL     1      43.424  -8.795  10.932  1.00  0.00    -0.035 A 
HETATM   23  C   UNL     1      42.351  -8.784  11.988  1.00  0.00     0.050 C 
ENDBRANCH  12  16
ENDBRANCH  10  11
ENDBRANCH   9  10
ENDBRANCH   1   9
BRANCH   4  24
HETATM   24  C   UNL     1      43.002 -13.676   3.643  1.00  0.00     0.130 C 
BRANCH  24  25
HETATM   25  N   UNL     1      41.985 -14.608   4.099  1.00  0.00    -0.342 N 
HETATM   26  C   UNL     1      42.002 -15.969   4.159  1.00  0.00     0.320 C 
HETATM   27  N   UNL     1      43.110 -16.574   3.636  1.00  0.00    -0.309 N 
HETATM   28  O   UNL     1      41.035 -16.524   4.671  1.00  0.00    -0.247 OA
HETATM   29  H   UNL     1      43.826 -15.962   3.285  1.00  0.00     0.170 HD
HETATM   30  H   UNL     1      41.174 -14.238   4.583  1.00  0.00     0.164 HD
BRANCH  27  31
HETATM   31  C   UNL     1      43.380 -17.957   3.553  1.00  0.00     0.039 A 
HETATM   32  C   UNL     1      43.902 -18.715   4.602  1.00  0.00     0.071 A 
HETATM   33  C   UNL     1      44.132 -20.077   4.423  1.00  0.00     0.118 A 
HETATM   34  F   UNL     1      44.634 -20.799   5.433  1.00  0.00    -0.206 F 
HETATM   35  C   UNL     1      43.850 -20.706   3.216  1.00  0.00     0.042 A 
HETATM   36  C   UNL     1      43.329 -19.960   2.164  1.00  0.00     0.005 A 
HETATM   37  C   UNL     1      43.096 -18.591   2.334  1.00  0.00     0.030 A 
ENDBRANCH  27  31
ENDBRANCH  24  25
ENDBRANCH   4  24
TORSDOF 7
ENDMDL
MODEL 2
REMARK VINA RESULT:      -9.2      0.802      1.141
REMARK  7 active torsions:
REMARK  status: ('A' for Active; 'I' for Inactive)
REMARK    1  A    between atoms: C_4  and  N_5 
REMARK    2  A    between atoms: C_6  and  S_7 
REMARK    3  A    between atoms: S_7  and  C_8 
REMARK    4  A    between atoms: C_8  and  C_9 
REMARK       I    between atoms: C_9  and  N_10 
REMARK    5  A    between atoms: C_12  and  C_13 
REMARK    6  A    between atoms: C_13  and  N_14 
REMARK       I    between atoms: N_14  and  C_15 
REMARK       I    between atoms: C_15  and  N_16 
REMARK    7  A    between atoms: N_16  and  C_17 
ROOT
HETATM    1  C   UNL     1      40.865  -9.950   6.320  1.00  0.00     0.229 C 
HETATM    2  N   UNL     1      41.986 -10.791   6.190  1.00  0.00    -0.351 N 
HETATM    3  C   UNL     1      41.788 -11.963   5.332  1.00  0.00     0.132 C 
HETATM    4  C   UNL     1      43.112 -12.568   4.862  1.00  0.00     0.021 C 
HETATM    5  C   UNL     1      43.942 -12.952   6.092  1.00  0.00     0.009 C 
HETATM    6  C   UNL     1      44.220 -11.701   6.912  1.00  0.00     0.020 C 
HETATM    7  C   UNL     1      42.947 -10.947   7.283  1.00  0.00     0.126 C 
HETATM    8  O   UNL     1      39.801 -10.235   5.756  1.00  0.00    -0.273 OA
ENDROOT
BRANCH   1   9
HETATM    9  C   UNL     1      41.025  -8.578   6.964  1.00  0.00     0.185 C 
BRANCH   9  10
HETATM   10  S   UNL     1      40.424  -8.376   8.648  1.00  0.00    -0.082 SA
BRANCH  10  11
HETATM   11  C   UNL     1      41.162  -6.901   9.169  1.00  0.00     0.173 A 
HETATM   12  N   UNL     1      42.433  -6.812   9.732  1.00  0.00    -0.299 N 
HETATM   13  C   UNL     1      42.575  -5.482  10.078  1.00  0.00     0.118 A 
HETATM   14  C   UNL     1      41.406  -4.857   9.719  1.00  0.00     0.137 A 
HETATM   15  N   UNL     1      40.537  -5.745   9.156  1.00  0.00    -0.235 NA
BRANCH  12  16
HETATM   16  C   UNL     1      43.421  -7.830   9.917  1.00  0.00     0.047 A 
HETATM   17  C   UNL     1      44.415  -7.985   8.930  1.00  0.00     0.037 A 
HETATM   18  C   UNL     1      45.402  -8.974   9.036  1.00  0.00    -0.060 A 
HETATM   19  C   UNL     1      46.430  -9.158   7.958  1.00  0.00     0.048 C 
HETATM   20  C   UNL     1      45.418  -9.792  10.163  1.00  0.00     0.007 A 
HETATM   21  C   UNL     1      44.456  -9.634  11.161  1.00  0.00     0.009 A 
HETATM   22  C   UNL     1      43.434  -8.672  11.050  1.00  0.00    -0.035 A 
HETATM   23  C   UNL     1      42.404  -8.647  12.148  1.00  0.00     0.050 C 
ENDBRANCH  12  16
ENDBRANCH  10  11
ENDBRANCH   9  10
ENDBRANCH   1   9
BRANCH   4  24
HETATM   24  C   UNL     1      42.875 -13.762   3.933  1.00  0.00     0.130 C 
BRANCH  24  25
HETATM   25  N   UNL     1      41.990 -14.741   4.540  1.00  0.00    -0.342 N 
HETATM   26  C   UNL     1      42.060 -16.103   4.553  1.00  0.00     0.320 C 
HETATM   27  N   UNL     1      43.070 -16.653   3.814  1.00  0.00    -0.309 N 
HETATM   28  O   UNL     1      41.224 -16.705   5.217  1.00  0.00    -0.247 OA
HETATM   29  H   UNL     1      43.688 -16.006   3.356  1.00  0.00     0.170 HD
HETATM   30  H   UNL     1      41.273 -14.414   5.177  1.00  0.00     0.164 HD
BRANCH  27  31
HETATM   31  C   UNL     1      43.362 -18.022   3.638  1.00  0.00     0.039 A 
HETATM   32  C   UNL     1      43.167 -18.716   2.444  1.00  0.00     0.071 A 
HETATM   33  C   UNL     1      43.488 -20.069   2.369  1.00  0.00     0.118 A 
HETATM   34  F   UNL     1      43.296 -20.730   1.220  1.00  0.00    -0.206 F 
HETATM   35  C   UNL     1      44.006 -20.751   3.464  1.00  0.00     0.042 A 
HETATM   36  C   UNL     1      44.206 -20.069   4.660  1.00  0.00     0.005 A 
HETATM   37  C   UNL     1      43.885 -18.710   4.744  1.00  0.00     0.030 A 
ENDBRANCH  27  31
ENDBRANCH  24  25
ENDBRANCH   4  24
TORSDOF 7
ENDMDL
MODEL 3
REMARK VINA RESULT:      -9.1      4.279     10.417
REMARK  7 active torsions:
REMARK  status: ('A' for Active; 'I' for Inactive)
REMARK    1  A    between atoms: C_4  and  N_5 
REMARK    2  A    between atoms: C_6  and  S_7 
REMARK    3  A    between atoms: S_7  and  C_8 
REMARK    4  A    between atoms: C_8  and  C_9 
REMARK       I    between atoms: C_9  and  N_10 
REMARK    5  A    between atoms: C_12  and  C_13 
REMARK    6  A    between atoms: C_13  and  N_14 
REMARK       I    between atoms: N_14  and  C_15 
REMARK       I    between atoms: C_15  and  N_16 
REMARK    7  A    between atoms: N_16  and  C_17 
ROOT
HETATM    1  C   UNL     1      41.617 -10.923   3.894  1.00  0.00     0.229 C 
HETATM    2  N   UNL     1      42.305 -11.490   4.984  1.00  0.00    -0.351 N 
HETATM    3  C   UNL     1      42.745 -10.535   6.006  1.00  0.00     0.132 C 
HETATM    4  C   UNL     1      43.059 -11.217   7.339  1.00  0.00     0.021 C 
HETATM    5  C   UNL     1      44.143 -12.276   7.108  1.00  0.00     0.009 C 
HETATM    6  C   UNL     1      43.624 -13.310   6.120  1.00  0.00     0.020 C 
HETATM    7  C   UNL     1      43.135 -12.684   4.817  1.00  0.00     0.126 C 
HETATM    8  O   UNL     1      41.445  -9.699   3.833  1.00  0.00    -0.273 OA
ENDROOT
BRANCH   1   9
HETATM    9  C   UNL     1      40.888 -11.831   2.911  1.00  0.00     0.185 C 
BRANCH   9  10
HETATM   10  S   UNL     1      41.807 -12.402   1.472  1.00  0.00    -0.082 SA
BRANCH  10  11
HETATM   11  C   UNL     1      40.813 -13.665   0.831  1.00  0.00     0.173 A 
HETATM   12  N   UNL     1      40.712 -14.942   1.379  1.00  0.00    -0.299 N 
HETATM   13  C   UNL     1      39.896 -15.638   0.507  1.00  0.00     0.118 A 
HETATM   14  C   UNL     1      39.563 -14.764  -0.498  1.00  0.00     0.137 A 
HETATM   15  N   UNL     1      40.136 -13.544  -0.287  1.00  0.00    -0.235 NA
BRANCH  12  16
HETATM   16  C   UNL     1      41.284 -15.466   2.581  1.00  0.00     0.047 A 
HETATM   17  C   UNL     1      40.503 -15.457   3.754  1.00  0.00     0.037 A 
HETATM   18  C   UNL     1      41.005 -15.935   4.971  1.00  0.00    -0.060 A 
HETATM   19  C   UNL     1      40.179 -15.881   6.223  1.00  0.00     0.048 C 
HETATM   20  C   UNL     1      42.292 -16.468   5.006  1.00  0.00     0.007 A 
HETATM   21  C   UNL     1      43.069 -16.508   3.847  1.00  0.00     0.009 A 
HETATM   22  C   UNL     1      42.593 -15.993   2.626  1.00  0.00    -0.035 A 
HETATM   23  C   UNL     1      43.548 -16.015   1.463  1.00  0.00     0.050 C 
ENDBRANCH  12  16
ENDBRANCH  10  11
ENDBRANCH   9  10
ENDBRANCH   1   9
BRANCH   4  24
HETATM   24  C   UNL     1      43.472 -10.193   8.400  1.00  0.00     0.130 C 
BRANCH  24  25
HETATM   25  N   UNL     1      43.983 -10.841   9.596  1.00  0.00    -0.342 N 
HETATM   26  C   UNL     1      43.724 -10.592  10.910  1.00  0.00     0.320 C 
HETATM   27  N   UNL     1      42.925  -9.513  11.165  1.00  0.00    -0.309 N 
HETATM   28  O   UNL     1      44.224 -11.347  11.737  1.00  0.00    -0.247 OA
HETATM   29  H   UNL     1      42.573  -9.021  10.362  1.00  0.00     0.170 HD
HETATM   30  H   UNL     1      44.508 -11.703   9.491  1.00  0.00     0.164 HD
BRANCH  27  31
HETATM   31  C   UNL     1      42.514  -9.023  12.422  1.00  0.00     0.039 A 
HETATM   32  C   UNL     1      43.228  -8.083  13.166  1.00  0.00     0.071 A 
HETATM   33  C   UNL     1      42.738  -7.659  14.399  1.00  0.00     0.118 A 
HETATM   34  F   UNL     1      43.431  -6.758  15.109  1.00  0.00    -0.206 F 
HETATM   35  C   UNL     1      41.543  -8.150  14.910  1.00  0.00     0.042 A 
HETATM   36  C   UNL     1      40.822  -9.087  14.177  1.00  0.00     0.005 A 
HETATM   37  C   UNL     1      41.306  -9.519  12.939  1.00  0.00     0.030 A 
ENDBRANCH  27  31
ENDBRANCH  24  25
ENDBRANCH   4  24
TORSDOF 7
ENDMDL
MODEL 4
REMARK VINA RESULT:      -8.7      1.912      3.241
REMARK  7 active torsions:
REMARK  status: ('A' for Active; 'I' for Inactive)
REMARK    1  A    between atoms: C_4  and  N_5 
REMARK    2  A    between atoms: C_6  and  S_7 
REMARK    3  A    between atoms: S_7  and  C_8 
REMARK    4  A    between atoms: C_8  and  C_9 
REMARK       I    between atoms: C_9  and  N_10 
REMARK    5  A    between atoms: C_12  and  C_13 
REMARK    6  A    between atoms: C_13  and  N_14 
REMARK       I    between atoms: N_14  and  C_15 
REMARK       I    between atoms: C_15  and  N_16 
REMARK    7  A    between atoms: N_16  and  C_17 
ROOT
HETATM    1  C   UNL     1      40.448  -9.762   6.707  1.00  0.00     0.229 C 
HETATM    2  N   UNL     1      40.800 -10.310   5.459  1.00  0.00    -0.351 N 
HETATM    3  C   UNL     1      40.347 -11.685   5.233  1.00  0.00     0.132 C 
HETATM    4  C   UNL     1      40.343 -12.058   3.749  1.00  0.00     0.021 C 
HETATM    5  C   UNL     1      41.758 -11.873   3.191  1.00  0.00     0.009 C 
HETATM    6  C   UNL     1      42.166 -10.416   3.346  1.00  0.00     0.020 C 
HETATM    7  C   UNL     1      42.038  -9.919   4.783  1.00  0.00     0.126 C 
HETATM    8  O   UNL     1      39.826 -10.441   7.534  1.00  0.00    -0.273 OA
ENDROOT
BRANCH   1   9
HETATM    9  C   UNL     1      40.631  -8.269   6.952  1.00  0.00     0.185 C 
BRANCH   9  10
HETATM   10  S   UNL     1      42.230  -7.719   7.568  1.00  0.00    -0.082 SA
BRANCH  10  11
HETATM   11  C   UNL     1      42.391  -8.550   9.078  1.00  0.00     0.173 A 
HETATM   12  N   UNL     1      43.105  -9.733   9.253  1.00  0.00    -0.299 N 
HETATM   13  C   UNL     1      42.891 -10.083  10.573  1.00  0.00     0.118 A 
HETATM   14  C   UNL     1      42.073  -9.118  11.105  1.00  0.00     0.137 A 
HETATM   15  N   UNL     1      41.769  -8.172  10.171  1.00  0.00    -0.235 NA
BRANCH  12  16
HETATM   16  C   UNL     1      43.914 -10.456   8.321  1.00  0.00     0.047 A 
HETATM   17  C   UNL     1      43.353 -11.574   7.674  1.00  0.00     0.037 A 
HETATM   18  C   UNL     1      44.094 -12.340   6.765  1.00  0.00    -0.060 A 
HETATM   19  C   UNL     1      43.500 -13.555   6.114  1.00  0.00     0.048 C 
HETATM   20  C   UNL     1      45.401 -11.959   6.469  1.00  0.00     0.007 A 
HETATM   21  C   UNL     1      45.962 -10.838   7.082  1.00  0.00     0.009 A 
HETATM   22  C   UNL     1      45.244 -10.082   8.029  1.00  0.00    -0.035 A 
HETATM   23  C   UNL     1      45.979  -8.944   8.686  1.00  0.00     0.050 C 
ENDBRANCH  12  16
ENDBRANCH  10  11
ENDBRANCH   9  10
ENDBRANCH   1   9
BRANCH   4  24
HETATM   24  C   UNL     1      39.824 -13.484   3.539  1.00  0.00     0.130 C 
BRANCH  24  25
HETATM   25  N   UNL     1      40.338 -14.062   2.310  1.00  0.00    -0.342 N 
HETATM   26  C   UNL     1      41.153 -15.137   2.117  1.00  0.00     0.320 C 
HETATM   27  N   UNL     1      41.638 -15.727   3.250  1.00  0.00    -0.309 N 
HETATM   28  O   UNL     1      41.376 -15.477   0.960  1.00  0.00    -0.247 OA
HETATM   29  H   UNL     1      41.325 -15.337   4.122  1.00  0.00     0.170 HD
HETATM   30  H   UNL     1      39.956 -13.739   1.428  1.00  0.00     0.164 HD
BRANCH  27  31
HETATM   31  C   UNL     1      42.506 -16.835   3.341  1.00  0.00     0.039 A 
HETATM   32  C   UNL     1      42.564 -17.863   2.399  1.00  0.00     0.071 A 
HETATM   33  C   UNL     1      43.458 -18.916   2.577  1.00  0.00     0.118 A 
HETATM   34  F   UNL     1      43.506 -19.900   1.669  1.00  0.00    -0.206 F 
HETATM   35  C   UNL     1      44.304 -18.968   3.678  1.00  0.00     0.042 A 
HETATM   36  C   UNL     1      44.256 -17.949   4.624  1.00  0.00     0.005 A 
HETATM   37  C   UNL     1      43.361 -16.888   4.454  1.00  0.00     0.030 A 
ENDBRANCH  27  31
ENDBRANCH  24  25
ENDBRANCH   4  24
TORSDOF 7
ENDMDL
MODEL 5
REMARK VINA RESULT:      -8.7      4.312      8.107
REMARK  7 active torsions:
REMARK  status: ('A' for Active; 'I' for Inactive)
REMARK    1  A    between atoms: C_4  and  N_5 
REMARK    2  A    between atoms: C_6  and  S_7 
REMARK    3  A    between atoms: S_7  and  C_8 
REMARK    4  A    between atoms: C_8  and  C_9 
REMARK       I    between atoms: C_9  and  N_10 
REMARK    5  A    between atoms: C_12  and  C_13 
REMARK    6  A    between atoms: C_13  and  N_14 
REMARK       I    between atoms: N_14  and  C_15 
REMARK       I    between atoms: C_15  and  N_16 
REMARK    7  A    between atoms: N_16  and  C_17 
ROOT
HETATM    1  C   UNL     1      39.859 -11.302   4.468  1.00  0.00     0.229 C 
HETATM    2  N   UNL     1      41.249 -11.517   4.521  1.00  0.00    -0.351 N 
HETATM    3  C   UNL     1      41.738 -12.121   5.764  1.00  0.00     0.132 C 
HETATM    4  C   UNL     1      43.126 -12.744   5.599  1.00  0.00     0.021 C 
HETATM    5  C   UNL     1      44.099 -11.660   5.123  1.00  0.00     0.009 C 
HETATM    6  C   UNL     1      43.624 -11.121   3.783  1.00  0.00     0.020 C 
HETATM    7  C   UNL     1      42.181 -10.628   3.825  1.00  0.00     0.126 C 
HETATM    8  O   UNL     1      39.146 -11.589   5.437  1.00  0.00    -0.273 OA
ENDROOT
BRANCH   1   9
HETATM    9  C   UNL     1      39.206 -10.929   3.142  1.00  0.00     0.185 C 
BRANCH   9  10
HETATM   10  S   UNL     1      38.385 -12.241   2.224  1.00  0.00    -0.082 SA
BRANCH  10  11
HETATM   11  C   UNL     1      39.585 -13.485   2.133  1.00  0.00     0.173 A 
HETATM   12  N   UNL     1      40.153 -13.946   0.948  1.00  0.00    -0.299 N 
HETATM   13  C   UNL     1      40.977 -14.987   1.332  1.00  0.00     0.118 A 
HETATM   14  C   UNL     1      40.857 -15.097   2.696  1.00  0.00     0.137 A 
HETATM   15  N   UNL     1      39.993 -14.162   3.182  1.00  0.00    -0.235 NA
BRANCH  12  16
HETATM   16  C   UNL     1      39.978 -13.473  -0.391  1.00  0.00     0.047 A 
HETATM   17  C   UNL     1      39.243 -14.270  -1.292  1.00  0.00     0.037 A 
HETATM   18  C   UNL     1      39.050 -13.879  -2.623  1.00  0.00    -0.060 A 
HETATM   19  C   UNL     1      38.303 -14.755  -3.585  1.00  0.00     0.048 C 
HETATM   20  C   UNL     1      39.565 -12.656  -3.048  1.00  0.00     0.007 A 
HETATM   21  C   UNL     1      40.273 -11.844  -2.161  1.00  0.00     0.009 A 
HETATM   22  C   UNL     1      40.511 -12.242  -0.831  1.00  0.00    -0.035 A 
HETATM   23  C   UNL     1      41.356 -11.324   0.010  1.00  0.00     0.050 C 
ENDBRANCH  12  16
ENDBRANCH  10  11
ENDBRANCH   9  10
ENDBRANCH   1   9
BRANCH   4  24
HETATM   24  C   UNL     1      43.593 -13.405   6.899  1.00  0.00     0.130 C 
BRANCH  24  25
HETATM   25  N   UNL     1      42.746 -14.530   7.259  1.00  0.00    -0.342 N 
HETATM   26  C   UNL     1      42.702 -15.795   6.754  1.00  0.00     0.320 C 
HETATM   27  N   UNL     1      43.519 -16.037   5.685  1.00  0.00    -0.309 N 
HETATM   28  O   UNL     1      41.944 -16.593   7.295  1.00  0.00    -0.247 OA
HETATM   29  H   UNL     1      44.102 -15.273   5.389  1.00  0.00     0.170 HD
HETATM   30  H   UNL     1      42.180 -14.458   8.097  1.00  0.00     0.164 HD
BRANCH  27  31
HETATM   31  C   UNL     1      43.660 -17.241   4.964  1.00  0.00     0.039 A 
HETATM   32  C   UNL     1      44.052 -18.453   5.534  1.00  0.00     0.071 A 
HETATM   33  C   UNL     1      44.160 -19.590   4.737  1.00  0.00     0.118 A 
HETATM   34  F   UNL     1      44.539 -20.750   5.291  1.00  0.00    -0.206 F 
HETATM   35  C   UNL     1      43.883 -19.548   3.376  1.00  0.00     0.042 A 
HETATM   36  C   UNL     1      43.490 -18.346   2.796  1.00  0.00     0.005 A 
HETATM   37  C   UNL     1      43.380 -17.199   3.589  1.00  0.00     0.030 A 
ENDBRANCH  27  31
ENDBRANCH  24  25
ENDBRANCH   4  24
TORSDOF 7
ENDMDL
MODEL 6
REMARK VINA RESULT:      -8.7      4.119      7.647
REMARK  7 active torsions:
REMARK  status: ('A' for Active; 'I' for Inactive)
REMARK    1  A    between atoms: C_4  and  N_5 
REMARK    2  A    between atoms: C_6  and  S_7 
REMARK    3  A    between atoms: S_7  and  C_8 
REMARK    4  A    between atoms: C_8  and  C_9 
REMARK       I    between atoms: C_9  and  N_10 
REMARK    5  A    between atoms: C_12  and  C_13 
REMARK    6  A    between atoms: C_13  and  N_14 
REMARK       I    between atoms: N_14  and  C_15 
REMARK       I    between atoms: C_15  and  N_16 
REMARK    7  A    between atoms: N_16  and  C_17 
ROOT
HETATM    1  C   UNL     1      39.225 -10.867   3.098  1.00  0.00     0.229 C 
HETATM    2  N   UNL     1      40.409 -10.850   3.859  1.00  0.00    -0.351 N 
HETATM    3  C   UNL     1      40.925 -12.169   4.235  1.00  0.00     0.132 C 
HETATM    4  C   UNL     1      42.400 -12.122   4.639  1.00  0.00     0.021 C 
HETATM    5  C   UNL     1      42.560 -11.142   5.807  1.00  0.00     0.009 C 
HETATM    6  C   UNL     1      42.113  -9.759   5.359  1.00  0.00     0.020 C 
HETATM    7  C   UNL     1      40.698  -9.755   4.786  1.00  0.00     0.126 C 
HETATM    8  O   UNL     1      38.678 -11.940   2.818  1.00  0.00    -0.273 OA
ENDROOT
BRANCH   1   9
HETATM    9  C   UNL     1      38.742  -9.584   2.430  1.00  0.00     0.185 C 
BRANCH   9  10
HETATM   10  S   UNL     1      38.305  -9.671   0.686  1.00  0.00    -0.082 SA
BRANCH  10  11
HETATM   11  C   UNL     1      39.824  -9.495  -0.122  1.00  0.00     0.173 A 
HETATM   12  N   UNL     1      40.565 -10.554  -0.644  1.00  0.00    -0.299 N 
HETATM   13  C   UNL     1      41.731  -9.974  -1.108  1.00  0.00     0.118 A 
HETATM   14  C   UNL     1      41.634  -8.631  -0.840  1.00  0.00     0.137 A 
HETATM   15  N   UNL     1      40.448  -8.345  -0.230  1.00  0.00    -0.235 NA
BRANCH  12  16
HETATM   16  C   UNL     1      40.235 -11.943  -0.729  1.00  0.00     0.047 A 
HETATM   17  C   UNL     1      40.740 -12.813   0.257  1.00  0.00     0.037 A 
HETATM   18  C   UNL     1      40.474 -14.188   0.224  1.00  0.00    -0.060 A 
HETATM   19  C   UNL     1      41.054 -15.112   1.255  1.00  0.00     0.048 C 
HETATM   20  C   UNL     1      39.658 -14.693  -0.785  1.00  0.00     0.007 A 
HETATM   21  C   UNL     1      39.128 -13.840  -1.755  1.00  0.00     0.009 A 
HETATM   22  C   UNL     1      39.420 -12.463  -1.759  1.00  0.00    -0.035 A 
HETATM   23  C   UNL     1      38.860 -11.655  -2.899  1.00  0.00     0.050 C 
ENDBRANCH  12  16
ENDBRANCH  10  11
ENDBRANCH   9  10
ENDBRANCH   1   9
BRANCH   4  24
HETATM   24  C   UNL     1      42.923 -13.519   4.985  1.00  0.00     0.130 C 
BRANCH  24  25
HETATM   25  N   UNL     1      41.849 -14.496   5.021  1.00  0.00    -0.342 N 
HETATM   26  C   UNL     1      41.864 -15.831   4.749  1.00  0.00     0.320 C 
HETATM   27  N   UNL     1      43.050 -16.330   4.290  1.00  0.00    -0.309 N 
HETATM   28  O   UNL     1      40.828 -16.458   4.939  1.00  0.00    -0.247 OA
HETATM   29  H   UNL     1      43.812 -15.678   4.225  1.00  0.00     0.170 HD
HETATM   30  H   UNL     1      40.964 -14.225   5.436  1.00  0.00     0.164 HD
BRANCH  27  31
HETATM   31  C   UNL     1      43.340 -17.661   3.919  1.00  0.00     0.039 A 
HETATM   32  C   UNL     1      43.950 -18.592   4.760  1.00  0.00     0.071 A 
HETATM   33  C   UNL     1      44.193 -19.884   4.301  1.00  0.00     0.118 A 
HETATM   34  F   UNL     1      44.781 -20.772   5.114  1.00  0.00    -0.206 F 
HETATM   35  C   UNL     1      43.836 -20.274   3.016  1.00  0.00     0.042 A 
HETATM   36  C   UNL     1      43.227 -19.355   2.169  1.00  0.00     0.005 A 
HETATM   37  C   UNL     1      42.980 -18.055   2.620  1.00  0.00     0.030 A 
ENDBRANCH  27  31
ENDBRANCH  24  25
ENDBRANCH   4  24
TORSDOF 7
ENDMDL
MODEL 7
REMARK VINA RESULT:      -8.5      2.433      4.080
REMARK  7 active torsions:
REMARK  status: ('A' for Active; 'I' for Inactive)
REMARK    1  A    between atoms: C_4  and  N_5 
REMARK    2  A    between atoms: C_6  and  S_7 
REMARK    3  A    between atoms: S_7  and  C_8 
REMARK    4  A    between atoms: C_8  and  C_9 
REMARK       I    between atoms: C_9  and  N_10 
REMARK    5  A    between atoms: C_12  and  C_13 
REMARK    6  A    between atoms: C_13  and  N_14 
REMARK       I    between atoms: N_14  and  C_15 
REMARK       I    between atoms: C_15  and  N_16 
REMARK    7  A    between atoms: N_16  and  C_17 
ROOT
HETATM    1  C   UNL     1      42.918  -8.848   8.143  1.00  0.00     0.229 C 
HETATM    2  N   UNL     1      43.710  -9.802   7.476  1.00  0.00    -0.351 N 
HETATM    3  C   UNL     1      42.971 -10.732   6.617  1.00  0.00     0.132 C 
HETATM    4  C   UNL     1      43.876 -11.418   5.592  1.00  0.00     0.021 C 
HETATM    5  C   UNL     1      44.990 -12.162   6.337  1.00  0.00     0.009 C 
HETATM    6  C   UNL     1      45.804 -11.160   7.141  1.00  0.00     0.020 C 
HETATM    7  C   UNL     1      44.942 -10.317   8.076  1.00  0.00     0.126 C 
HETATM    8  O   UNL     1      41.689  -8.852   8.007  1.00  0.00    -0.273 OA
ENDROOT
BRANCH   1   9
HETATM    9  C   UNL     1      43.589  -7.675   8.848  1.00  0.00     0.185 C 
BRANCH   9  10
HETATM   10  S   UNL     1      42.894  -7.144  10.421  1.00  0.00    -0.082 SA
BRANCH  10  11
HETATM   11  C   UNL     1      42.806  -8.607  11.340  1.00  0.00     0.173 A 
HETATM   12  N   UNL     1      42.041  -8.767  12.493  1.00  0.00    -0.299 N 
HETATM   13  C   UNL     1      42.339 -10.041  12.941  1.00  0.00     0.118 A 
HETATM   14  C   UNL     1      43.251 -10.563  12.057  1.00  0.00     0.137 A 
HETATM   15  N   UNL     1      43.533  -9.667  11.069  1.00  0.00    -0.235 NA
BRANCH  12  16
HETATM   16  C   UNL     1      41.120  -7.863  13.109  1.00  0.00     0.047 A 
HETATM   17  C   UNL     1      39.804  -7.804  12.611  1.00  0.00     0.037 A 
HETATM   18  C   UNL     1      38.856  -6.927  13.154  1.00  0.00    -0.060 A 
HETATM   19  C   UNL     1      37.468  -6.842  12.587  1.00  0.00     0.048 C 
HETATM   20  C   UNL     1      39.218  -6.126  14.235  1.00  0.00     0.007 A 
HETATM   21  C   UNL     1      40.511  -6.191  14.756  1.00  0.00     0.009 A 
HETATM   22  C   UNL     1      41.487  -7.038  14.196  1.00  0.00    -0.035 A 
HETATM   23  C   UNL     1      42.869  -6.964  14.788  1.00  0.00     0.050 C 
ENDBRANCH  12  16
ENDBRANCH  10  11
ENDBRANCH   9  10
ENDBRANCH   1   9
BRANCH   4  24
HETATM   24  C   UNL     1      43.072 -12.350   4.681  1.00  0.00     0.130 C 
BRANCH  24  25
HETATM   25  N   UNL     1      42.397 -13.387   5.443  1.00  0.00    -0.342 N 
HETATM   26  C   UNL     1      42.438 -14.743   5.312  1.00  0.00     0.320 C 
HETATM   27  N   UNL     1      43.158 -15.216   4.252  1.00  0.00    -0.309 N 
HETATM   28  O   UNL     1      41.834 -15.409   6.146  1.00  0.00    -0.247 OA
HETATM   29  H   UNL     1      43.618 -14.527   3.684  1.00  0.00     0.170 HD
HETATM   30  H   UNL     1      41.918 -13.123   6.297  1.00  0.00     0.164 HD
BRANCH  27  31
HETATM   31  C   UNL     1      43.352 -16.562   3.874  1.00  0.00     0.039 A 
HETATM   32  C   UNL     1      44.039 -17.499   4.646  1.00  0.00     0.071 A 
HETATM   33  C   UNL     1      44.176 -18.807   4.187  1.00  0.00     0.118 A 
HETATM   34  F   UNL     1      44.839 -19.701   4.933  1.00  0.00    -0.206 F 
HETATM   35  C   UNL     1      43.639 -19.206   2.969  1.00  0.00     0.042 A 
HETATM   36  C   UNL     1      42.951 -18.281   2.191  1.00  0.00     0.005 A 
HETATM   37  C   UNL     1      42.809 -16.965   2.644  1.00  0.00     0.030 A 
ENDBRANCH  27  31
ENDBRANCH  24  25
ENDBRANCH   4  24
TORSDOF 7
ENDMDL
MODEL 8
REMARK VINA RESULT:      -8.5      4.148     10.861
REMARK  7 active torsions:
REMARK  status: ('A' for Active; 'I' for Inactive)
REMARK    1  A    between atoms: C_4  and  N_5 
REMARK    2  A    between atoms: C_6  and  S_7 
REMARK    3  A    between atoms: S_7  and  C_8 
REMARK    4  A    between atoms: C_8  and  C_9 
REMARK       I    between atoms: C_9  and  N_10 
REMARK    5  A    between atoms: C_12  and  C_13 
REMARK    6  A    between atoms: C_13  and  N_14 
REMARK       I    between atoms: N_14  and  C_15 
REMARK       I    between atoms: C_15  and  N_16 
REMARK    7  A    between atoms: N_16  and  C_17 
ROOT
HETATM    1  C   UNL     1      43.041 -11.500   4.362  1.00  0.00     0.229 C 
HETATM    2  N   UNL     1      41.882 -11.168   5.090  1.00  0.00    -0.351 N 
HETATM    3  C   UNL     1      42.124 -10.477   6.360  1.00  0.00     0.132 C 
HETATM    4  C   UNL     1      40.878  -9.748   6.870  1.00  0.00     0.021 C 
HETATM    5  C   UNL     1      39.743 -10.766   7.032  1.00  0.00     0.009 C 
HETATM    6  C   UNL     1      39.444 -11.395   5.679  1.00  0.00     0.020 C 
HETATM    7  C   UNL     1      40.682 -12.004   5.027  1.00  0.00     0.126 C 
HETATM    8  O   UNL     1      44.161 -11.235   4.816  1.00  0.00    -0.273 OA
ENDROOT
BRANCH   1   9
HETATM    9  C   UNL     1      42.911 -11.977   2.920  1.00  0.00     0.185 C 
BRANCH   9  10
HETATM   10  S   UNL     1      43.274 -13.707   2.583  1.00  0.00    -0.082 SA
BRANCH  10  11
HETATM   11  C   UNL     1      41.710 -14.441   2.500  1.00  0.00     0.173 A 
HETATM   12  N   UNL     1      41.455 -15.784   2.772  1.00  0.00    -0.299 N 
HETATM   13  C   UNL     1      40.111 -15.951   2.494  1.00  0.00     0.118 A 
HETATM   14  C   UNL     1      39.643 -14.731   2.074  1.00  0.00     0.137 A 
HETATM   15  N   UNL     1      40.641 -13.802   2.081  1.00  0.00    -0.235 NA
BRANCH  12  16
HETATM   16  C   UNL     1      42.338 -16.800   3.253  1.00  0.00     0.047 A 
HETATM   17  C   UNL     1      42.661 -17.870   2.394  1.00  0.00     0.037 A 
HETATM   18  C   UNL     1      43.503 -18.910   2.806  1.00  0.00    -0.060 A 
HETATM   19  C   UNL     1      43.805 -20.066   1.897  1.00  0.00     0.048 C 
HETATM   20  C   UNL     1      44.063 -18.859   4.080  1.00  0.00     0.007 A 
HETATM   21  C   UNL     1      43.775 -17.793   4.934  1.00  0.00     0.009 A 
HETATM   22  C   UNL     1      42.897 -16.762   4.549  1.00  0.00    -0.035 A 
HETATM   23  C   UNL     1      42.596 -15.708   5.581  1.00  0.00     0.050 C 
ENDBRANCH  12  16
ENDBRANCH  10  11
ENDBRANCH   9  10
ENDBRANCH   1   9
BRANCH   4  24
HETATM   24  C   UNL     1      41.170  -9.001   8.174  1.00  0.00     0.130 C 
BRANCH  24  25
HETATM   25  N   UNL     1      40.661  -9.723   9.327  1.00  0.00    -0.342 N 
HETATM   26  C   UNL     1      40.636  -9.373  10.644  1.00  0.00     0.320 C 
HETATM   27  N   UNL     1      41.257  -8.197  10.958  1.00  0.00    -0.309 N 
HETATM   28  O   UNL     1      40.066 -10.133  11.420  1.00  0.00    -0.247 OA
HETATM   29  H   UNL     1      41.647  -7.681  10.189  1.00  0.00     0.170 HD
HETATM   30  H   UNL     1      40.108 -10.558   9.168  1.00  0.00     0.164 HD
BRANCH  27  31
HETATM   31  C   UNL     1      41.395  -7.609  12.234  1.00  0.00     0.039 A 
HETATM   32  C   UNL     1      42.601  -7.528  12.931  1.00  0.00     0.071 A 
HETATM   33  C   UNL     1      42.635  -6.926  14.186  1.00  0.00     0.118 A 
HETATM   34  F   UNL     1      43.796  -6.853  14.851  1.00  0.00    -0.206 F 
HETATM   35  C   UNL     1      41.488  -6.396  14.766  1.00  0.00     0.042 A 
HETATM   36  C   UNL     1      40.281  -6.470  14.080  1.00  0.00     0.005 A 
HETATM   37  C   UNL     1      40.236  -7.074  12.819  1.00  0.00     0.030 A 
ENDBRANCH  27  31
ENDBRANCH  24  25
ENDBRANCH   4  24
TORSDOF 7
ENDMDL
MODEL 9
REMARK VINA RESULT:      -8.4      2.561      3.798
REMARK  7 active torsions:
REMARK  status: ('A' for Active; 'I' for Inactive)
REMARK    1  A    between atoms: C_4  and  N_5 
REMARK    2  A    between atoms: C_6  and  S_7 
REMARK    3  A    between atoms: S_7  and  C_8 
REMARK    4  A    between atoms: C_8  and  C_9 
REMARK       I    between atoms: C_9  and  N_10 
REMARK    5  A    between atoms: C_12  and  C_13 
REMARK    6  A    between atoms: C_13  and  N_14 
REMARK       I    between atoms: N_14  and  C_15 
REMARK       I    between atoms: C_15  and  N_16 
REMARK    7  A    between atoms: N_16  and  C_17 
ROOT
HETATM    1  C   UNL     1      41.380  -5.947   6.382  1.00  0.00     0.229 C 
HETATM    2  N   UNL     1      40.744  -7.168   6.092  1.00  0.00    -0.351 N 
HETATM    3  C   UNL     1      41.152  -7.797   4.831  1.00  0.00     0.132 C 
HETATM    4  C   UNL     1      40.801  -9.286   4.786  1.00  0.00     0.021 C 
HETATM    5  C   UNL     1      39.290  -9.442   4.987  1.00  0.00     0.009 C 
HETATM    6  C   UNL     1      38.908  -8.873   6.345  1.00  0.00     0.020 C 
HETATM    7  C   UNL     1      39.373  -7.432   6.530  1.00  0.00     0.126 C 
HETATM    8  O   UNL     1      42.195  -5.462   5.587  1.00  0.00    -0.273 OA
ENDROOT
BRANCH   1   9
HETATM    9  C   UNL     1      41.237  -5.337   7.772  1.00  0.00     0.185 C 
BRANCH   9  10
HETATM   10  S   UNL     1      42.201  -6.070   9.103  1.00  0.00    -0.082 SA
BRANCH  10  11
HETATM   11  C   UNL     1      41.189  -7.349   9.680  1.00  0.00     0.173 A 
HETATM   12  N   UNL     1      41.603  -8.671   9.835  1.00  0.00    -0.299 N 
HETATM   13  C   UNL     1      40.465  -9.354  10.224  1.00  0.00     0.118 A 
HETATM   14  C   UNL     1      39.452  -8.429  10.273  1.00  0.00     0.137 A 
HETATM   15  N   UNL     1      39.911  -7.190   9.935  1.00  0.00    -0.235 NA
BRANCH  12  16
HETATM   16  C   UNL     1      42.901  -9.246   9.667  1.00  0.00     0.047 A 
HETATM   17  C   UNL     1      43.199  -9.884   8.446  1.00  0.00     0.037 A 
HETATM   18  C   UNL     1      44.443 -10.486   8.220  1.00  0.00    -0.060 A 
HETATM   19  C   UNL     1      44.733 -11.200   6.932  1.00  0.00     0.048 C 
HETATM   20  C   UNL     1      45.417 -10.413   9.213  1.00  0.00     0.007 A 
HETATM   21  C   UNL     1      45.147  -9.763  10.418  1.00  0.00     0.009 A 
HETATM   22  C   UNL     1      43.888  -9.189  10.676  1.00  0.00    -0.035 A 
HETATM   23  C   UNL     1      43.684  -8.586  12.040  1.00  0.00     0.050 C 
ENDBRANCH  12  16
ENDBRANCH  10  11
ENDBRANCH   9  10
ENDBRANCH   1   9
BRANCH   4  24
HETATM   24  C   UNL     1      41.277  -9.926   3.479  1.00  0.00     0.130 C 
BRANCH  24  25
HETATM   25  N   UNL     1      42.675 -10.311   3.552  1.00  0.00    -0.342 N 
HETATM   26  C   UNL     1      43.259 -11.536   3.432  1.00  0.00     0.320 C 
HETATM   27  N   UNL     1      42.401 -12.593   3.302  1.00  0.00    -0.309 N 
HETATM   28  O   UNL     1      44.484 -11.583   3.449  1.00  0.00    -0.247 OA
HETATM   29  H   UNL     1      41.422 -12.369   3.275  1.00  0.00     0.170 HD
HETATM   30  H   UNL     1      43.377  -9.579   3.557  1.00  0.00     0.164 HD
BRANCH  27  31
HETATM   31  C   UNL     1      42.730 -13.959   3.178  1.00  0.00     0.039 A 
HETATM   32  C   UNL     1      42.801 -14.847   4.252  1.00  0.00     0.071 A 
HETATM   33  C   UNL     1      43.132 -16.181   4.027  1.00  0.00     0.118 A 
HETATM   34  F   UNL     1      43.201 -17.027   5.063  1.00  0.00    -0.206 F 
HETATM   35  C   UNL     1      43.393 -16.655   2.747  1.00  0.00     0.042 A 
HETATM   36  C   UNL     1      43.325 -15.779   1.668  1.00  0.00     0.005 A 
HETATM   37  C   UNL     1      42.994 -14.438   1.885  1.00  0.00     0.030 A 
ENDBRANCH  27  31
ENDBRANCH  24  25
ENDBRANCH   4  24
TORSDOF 7
ENDMDL
MODEL 10
REMARK VINA RESULT:      -8.4      2.354      4.036
REMARK  7 active torsions:
REMARK  status: ('A' for Active; 'I' for Inactive)
REMARK    1  A    between atoms: C_4  and  N_5 
REMARK    2  A    between atoms: C_6  and  S_7 
REMARK    3  A    between atoms: S_7  and  C_8 
REMARK    4  A    between atoms: C_8  and  C_9 
REMARK       I    between atoms: C_9  and  N_10 
REMARK    5  A    between atoms: C_12  and  C_13 
REMARK    6  A    between atoms: C_13  and  N_14 
REMARK       I    between atoms: N_14  and  C_15 
REMARK       I    between atoms: C_15  and  N_16 
REMARK    7  A    between atoms: N_16  and  C_17 
ROOT
HETATM    1  C   UNL     1      42.662  -9.121   7.671  1.00  0.00     0.229 C 
HETATM    2  N   UNL     1      43.258 -10.240   7.059  1.00  0.00    -0.351 N 
HETATM    3  C   UNL     1      42.348 -11.075   6.269  1.00  0.00     0.132 C 
HETATM    4  C   UNL     1      43.095 -11.973   5.282  1.00  0.00     0.021 C 
HETATM    5  C   UNL     1      44.074 -12.857   6.063  1.00  0.00     0.009 C 
HETATM    6  C   UNL     1      45.070 -11.969   6.793  1.00  0.00     0.020 C 
HETATM    7  C   UNL     1      44.391 -10.929   7.680  1.00  0.00     0.126 C 
HETATM    8  O   UNL     1      41.449  -8.914   7.547  1.00  0.00    -0.273 OA
ENDROOT
BRANCH   1   9
HETATM    9  C   UNL     1      43.545  -8.045   8.293  1.00  0.00     0.185 C 
BRANCH   9  10
HETATM   10  S   UNL     1      43.132  -7.491   9.954  1.00  0.00    -0.082 SA
BRANCH  10  11
HETATM   11  C   UNL     1      43.140  -8.950  10.883  1.00  0.00     0.173 A 
HETATM   12  N   UNL     1      42.246  -9.233  11.913  1.00  0.00    -0.299 N 
HETATM   13  C   UNL     1      42.671 -10.443  12.429  1.00  0.00     0.118 A 
HETATM   14  C   UNL     1      43.776 -10.811  11.702  1.00  0.00     0.137 A 
HETATM   15  N   UNL     1      44.058  -9.880  10.746  1.00  0.00    -0.235 NA
BRANCH  12  16
HETATM   16  C   UNL     1      41.112  -8.488  12.366  1.00  0.00     0.047 A 
HETATM   17  C   UNL     1      41.276  -7.621  13.465  1.00  0.00     0.037 A 
HETATM   18  C   UNL     1      40.204  -6.876  13.974  1.00  0.00    -0.060 A 
HETATM   19  C   UNL     1      40.380  -5.988  15.171  1.00  0.00     0.048 C 
HETATM   20  C   UNL     1      38.962  -6.969  13.350  1.00  0.00     0.007 A 
HETATM   21  C   UNL     1      38.790  -7.804  12.245  1.00  0.00     0.009 A 
HETATM   22  C   UNL     1      39.847  -8.590  11.747  1.00  0.00    -0.035 A 
HETATM   23  C   UNL     1      39.524  -9.514  10.603  1.00  0.00     0.050 C 
ENDBRANCH  12  16
ENDBRANCH  10  11
ENDBRANCH   9  10
ENDBRANCH   1   9
BRANCH   4  24
HETATM   24  C   UNL     1      42.119 -12.801   4.440  1.00  0.00     0.130 C 
BRANCH  24  25
HETATM   25  N   UNL     1      42.743 -13.280   3.219  1.00  0.00    -0.342 N 
HETATM   26  C   UNL     1      43.127 -14.538   2.861  1.00  0.00     0.320 C 
HETATM   27  N   UNL     1      42.985 -15.498   3.822  1.00  0.00    -0.309 N 
HETATM   28  O   UNL     1      43.559 -14.695   1.724  1.00  0.00    -0.247 OA
HETATM   29  H   UNL     1      42.581 -15.200   4.693  1.00  0.00     0.170 HD
HETATM   30  H   UNL     1      42.799 -12.649   2.427  1.00  0.00     0.164 HD
BRANCH  27  31
HETATM   31  C   UNL     1      43.316 -16.867   3.728  1.00  0.00     0.039 A 
HETATM   32  C   UNL     1      43.069 -17.655   2.604  1.00  0.00     0.071 A 
HETATM   33  C   UNL     1      43.435 -18.999   2.607  1.00  0.00     0.118 A 
HETATM   34  F   UNL     1      43.194 -19.750   1.524  1.00  0.00    -0.206 F 
HETATM   35  C   UNL     1      44.047 -19.579   3.711  1.00  0.00     0.042 A 
HETATM   36  C   UNL     1      44.299 -18.803   4.838  1.00  0.00     0.005 A 
HETATM   37  C   UNL     1      43.934 -17.453   4.844  1.00  0.00     0.030 A 
ENDBRANCH  27  31
ENDBRANCH  24  25
ENDBRANCH   4  24
TORSDOF 7
ENDMDL
