MODEL 1
REMARK VINA RESULT:      -9.6      0.000      0.000
REMARK  6 active torsions:
REMARK  status: ('A' for Active; 'I' for Inactive)
REMARK    1  A    between atoms: C_2  and  O_3 
REMARK    2  A    between atoms: C_2  and  C_10 
REMARK    3  A    between atoms: O_3  and  C_4 
REMARK       I    between atoms: C_10  and  N_11 
REMARK    4  A    between atoms: N_11  and  C_12 
REMARK    5  A    between atoms: N_13  and  C_14 
REMARK    6  A    between atoms: C_26  and  C_27 
ROOT
HETATM    1  C   UNL     1      42.063 -14.641   3.134  1.00  0.00     0.152 A 
HETATM    2  N   UNL     1      41.743 -13.318   3.406  1.00  0.00    -0.044 N 
HETATM    3  N   UNL     1      40.931 -12.769   2.456  1.00  0.00    -0.150 NA
HETATM    4  C   UNL     1      40.753 -13.755   1.567  1.00  0.00     0.099 A 
HETATM    5  C   UNL     1      41.437 -14.933   1.944  1.00  0.00     0.086 A 
ENDROOT
BRANCH   1   6
HETATM    6  N   UNL     1      42.875 -15.395   3.974  1.00  0.00    -0.309 N 
HETATM    7  C   UNL     1      42.374 -16.248   4.949  1.00  0.00     0.252 C 
HETATM    8  O   UNL     1      41.176 -16.424   5.159  1.00  0.00    -0.270 OA
HETATM    9  H   UNL     1      43.872 -15.390   3.760  1.00  0.00     0.170 HD
BRANCH   7  10
HETATM   10  C   UNL     1      43.478 -16.948   5.792  1.00  0.00     0.217 C 
HETATM   11  C   UNL     1      44.128 -15.980   6.782  1.00  0.00     0.050 C 
BRANCH  10  12
HETATM   12  O   UNL     1      44.559 -17.441   4.993  1.00  0.00    -0.337 OA
BRANCH  12  13
HETATM   13  C   UNL     1      44.319 -18.607   4.322  1.00  0.00     0.070 A 
HETATM   14  C   UNL     1      44.220 -19.758   5.103  1.00  0.00     0.037 A 
HETATM   15  C   UNL     1      43.921 -20.985   4.511  1.00  0.00     0.003 A 
HETATM   16  C   UNL     1      43.700 -21.056   3.136  1.00  0.00     0.000 A 
HETATM   17  C   UNL     1      43.772 -19.900   2.358  1.00  0.00     0.003 A 
HETATM   18  C   UNL     1      44.072 -18.671   2.951  1.00  0.00     0.037 A 
ENDBRANCH  12  13
ENDBRANCH  10  12
ENDBRANCH   7  10
ENDBRANCH   1   6
BRANCH   2  19
HETATM   19  C   UNL     1      42.193 -12.522   4.478  1.00  0.00     0.732 A 
HETATM   20  N   UNL     1      43.330 -12.706   5.075  1.00  0.00    -0.067 NA
HETATM   21  C   UNL     1      43.637 -11.814   6.080  1.00  0.00     0.065 A 
HETATM   22  C   UNL     1      42.841 -10.795   6.458  1.00  0.00     0.036 A 
HETATM   23  C   UNL     1      44.983 -12.029   6.737  1.00  0.00     0.060 C 
HETATM   24  C   UNL     1      43.170  -9.815   7.547  1.00  0.00     0.046 C 
HETATM   25  C   UNL     1      41.547 -10.620   5.754  1.00  0.00     0.268 A 
HETATM   26  C   UNL     1      44.357 -10.253   8.407  1.00  0.00     0.005 C 
HETATM   27  C   UNL     1      45.475 -10.827   7.545  1.00  0.00     0.006 C 
HETATM   28  O   UNL     1      40.770  -9.712   6.021  1.00  0.00    -0.267 OA
HETATM   29  N   UNL     1      41.297 -11.538   4.784  1.00  0.00    -0.152 N 
HETATM   30  H   UNL     1      40.436 -11.467   4.249  1.00  0.00     0.188 HD
ENDBRANCH   2  19
BRANCH   4  31
HETATM   31  C   UNL     1      39.915 -13.567   0.335  1.00  0.00     0.035 A 
HETATM   32  S   UNL     1      39.025 -12.152  -0.022  1.00  0.00    -0.100 SA
HETATM   33  C   UNL     1      38.442 -12.810  -1.490  1.00  0.00     0.050 A 
HETATM   34  C   UNL     1      38.913 -14.086  -1.706  1.00  0.00     0.008 A 
HETATM   35  C   UNL     1      39.768 -14.523  -0.651  1.00  0.00     0.022 A 
ENDBRANCH   4  31
TORSDOF 6
ENDMDL
MODEL 2
REMARK VINA RESULT:      -9.6      2.314      7.976
REMARK  6 active torsions:
REMARK  status: ('A' for Active; 'I' for Inactive)
REMARK    1  A    between atoms: C_2  and  O_3 
REMARK    2  A    between atoms: C_2  and  C_10 
REMARK    3  A    between atoms: O_3  and  C_4 
REMARK       I    between atoms: C_10  and  N_11 
REMARK    4  A    between atoms: N_11  and  C_12 
REMARK    5  A    between atoms: N_13  and  C_14 
REMARK    6  A    between atoms: C_26  and  C_27 
ROOT
HETATM    1  C   UNL     1      42.121 -13.476   4.613  1.00  0.00     0.152 A 
HETATM    2  N   UNL     1      42.994 -14.320   5.284  1.00  0.00    -0.044 N 
HETATM    3  N   UNL     1      43.774 -13.658   6.187  1.00  0.00    -0.150 NA
HETATM    4  C   UNL     1      43.398 -12.377   6.069  1.00  0.00     0.099 A 
HETATM    5  C   UNL     1      42.378 -12.216   5.104  1.00  0.00     0.086 A 
ENDROOT
BRANCH   1   6
HETATM    6  N   UNL     1      41.230 -13.941   3.652  1.00  0.00    -0.309 N 
HETATM    7  C   UNL     1      41.415 -13.750   2.289  1.00  0.00     0.252 C 
HETATM    8  O   UNL     1      42.380 -13.164   1.801  1.00  0.00    -0.270 OA
HETATM    9  H   UNL     1      40.482 -14.547   3.988  1.00  0.00     0.170 HD
BRANCH   7  10
HETATM   10  C   UNL     1      40.262 -14.321   1.416  1.00  0.00     0.217 C 
HETATM   11  C   UNL     1      39.928 -15.764   1.799  1.00  0.00     0.050 C 
BRANCH  10  12
HETATM   12  O   UNL     1      40.592 -14.376   0.024  1.00  0.00    -0.337 OA
BRANCH  12  13
HETATM   13  C   UNL     1      39.592 -14.028  -0.839  1.00  0.00     0.070 A 
HETATM   14  C   UNL     1      38.953 -12.814  -0.585  1.00  0.00     0.037 A 
HETATM   15  C   UNL     1      37.958 -12.351  -1.445  1.00  0.00     0.003 A 
HETATM   16  C   UNL     1      37.614 -13.094  -2.574  1.00  0.00     0.000 A 
HETATM   17  C   UNL     1      38.272 -14.295  -2.843  1.00  0.00     0.003 A 
HETATM   18  C   UNL     1      39.268 -14.759  -1.982  1.00  0.00     0.037 A 
ENDBRANCH  12  13
ENDBRANCH  10  12
ENDBRANCH   7  10
ENDBRANCH   1   6
BRANCH   2  19
HETATM   19  C   UNL     1      43.174 -15.705   5.096  1.00  0.00     0.732 A 
HETATM   20  N   UNL     1      43.229 -16.264   3.926  1.00  0.00    -0.067 NA
HETATM   21  C   UNL     1      43.450 -17.625   3.917  1.00  0.00     0.065 A 
HETATM   22  C   UNL     1      43.607 -18.375   5.024  1.00  0.00     0.036 A 
HETATM   23  C   UNL     1      43.545 -18.247   2.541  1.00  0.00     0.060 C 
HETATM   24  C   UNL     1      43.855 -19.856   5.022  1.00  0.00     0.046 C 
HETATM   25  C   UNL     1      43.534 -17.699   6.343  1.00  0.00     0.268 A 
HETATM   26  C   UNL     1      43.610 -20.502   3.658  1.00  0.00     0.005 C 
HETATM   27  C   UNL     1      44.176 -19.641   2.535  1.00  0.00     0.006 C 
HETATM   28  O   UNL     1      43.681 -18.301   7.399  1.00  0.00    -0.267 OA
HETATM   29  N   UNL     1      43.301 -16.362   6.286  1.00  0.00    -0.152 N 
HETATM   30  H   UNL     1      43.256 -15.832   7.152  1.00  0.00     0.188 HD
ENDBRANCH   2  19
BRANCH   4  31
HETATM   31  C   UNL     1      44.025 -11.290   6.891  1.00  0.00     0.035 A 
HETATM   32  S   UNL     1      43.163 -10.000   7.610  1.00  0.00    -0.100 SA
HETATM   33  C   UNL     1      44.589  -9.331   8.277  1.00  0.00     0.050 A 
HETATM   34  C   UNL     1      45.705 -10.073   7.959  1.00  0.00     0.008 A 
HETATM   35  C   UNL     1      45.378 -11.208   7.159  1.00  0.00     0.022 A 
ENDBRANCH   4  31
TORSDOF 6
ENDMDL
MODEL 3
REMARK VINA RESULT:      -9.4      2.762      7.685
REMARK  6 active torsions:
REMARK  status: ('A' for Active; 'I' for Inactive)
REMARK    1  A    between atoms: C_2  and  O_3 
REMARK    2  A    between atoms: C_2  and  C_10 
REMARK    3  A    between atoms: O_3  and  C_4 
REMARK       I    between atoms: C_10  and  N_11 
REMARK    4  A    between atoms: N_11  and  C_12 
REMARK    5  A    between atoms: N_13  and  C_14 
REMARK    6  A    between atoms: C_26  and  C_27 
ROOT
HETATM    1  C   UNL     1      42.490 -11.569   5.595  1.00  0.00     0.152 A 
HETATM    2  N   UNL     1      43.076 -12.709   6.125  1.00  0.00    -0.044 N 
HETATM    3  N   UNL     1      43.673 -12.480   7.331  1.00  0.00    -0.150 NA
HETATM    4  C   UNL     1      43.473 -11.174   7.553  1.00  0.00     0.099 A 
HETATM    5  C   UNL     1      42.747 -10.567   6.504  1.00  0.00     0.086 A 
ENDROOT
BRANCH   1   6
HETATM    6  N   UNL     1      41.822 -11.576   4.376  1.00  0.00    -0.309 N 
HETATM    7  C   UNL     1      42.436 -11.258   3.171  1.00  0.00     0.252 C 
HETATM    8  O   UNL     1      43.622 -10.951   3.064  1.00  0.00    -0.270 OA
HETATM    9  H   UNL     1      40.873 -11.949   4.385  1.00  0.00     0.170 HD
BRANCH   7  10
HETATM   10  C   UNL     1      41.472 -11.292   1.951  1.00  0.00     0.217 C 
HETATM   11  C   UNL     1      41.058  -9.884   1.522  1.00  0.00     0.050 C 
BRANCH  10  12
HETATM   12  O   UNL     1      40.242 -11.969   2.232  1.00  0.00    -0.337 OA
BRANCH  12  13
HETATM   13  C   UNL     1      40.153 -13.255   1.780  1.00  0.00     0.070 A 
HETATM   14  C   UNL     1      39.803 -14.218   2.726  1.00  0.00     0.037 A 
HETATM   15  C   UNL     1      39.634 -15.549   2.344  1.00  0.00     0.003 A 
HETATM   16  C   UNL     1      39.796 -15.914   1.008  1.00  0.00     0.000 A 
HETATM   17  C   UNL     1      40.120 -14.945   0.057  1.00  0.00     0.003 A 
HETATM   18  C   UNL     1      40.289 -13.613   0.439  1.00  0.00     0.037 A 
ENDBRANCH  12  13
ENDBRANCH  10  12
ENDBRANCH   7  10
ENDBRANCH   1   6
BRANCH   2  19
HETATM   19  C   UNL     1      43.152 -13.992   5.545  1.00  0.00     0.732 A 
HETATM   20  N   UNL     1      43.027 -14.207   4.272  1.00  0.00    -0.067 NA
HETATM   21  C   UNL     1      43.168 -15.516   3.864  1.00  0.00     0.065 A 
HETATM   22  C   UNL     1      43.421 -16.546   4.694  1.00  0.00     0.036 A 
HETATM   23  C   UNL     1      43.052 -15.736   2.372  1.00  0.00     0.060 C 
HETATM   24  C   UNL     1      43.582 -17.974   4.257  1.00  0.00     0.046 C 
HETATM   25  C   UNL     1      43.553 -16.259   6.143  1.00  0.00     0.268 A 
HETATM   26  C   UNL     1      43.129 -18.212   2.816  1.00  0.00     0.005 C 
HETATM   27  C   UNL     1      43.597 -17.087   1.901  1.00  0.00     0.006 C 
HETATM   28  O   UNL     1      43.798 -17.132   6.967  1.00  0.00    -0.267 OA
HETATM   29  N   UNL     1      43.391 -14.954   6.484  1.00  0.00    -0.152 N 
HETATM   30  H   UNL     1      43.486 -14.683   7.458  1.00  0.00     0.188 HD
ENDBRANCH   2  19
BRANCH   4  31
HETATM   31  C   UNL     1      43.988 -10.495   8.789  1.00  0.00     0.035 A 
HETATM   32  S   UNL     1      42.995  -9.804   9.997  1.00  0.00    -0.100 SA
HETATM   33  C   UNL     1      44.348  -9.311  10.920  1.00  0.00     0.050 A 
HETATM   34  C   UNL     1      45.537  -9.663  10.321  1.00  0.00     0.008 A 
HETATM   35  C   UNL     1      45.328 -10.351   9.089  1.00  0.00     0.022 A 
ENDBRANCH   4  31
TORSDOF 6
ENDMDL
MODEL 4
REMARK VINA RESULT:      -8.9      2.649      7.500
REMARK  6 active torsions:
REMARK  status: ('A' for Active; 'I' for Inactive)
REMARK    1  A    between atoms: C_2  and  O_3 
REMARK    2  A    between atoms: C_2  and  C_10 
REMARK    3  A    between atoms: O_3  and  C_4 
REMARK       I    between atoms: C_10  and  N_11 
REMARK    4  A    between atoms: N_11  and  C_12 
REMARK    5  A    between atoms: N_13  and  C_14 
REMARK    6  A    between atoms: C_26  and  C_27 
ROOT
HETATM    1  C   UNL     1      42.793 -14.833   3.645  1.00  0.00     0.152 A 
HETATM    2  N   UNL     1      42.189 -15.140   2.434  1.00  0.00    -0.044 N 
HETATM    3  N   UNL     1      42.309 -16.460   2.107  1.00  0.00    -0.150 NA
HETATM    4  C   UNL     1      43.013 -16.985   3.119  1.00  0.00     0.099 A 
HETATM    5  C   UNL     1      43.338 -16.015   4.094  1.00  0.00     0.086 A 
ENDROOT
BRANCH   1   6
HETATM    6  N   UNL     1      42.787 -13.547   4.173  1.00  0.00    -0.309 N 
HETATM    7  C   UNL     1      41.897 -13.134   5.156  1.00  0.00     0.252 C 
HETATM    8  O   UNL     1      41.041 -13.860   5.658  1.00  0.00    -0.270 OA
HETATM    9  H   UNL     1      43.557 -12.941   3.890  1.00  0.00     0.170 HD
BRANCH   7  10
HETATM   10  C   UNL     1      42.055 -11.638   5.552  1.00  0.00     0.217 C 
HETATM   11  C   UNL     1      41.242 -10.725   4.634  1.00  0.00     0.050 C 
BRANCH  10  12
HETATM   12  O   UNL     1      43.404 -11.172   5.437  1.00  0.00    -0.337 OA
BRANCH  12  13
HETATM   13  C   UNL     1      44.036 -10.883   6.614  1.00  0.00     0.070 A 
HETATM   14  C   UNL     1      45.423 -11.030   6.620  1.00  0.00     0.037 A 
HETATM   15  C   UNL     1      46.158 -10.704   7.759  1.00  0.00     0.003 A 
HETATM   16  C   UNL     1      45.507 -10.210   8.889  1.00  0.00     0.000 A 
HETATM   17  C   UNL     1      44.122 -10.037   8.873  1.00  0.00     0.003 A 
HETATM   18  C   UNL     1      43.385 -10.364   7.732  1.00  0.00     0.037 A 
ENDBRANCH  12  13
ENDBRANCH  10  12
ENDBRANCH   7  10
ENDBRANCH   1   6
BRANCH   2  19
HETATM   19  C   UNL     1      41.547 -14.259   1.540  1.00  0.00     0.732 A 
HETATM   20  N   UNL     1      41.742 -12.976   1.540  1.00  0.00    -0.067 NA
HETATM   21  C   UNL     1      41.066 -12.263   0.573  1.00  0.00     0.065 A 
HETATM   22  C   UNL     1      40.242 -12.814  -0.339  1.00  0.00     0.036 A 
HETATM   23  C   UNL     1      41.336 -10.775   0.572  1.00  0.00     0.060 C 
HETATM   24  C   UNL     1      39.508 -12.045  -1.399  1.00  0.00     0.046 C 
HETATM   25  C   UNL     1      40.043 -14.284  -0.303  1.00  0.00     0.268 A 
HETATM   26  C   UNL     1      39.531 -10.534  -1.166  1.00  0.00     0.005 C 
HETATM   27  C   UNL     1      40.913 -10.070  -0.719  1.00  0.00     0.006 C 
HETATM   28  O   UNL     1      39.325 -14.870  -1.104  1.00  0.00    -0.267 OA
HETATM   29  N   UNL     1      40.725 -14.928   0.679  1.00  0.00    -0.152 N 
HETATM   30  H   UNL     1      40.649 -15.939   0.751  1.00  0.00     0.188 HD
ENDBRANCH   2  19
BRANCH   4  31
HETATM   31  C   UNL     1      43.383 -18.440   3.152  1.00  0.00     0.035 A 
HETATM   32  S   UNL     1      44.124 -19.219   4.481  1.00  0.00    -0.100 SA
HETATM   33  C   UNL     1      44.158 -20.722   3.665  1.00  0.00     0.050 A 
HETATM   34  C   UNL     1      43.618 -20.636   2.402  1.00  0.00     0.008 A 
HETATM   35  C   UNL     1      43.167 -19.315   2.106  1.00  0.00     0.022 A 
ENDBRANCH   4  31
TORSDOF 6
ENDMDL
MODEL 5
REMARK VINA RESULT:      -8.8      3.321      7.614
REMARK  6 active torsions:
REMARK  status: ('A' for Active; 'I' for Inactive)
REMARK    1  A    between atoms: C_2  and  O_3 
REMARK    2  A    between atoms: C_2  and  C_10 
REMARK    3  A    between atoms: O_3  and  C_4 
REMARK       I    between atoms: C_10  and  N_11 
REMARK    4  A    between atoms: N_11  and  C_12 
REMARK    5  A    between atoms: N_13  and  C_14 
REMARK    6  A    between atoms: C_26  and  C_27 
ROOT
HETATM    1  C   UNL     1      43.292 -13.648   6.332  1.00  0.00     0.152 A 
HETATM    2  N   UNL     1      42.182 -13.636   5.500  1.00  0.00    -0.044 N 
HETATM    3  N   UNL     1      42.072 -14.775   4.756  1.00  0.00    -0.150 NA
HETATM    4  C   UNL     1      43.137 -15.505   5.114  1.00  0.00     0.099 A 
HETATM    5  C   UNL     1      43.923 -14.846   6.086  1.00  0.00     0.086 A 
ENDROOT
BRANCH   1   6
HETATM    6  N   UNL     1      43.594 -12.590   7.182  1.00  0.00    -0.309 N 
HETATM    7  C   UNL     1      44.438 -11.545   6.825  1.00  0.00     0.252 C 
HETATM    8  O   UNL     1      44.988 -11.451   5.730  1.00  0.00    -0.270 OA
HETATM    9  H   UNL     1      43.065 -12.546   8.053  1.00  0.00     0.170 HD
BRANCH   7  10
HETATM   10  C   UNL     1      44.658 -10.505   7.960  1.00  0.00     0.217 C 
HETATM   11  C   UNL     1      46.140 -10.178   8.143  1.00  0.00     0.050 C 
BRANCH  10  12
HETATM   12  O   UNL     1      44.222 -10.977   9.239  1.00  0.00    -0.337 OA
BRANCH  12  13
HETATM   13  C   UNL     1      43.523 -10.081   9.998  1.00  0.00     0.070 A 
HETATM   14  C   UNL     1      44.027  -9.828  11.273  1.00  0.00     0.037 A 
HETATM   15  C   UNL     1      43.411  -8.887  12.098  1.00  0.00     0.003 A 
HETATM   16  C   UNL     1      42.300  -8.182  11.637  1.00  0.00     0.000 A 
HETATM   17  C   UNL     1      41.811  -8.416  10.351  1.00  0.00     0.003 A 
HETATM   18  C   UNL     1      42.428  -9.359   9.526  1.00  0.00     0.037 A 
ENDBRANCH  12  13
ENDBRANCH  10  12
ENDBRANCH   7  10
ENDBRANCH   1   6
BRANCH   2  19
HETATM   19  C   UNL     1      41.244 -12.599   5.324  1.00  0.00     0.732 A 
HETATM   20  N   UNL     1      41.154 -11.896   4.237  1.00  0.00    -0.067 NA
HETATM   21  C   UNL     1      40.155 -10.946   4.214  1.00  0.00     0.065 A 
HETATM   22  C   UNL     1      39.298 -10.720   5.229  1.00  0.00     0.036 A 
HETATM   23  C   UNL     1      40.048 -10.163   2.923  1.00  0.00     0.060 C 
HETATM   24  C   UNL     1      38.204  -9.693   5.209  1.00  0.00     0.046 C 
HETATM   25  C   UNL     1      39.437 -11.542   6.456  1.00  0.00     0.268 A 
HETATM   26  C   UNL     1      38.334  -8.703   4.049  1.00  0.00     0.005 C 
HETATM   27  C   UNL     1      38.721  -9.418   2.760  1.00  0.00     0.006 C 
HETATM   28  O   UNL     1      38.692 -11.416   7.420  1.00  0.00    -0.267 OA
HETATM   29  N   UNL     1      40.446 -12.451   6.423  1.00  0.00    -0.152 N 
HETATM   30  H   UNL     1      40.588 -13.060   7.224  1.00  0.00     0.188 HD
ENDBRANCH   2  19
BRANCH   4  31
HETATM   31  C   UNL     1      43.408 -16.854   4.514  1.00  0.00     0.035 A 
HETATM   32  S   UNL     1      43.904 -18.226   5.404  1.00  0.00    -0.100 SA
HETATM   33  C   UNL     1      43.960 -19.200   3.999  1.00  0.00     0.050 A 
HETATM   34  C   UNL     1      43.610 -18.495   2.869  1.00  0.00     0.008 A 
HETATM   35  C   UNL     1      43.288 -17.138   3.168  1.00  0.00     0.022 A 
ENDBRANCH   4  31
TORSDOF 6
ENDMDL
MODEL 6
REMARK VINA RESULT:      -8.7      2.265      2.670
REMARK  6 active torsions:
REMARK  status: ('A' for Active; 'I' for Inactive)
REMARK    1  A    between atoms: C_2  and  O_3 
REMARK    2  A    between atoms: C_2  and  C_10 
REMARK    3  A    between atoms: O_3  and  C_4 
REMARK       I    between atoms: C_10  and  N_11 
REMARK    4  A    between atoms: N_11  and  C_12 
REMARK    5  A    between atoms: N_13  and  C_14 
REMARK    6  A    between atoms: C_26  and  C_27 
ROOT
HETATM    1  C   UNL     1      41.818 -12.557   2.001  1.00  0.00     0.152 A 
HETATM    2  N   UNL     1      42.110 -11.353   2.626  1.00  0.00    -0.044 N 
HETATM    3  N   UNL     1      41.927 -10.278   1.805  1.00  0.00    -0.150 NA
HETATM    4  C   UNL     1      41.532 -10.816   0.643  1.00  0.00     0.099 A 
HETATM    5  C   UNL     1      41.452 -12.225   0.716  1.00  0.00     0.086 A 
ENDROOT
BRANCH   1   6
HETATM    6  N   UNL     1      41.930 -13.779   2.655  1.00  0.00    -0.309 N 
HETATM    7  C   UNL     1      40.919 -14.314   3.443  1.00  0.00     0.252 C 
HETATM    8  O   UNL     1      39.833 -13.769   3.632  1.00  0.00    -0.270 OA
HETATM    9  H   UNL     1      42.754 -14.336   2.430  1.00  0.00     0.170 HD
BRANCH   7  10
HETATM   10  C   UNL     1      41.297 -15.669   4.107  1.00  0.00     0.217 C 
HETATM   11  C   UNL     1      40.855 -15.720   5.570  1.00  0.00     0.050 C 
BRANCH  10  12
HETATM   12  O   UNL     1      42.710 -15.898   4.139  1.00  0.00    -0.337 OA
BRANCH  12  13
HETATM   13  C   UNL     1      43.121 -17.136   3.731  1.00  0.00     0.070 A 
HETATM   14  C   UNL     1      43.874 -17.868   4.648  1.00  0.00     0.037 A 
HETATM   15  C   UNL     1      44.289 -19.163   4.342  1.00  0.00     0.003 A 
HETATM   16  C   UNL     1      43.934 -19.735   3.120  1.00  0.00     0.000 A 
HETATM   17  C   UNL     1      43.159 -19.012   2.213  1.00  0.00     0.003 A 
HETATM   18  C   UNL     1      42.742 -17.715   2.521  1.00  0.00     0.037 A 
ENDBRANCH  12  13
ENDBRANCH  10  12
ENDBRANCH   7  10
ENDBRANCH   1   6
BRANCH   2  19
HETATM   19  C   UNL     1      42.596 -11.153   3.934  1.00  0.00     0.732 A 
HETATM   20  N   UNL     1      43.814 -11.423   4.291  1.00  0.00    -0.067 NA
HETATM   21  C   UNL     1      44.139 -11.131   5.598  1.00  0.00     0.065 A 
HETATM   22  C   UNL     1      43.283 -10.597   6.491  1.00  0.00     0.036 A 
HETATM   23  C   UNL     1      45.574 -11.423   5.980  1.00  0.00     0.060 C 
HETATM   24  C   UNL     1      43.632 -10.270   7.915  1.00  0.00     0.046 C 
HETATM   25  C   UNL     1      41.899 -10.307   6.046  1.00  0.00     0.268 A 
HETATM   26  C   UNL     1      44.962 -10.880   8.360  1.00  0.00     0.005 C 
HETATM   27  C   UNL     1      46.021 -10.738   7.273  1.00  0.00     0.006 C 
HETATM   28  O   UNL     1      41.061  -9.807   6.786  1.00  0.00    -0.267 OA
HETATM   29  N   UNL     1      41.636 -10.628   4.752  1.00  0.00    -0.152 N 
HETATM   30  H   UNL     1      40.712 -10.440   4.375  1.00  0.00     0.188 HD
ENDBRANCH   2  19
BRANCH   4  31
HETATM   31  C   UNL     1      41.228  -9.967  -0.557  1.00  0.00     0.035 A 
HETATM   32  S   UNL     1      39.714  -9.920  -1.350  1.00  0.00    -0.100 SA
HETATM   33  C   UNL     1      40.275  -8.782  -2.497  1.00  0.00     0.050 A 
HETATM   34  C   UNL     1      41.592  -8.442  -2.284  1.00  0.00     0.008 A 
HETATM   35  C   UNL     1      42.143  -9.127  -1.159  1.00  0.00     0.022 A 
ENDBRANCH   4  31
TORSDOF 6
ENDMDL
MODEL 7
REMARK VINA RESULT:      -8.5      3.251      8.411
REMARK  6 active torsions:
REMARK  status: ('A' for Active; 'I' for Inactive)
REMARK    1  A    between atoms: C_2  and  O_3 
REMARK    2  A    between atoms: C_2  and  C_10 
REMARK    3  A    between atoms: O_3  and  C_4 
REMARK       I    between atoms: C_10  and  N_11 
REMARK    4  A    between atoms: N_11  and  C_12 
REMARK    5  A    between atoms: N_13  and  C_14 
REMARK    6  A    between atoms: C_26  and  C_27 
ROOT
HETATM    1  C   UNL     1      40.881 -14.367   3.200  1.00  0.00     0.152 A 
HETATM    2  N   UNL     1      41.085 -14.750   1.882  1.00  0.00    -0.044 N 
HETATM    3  N   UNL     1      41.812 -15.901   1.777  1.00  0.00    -0.150 NA
HETATM    4  C   UNL     1      42.083 -16.235   3.046  1.00  0.00     0.099 A 
HETATM    5  C   UNL     1      41.529 -15.313   3.962  1.00  0.00     0.086 A 
ENDROOT
BRANCH   1   6
HETATM    6  N   UNL     1      40.161 -13.227   3.539  1.00  0.00    -0.309 N 
HETATM    7  C   UNL     1      40.753 -11.988   3.745  1.00  0.00     0.252 C 
HETATM    8  O   UNL     1      41.960 -11.777   3.641  1.00  0.00    -0.270 OA
HETATM    9  H   UNL     1      39.145 -13.312   3.510  1.00  0.00     0.170 HD
BRANCH   7  10
HETATM   10  C   UNL     1      39.747 -10.876   4.159  1.00  0.00     0.217 C 
HETATM   11  C   UNL     1      39.514 -10.863   5.670  1.00  0.00     0.050 C 
BRANCH  10  12
HETATM   12  O   UNL     1      38.447 -11.061   3.586  1.00  0.00    -0.337 OA
BRANCH  12  13
HETATM   13  C   UNL     1      38.285 -10.589   2.315  1.00  0.00     0.070 A 
HETATM   14  C   UNL     1      37.515 -11.377   1.459  1.00  0.00     0.037 A 
HETATM   15  C   UNL     1      37.248 -10.949   0.159  1.00  0.00     0.003 A 
HETATM   16  C   UNL     1      37.736  -9.718  -0.280  1.00  0.00     0.000 A 
HETATM   17  C   UNL     1      38.483  -8.917   0.585  1.00  0.00     0.003 A 
HETATM   18  C   UNL     1      38.750  -9.347   1.887  1.00  0.00     0.037 A 
ENDBRANCH  12  13
ENDBRANCH  10  12
ENDBRANCH   7  10
ENDBRANCH   1   6
BRANCH   2  19
HETATM   19  C   UNL     1      40.680 -14.076   0.713  1.00  0.00     0.732 A 
HETATM   20  N   UNL     1      41.056 -12.870   0.419  1.00  0.00    -0.067 NA
HETATM   21  C   UNL     1      40.601 -12.371  -0.783  1.00  0.00     0.065 A 
HETATM   22  C   UNL     1      39.812 -13.052  -1.637  1.00  0.00     0.036 A 
HETATM   23  C   UNL     1      41.082 -10.977  -1.119  1.00  0.00     0.060 C 
HETATM   24  C   UNL     1      39.318 -12.519  -2.950  1.00  0.00     0.046 C 
HETATM   25  C   UNL     1      39.400 -14.427  -1.262  1.00  0.00     0.268 A 
HETATM   26  C   UNL     1      39.534 -11.012  -3.103  1.00  0.00     0.005 C 
HETATM   27  C   UNL     1      40.910 -10.601  -2.593  1.00  0.00     0.006 C 
HETATM   28  O   UNL     1      38.698 -15.123  -1.985  1.00  0.00    -0.267 OA
HETATM   29  N   UNL     1      39.869 -14.856  -0.062  1.00  0.00    -0.152 N 
HETATM   30  H   UNL     1      39.640 -15.795   0.250  1.00  0.00     0.188 HD
ENDBRANCH   2  19
BRANCH   4  31
HETATM   31  C   UNL     1      42.888 -17.455   3.387  1.00  0.00     0.035 A 
HETATM   32  S   UNL     1      43.072 -18.810   2.360  1.00  0.00    -0.100 SA
HETATM   33  C   UNL     1      44.061 -19.620   3.497  1.00  0.00     0.050 A 
HETATM   34  C   UNL     1      44.248 -18.876   4.640  1.00  0.00     0.008 A 
HETATM   35  C   UNL     1      43.571 -17.621   4.575  1.00  0.00     0.022 A 
ENDBRANCH   4  31
TORSDOF 6
ENDMDL
MODEL 8
REMARK VINA RESULT:      -8.2      3.258      7.314
REMARK  6 active torsions:
REMARK  status: ('A' for Active; 'I' for Inactive)
REMARK    1  A    between atoms: C_2  and  O_3 
REMARK    2  A    between atoms: C_2  and  C_10 
REMARK    3  A    between atoms: O_3  and  C_4 
REMARK       I    between atoms: C_10  and  N_11 
REMARK    4  A    between atoms: N_11  and  C_12 
REMARK    5  A    between atoms: N_13  and  C_14 
REMARK    6  A    between atoms: C_26  and  C_27 
ROOT
HETATM    1  C   UNL     1      42.077 -14.871   1.802  1.00  0.00     0.152 A 
HETATM    2  N   UNL     1      42.391 -14.661   3.137  1.00  0.00    -0.044 N 
HETATM    3  N   UNL     1      42.883 -15.781   3.743  1.00  0.00    -0.150 NA
HETATM    4  C   UNL     1      42.861 -16.712   2.779  1.00  0.00     0.099 A 
HETATM    5  C   UNL     1      42.367 -16.195   1.560  1.00  0.00     0.086 A 
ENDROOT
BRANCH   1   6
HETATM    6  N   UNL     1      41.566 -13.863   0.992  1.00  0.00    -0.309 N 
HETATM    7  C   UNL     1      40.417 -14.013   0.227  1.00  0.00     0.252 C 
HETATM    8  O   UNL     1      39.739 -15.039   0.197  1.00  0.00    -0.270 OA
HETATM    9  H   UNL     1      42.010 -12.949   1.077  1.00  0.00     0.170 HD
BRANCH   7  10
HETATM   10  C   UNL     1      40.070 -12.762  -0.631  1.00  0.00     0.217 C 
HETATM   11  C   UNL     1      38.701 -12.899  -1.297  1.00  0.00     0.050 C 
BRANCH  10  12
HETATM   12  O   UNL     1      40.988 -12.557  -1.710  1.00  0.00    -0.337 OA
BRANCH  12  13
HETATM   13  C   UNL     1      41.188 -11.258  -2.083  1.00  0.00     0.070 A 
HETATM   14  C   UNL     1      40.811 -10.925  -3.384  1.00  0.00     0.037 A 
HETATM   15  C   UNL     1      40.925  -9.610  -3.834  1.00  0.00     0.003 A 
HETATM   16  C   UNL     1      41.399  -8.621  -2.973  1.00  0.00     0.000 A 
HETATM   17  C   UNL     1      41.752  -8.948  -1.663  1.00  0.00     0.003 A 
HETATM   18  C   UNL     1      41.637 -10.265  -1.213  1.00  0.00     0.037 A 
ENDBRANCH  12  13
ENDBRANCH  10  12
ENDBRANCH   7  10
ENDBRANCH   1   6
BRANCH   2  19
HETATM   19  C   UNL     1      42.213 -13.485   3.893  1.00  0.00     0.732 A 
HETATM   20  N   UNL     1      41.062 -13.099   4.349  1.00  0.00    -0.067 NA
HETATM   21  C   UNL     1      41.067 -11.946   5.105  1.00  0.00     0.065 A 
HETATM   22  C   UNL     1      42.172 -11.226   5.381  1.00  0.00     0.036 A 
HETATM   23  C   UNL     1      39.719 -11.536   5.654  1.00  0.00     0.060 C 
HETATM   24  C   UNL     1      42.187  -9.973   6.208  1.00  0.00     0.046 C 
HETATM   25  C   UNL     1      43.468 -11.698   4.837  1.00  0.00     0.268 A 
HETATM   26  C   UNL     1      40.789  -9.405   6.460  1.00  0.00     0.005 C 
HETATM   27  C   UNL     1      39.799 -10.515   6.791  1.00  0.00     0.006 C 
HETATM   28  O   UNL     1      44.523 -11.115   5.053  1.00  0.00    -0.267 OA
HETATM   29  N   UNL     1      43.395 -12.831   4.092  1.00  0.00    -0.152 N 
HETATM   30  H   UNL     1      44.249 -13.221   3.702  1.00  0.00     0.188 HD
ENDBRANCH   2  19
BRANCH   4  31
HETATM   31  C   UNL     1      43.318 -18.120   3.029  1.00  0.00     0.035 A 
HETATM   32  S   UNL     1      44.111 -18.640   4.451  1.00  0.00    -0.100 SA
HETATM   33  C   UNL     1      44.233 -20.247   3.875  1.00  0.00     0.050 A 
HETATM   34  C   UNL     1      43.681 -20.387   2.621  1.00  0.00     0.008 A 
HETATM   35  C   UNL     1      43.150 -19.157   2.133  1.00  0.00     0.022 A 
ENDBRANCH   4  31
TORSDOF 6
ENDMDL
MODEL 9
REMARK VINA RESULT:      -8.1      2.760      7.836
REMARK  6 active torsions:
REMARK  status: ('A' for Active; 'I' for Inactive)
REMARK    1  A    between atoms: C_2  and  O_3 
REMARK    2  A    between atoms: C_2  and  C_10 
REMARK    3  A    between atoms: O_3  and  C_4 
REMARK       I    between atoms: C_10  and  N_11 
REMARK    4  A    between atoms: N_11  and  C_12 
REMARK    5  A    between atoms: N_13  and  C_14 
REMARK    6  A    between atoms: C_26  and  C_27 
ROOT
HETATM    1  C   UNL     1      41.428 -10.391   4.239  1.00  0.00     0.152 A 
HETATM    2  N   UNL     1      42.121 -11.335   4.984  1.00  0.00    -0.044 N 
HETATM    3  N   UNL     1      42.609 -10.826   6.153  1.00  0.00    -0.150 NA
HETATM    4  C   UNL     1      42.232  -9.541   6.134  1.00  0.00     0.099 A 
HETATM    5  C   UNL     1      41.500  -9.225   4.967  1.00  0.00     0.086 A 
ENDROOT
BRANCH   1   6
HETATM    6  N   UNL     1      40.842 -10.696   3.016  1.00  0.00    -0.309 N 
HETATM    7  C   UNL     1      39.485 -10.954   2.867  1.00  0.00     0.252 C 
HETATM    8  O   UNL     1      38.675 -10.930   3.792  1.00  0.00    -0.270 OA
HETATM    9  H   UNL     1      41.439 -10.601   2.195  1.00  0.00     0.170 HD
BRANCH   7  10
HETATM   10  C   UNL     1      39.075 -11.315   1.410  1.00  0.00     0.217 C 
HETATM   11  C   UNL     1      37.555 -11.313   1.238  1.00  0.00     0.050 C 
BRANCH  10  12
HETATM   12  O   UNL     1      39.490 -12.630   1.026  1.00  0.00    -0.337 OA
BRANCH  12  13
HETATM   13  C   UNL     1      39.842 -12.783  -0.285  1.00  0.00     0.070 A 
HETATM   14  C   UNL     1      40.686 -11.807  -0.814  1.00  0.00     0.037 A 
HETATM   15  C   UNL     1      41.145 -11.910  -2.127  1.00  0.00     0.003 A 
HETATM   16  C   UNL     1      40.773 -13.004  -2.908  1.00  0.00     0.000 A 
HETATM   17  C   UNL     1      39.950 -13.995  -2.370  1.00  0.00     0.003 A 
HETATM   18  C   UNL     1      39.492 -13.891  -1.055  1.00  0.00     0.037 A 
ENDBRANCH  12  13
ENDBRANCH  10  12
ENDBRANCH   7  10
ENDBRANCH   1   6
BRANCH   2  19
HETATM   19  C   UNL     1      42.395 -12.675   4.642  1.00  0.00     0.732 A 
HETATM   20  N   UNL     1      42.314 -13.132   3.431  1.00  0.00    -0.067 NA
HETATM   21  C   UNL     1      42.655 -14.458   3.262  1.00  0.00     0.065 A 
HETATM   22  C   UNL     1      43.054 -15.271   4.259  1.00  0.00     0.036 A 
HETATM   23  C   UNL     1      42.586 -14.958   1.836  1.00  0.00     0.060 C 
HETATM   24  C   UNL     1      43.433 -16.713   4.082  1.00  0.00     0.046 C 
HETATM   25  C   UNL     1      43.129 -14.711   5.630  1.00  0.00     0.268 A 
HETATM   26  C   UNL     1      43.034 -17.273   2.716  1.00  0.00     0.005 C 
HETATM   27  C   UNL     1      43.333 -16.273   1.605  1.00  0.00     0.006 C 
HETATM   28  O   UNL     1      43.497 -15.374   6.592  1.00  0.00    -0.267 OA
HETATM   29  N   UNL     1      42.769 -13.405   5.734  1.00  0.00    -0.152 N 
HETATM   30  H   UNL     1      42.814 -12.952   6.642  1.00  0.00     0.188 HD
ENDBRANCH   2  19
BRANCH   4  31
HETATM   31  C   UNL     1      42.579  -8.599   7.249  1.00  0.00     0.035 A 
HETATM   32  S   UNL     1      41.788  -7.112   7.542  1.00  0.00    -0.100 SA
HETATM   33  C   UNL     1      42.782  -6.772   8.892  1.00  0.00     0.050 A 
HETATM   34  C   UNL     1      43.703  -7.770   9.118  1.00  0.00     0.008 A 
HETATM   35  C   UNL     1      43.584  -8.829   8.169  1.00  0.00     0.022 A 
ENDBRANCH   4  31
TORSDOF 6
ENDMDL
MODEL 10
REMARK VINA RESULT:      -8.1      2.567      7.825
REMARK  6 active torsions:
REMARK  status: ('A' for Active; 'I' for Inactive)
REMARK    1  A    between atoms: C_2  and  O_3 
REMARK    2  A    between atoms: C_2  and  C_10 
REMARK    3  A    between atoms: O_3  and  C_4 
REMARK       I    between atoms: C_10  and  N_11 
REMARK    4  A    between atoms: N_11  and  C_12 
REMARK    5  A    between atoms: N_13  and  C_14 
REMARK    6  A    between atoms: C_26  and  C_27 
ROOT
HETATM    1  C   UNL     1      42.322 -11.777   4.549  1.00  0.00     0.152 A 
HETATM    2  N   UNL     1      42.990 -12.880   5.063  1.00  0.00    -0.044 N 
HETATM    3  N   UNL     1      43.613 -12.610   6.248  1.00  0.00    -0.150 NA
HETATM    4  C   UNL     1      43.347 -11.316   6.471  1.00  0.00     0.099 A 
HETATM    5  C   UNL     1      42.553 -10.757   5.445  1.00  0.00     0.086 A 
ENDROOT
BRANCH   1   6
HETATM    6  N   UNL     1      41.615 -11.829   3.354  1.00  0.00    -0.309 N 
HETATM    7  C   UNL     1      40.233 -11.706   3.282  1.00  0.00     0.252 C 
HETATM    8  O   UNL     1      39.507 -11.533   4.260  1.00  0.00    -0.270 OA
HETATM    9  H   UNL     1      42.173 -11.840   2.500  1.00  0.00     0.170 HD
BRANCH   7  10
HETATM   10  C   UNL     1      39.668 -11.843   1.840  1.00  0.00     0.217 C 
HETATM   11  C   UNL     1      38.144 -11.711   1.819  1.00  0.00     0.050 C 
BRANCH  10  12
HETATM   12  O   UNL     1      39.936 -13.123   1.257  1.00  0.00    -0.337 OA
BRANCH  12  13
HETATM   13  C   UNL     1      40.190 -13.124  -0.086  1.00  0.00     0.070 A 
HETATM   14  C   UNL     1      39.643 -14.179  -0.816  1.00  0.00     0.037 A 
HETATM   15  C   UNL     1      39.802 -14.233  -2.200  1.00  0.00     0.003 A 
HETATM   16  C   UNL     1      40.495 -13.218  -2.859  1.00  0.00     0.000 A 
HETATM   17  C   UNL     1      41.020 -12.148  -2.131  1.00  0.00     0.003 A 
HETATM   18  C   UNL     1      40.860 -12.095  -0.745  1.00  0.00     0.037 A 
ENDBRANCH  12  13
ENDBRANCH  10  12
ENDBRANCH   7  10
ENDBRANCH   1   6
BRANCH   2  19
HETATM   19  C   UNL     1      43.120 -14.159   4.486  1.00  0.00     0.732 A 
HETATM   20  N   UNL     1      43.553 -15.194   5.137  1.00  0.00    -0.067 NA
HETATM   21  C   UNL     1      43.581 -16.380   4.436  1.00  0.00     0.065 A 
HETATM   22  C   UNL     1      43.193 -16.512   3.152  1.00  0.00     0.036 A 
HETATM   23  C   UNL     1      44.058 -17.579   5.227  1.00  0.00     0.060 C 
HETATM   24  C   UNL     1      43.215 -17.801   2.383  1.00  0.00     0.046 C 
HETATM   25  C   UNL     1      42.708 -15.304   2.442  1.00  0.00     0.268 A 
HETATM   26  C   UNL     1      44.007 -18.904   3.088  1.00  0.00     0.005 C 
HETATM   27  C   UNL     1      43.710 -18.923   4.582  1.00  0.00     0.006 C 
HETATM   28  O   UNL     1      42.321 -15.335   1.280  1.00  0.00    -0.267 OA
HETATM   29  N   UNL     1      42.716 -14.165   3.181  1.00  0.00    -0.152 N 
HETATM   30  H   UNL     1      42.380 -13.302   2.763  1.00  0.00     0.188 HD
ENDBRANCH   2  19
BRANCH   4  31
HETATM   31  C   UNL     1      43.864 -10.602   7.686  1.00  0.00     0.035 A 
HETATM   32  S   UNL     1      42.944  -9.516   8.634  1.00  0.00    -0.100 SA
HETATM   33  C   UNL     1      44.254  -9.230   9.697  1.00  0.00     0.050 A 
HETATM   34  C   UNL     1      45.374  -9.947   9.339  1.00  0.00     0.008 A 
HETATM   35  C   UNL     1      45.147 -10.743   8.177  1.00  0.00     0.022 A 
ENDBRANCH   4  31
TORSDOF 6
ENDMDL
