MODEL 1
REMARK VINA RESULT:      -8.6      0.000      0.000
REMARK  9 active torsions:
REMARK  status: ('A' for Active; 'I' for Inactive)
REMARK       I    between atoms: C_2  and  N_3 
REMARK    1  A    between atoms: N_3  and  C_4 
REMARK    2  A    between atoms: C_7  and  C_8 
REMARK    3  A    between atoms: C_8  and  N_9 
REMARK    4  A    between atoms: C_11  and  C_12 
REMARK       I    between atoms: C_12  and  N_13 
REMARK    5  A    between atoms: N_13  and  C_14 
REMARK    6  A    between atoms: C_16  and  S_17 
REMARK    7  A    between atoms: C_24  and  N_25 
REMARK    8  A    between atoms: C_28  and  C_29 
REMARK    9  A    between atoms: C_29  and  O_30 
ROOT
HETATM    1  N   UNL     1      41.543 -12.388   4.105  1.00  0.00    -0.052 N 
HETATM    2  H   UNL     1      40.836 -13.085   3.825  1.00  0.00     0.281 HD
HETATM    3  C   UNL     1      41.195 -11.060   3.404  1.00  0.00     0.282 C 
HETATM    4  C   UNL     1      41.972 -10.051   4.234  1.00  0.00     0.072 C 
HETATM    5  C   UNL     1      41.812 -10.565   5.681  1.00  0.00     0.134 C 
HETATM    6  C   UNL     1      41.443 -12.055   5.571  1.00  0.00     0.263 C 
ENDROOT
BRANCH   1   7
HETATM    7  C   UNL     1      42.883 -12.972   3.678  1.00  0.00     0.274 C 
BRANCH   7   8
HETATM    8  C   UNL     1      42.823 -14.401   3.220  1.00  0.00    -0.032 A 
HETATM    9  C   UNL     1      43.284 -14.758   1.947  1.00  0.00     0.011 A 
HETATM   10  C   UNL     1      43.353 -16.103   1.569  1.00  0.00     0.030 A 
HETATM   11  C   UNL     1      42.975 -17.114   2.453  1.00  0.00     0.034 A 
HETATM   12  C   UNL     1      42.470 -16.754   3.708  1.00  0.00     0.030 A 
HETATM   13  C   UNL     1      42.394 -15.410   4.090  1.00  0.00     0.011 A 
BRANCH  11  14
HETATM   14  N   UNL     1      43.115 -18.490   2.182  1.00  0.00    -0.328 N 
HETATM   15  C   UNL     1      43.877 -19.408   2.883  1.00  0.00     0.218 C 
HETATM   16  C   UNL     1      43.658 -20.824   2.412  1.00  0.00     0.117 C 
HETATM   17  O   UNL     1      44.631 -19.167   3.820  1.00  0.00    -0.274 OA
HETATM   18  H   UNL     1      42.546 -18.858   1.429  1.00  0.00     0.169 HD
ENDBRANCH  11  14
ENDBRANCH   7   8
ENDBRANCH   1   7
BRANCH   3  19
HETATM   19  C   UNL     1      41.381 -11.181   1.883  1.00  0.00     0.253 C 
HETATM   20  N   UNL     1      40.591 -12.087   1.216  1.00  0.00    -0.325 N 
HETATM   21  H   UNL     1      40.154 -12.846   1.727  1.00  0.00     0.169 HD
HETATM   22  O   UNL     1      42.174 -10.390   1.366  1.00  0.00    -0.271 OA
BRANCH  20  23
HETATM   23  C   UNL     1      40.394 -12.134  -0.189  1.00  0.00     0.036 A 
HETATM   24  C   UNL     1      40.079 -11.010  -0.966  1.00  0.00     0.048 A 
HETATM   25  C   UNL     1      39.862 -11.117  -2.347  1.00  0.00     0.002 A 
HETATM   26  C   UNL     1      39.947 -12.377  -2.944  1.00  0.00     0.018 A 
HETATM   27  C   UNL     1      40.251 -13.505  -2.182  1.00  0.00     0.004 A 
HETATM   28  C   UNL     1      40.471 -13.385  -0.809  1.00  0.00     0.029 A 
BRANCH  25  29
HETATM   29  S   UNL     1      39.416  -9.740  -3.399  1.00  0.00    -0.134 SA
HETATM   30  C   UNL     1      40.830  -8.616  -3.234  1.00  0.00     0.095 C 
ENDBRANCH  25  29
ENDBRANCH  20  23
ENDBRANCH   3  19
BRANCH   5  31
HETATM   31  N   UNL     1      42.983 -10.406   6.515  1.00  0.00    -0.276 N 
HETATM   32  N   UNL     1      44.125 -11.019   6.173  1.00  0.00     0.005 NA
HETATM   33  N   UNL     1      44.927 -10.984   7.227  1.00  0.00    -0.152 NA
HETATM   34  C   UNL     1      44.279 -10.321   8.244  1.00  0.00     0.166 A 
HETATM   35  C   UNL     1      43.039  -9.917   7.782  1.00  0.00     0.147 A 
BRANCH  34  36
HETATM   36  C   UNL     1      44.806 -10.149   9.590  1.00  0.00     0.314 C 
HETATM   37  O   UNL     1      45.602  -9.264   9.879  1.00  0.00    -0.257 OA
BRANCH  36  38
HETATM   38  O   UNL     1      44.275 -11.037  10.477  1.00  0.00    -0.321 OA
HETATM   39  C   UNL     1      43.391 -10.450  11.434  1.00  0.00     0.213 C 
ENDBRANCH  36  38
ENDBRANCH  34  36
ENDBRANCH   5  31
TORSDOF 9
ENDMDL
MODEL 2
REMARK VINA RESULT:      -8.3      3.554      8.365
REMARK  9 active torsions:
REMARK  status: ('A' for Active; 'I' for Inactive)
REMARK       I    between atoms: C_2  and  N_3 
REMARK    1  A    between atoms: N_3  and  C_4 
REMARK    2  A    between atoms: C_7  and  C_8 
REMARK    3  A    between atoms: C_8  and  N_9 
REMARK    4  A    between atoms: C_11  and  C_12 
REMARK       I    between atoms: C_12  and  N_13 
REMARK    5  A    between atoms: N_13  and  C_14 
REMARK    6  A    between atoms: C_16  and  S_17 
REMARK    7  A    between atoms: C_24  and  N_25 
REMARK    8  A    between atoms: C_28  and  C_29 
REMARK    9  A    between atoms: C_29  and  O_30 
ROOT
HETATM    1  N   UNL     1      43.253 -12.062   5.203  1.00  0.00    -0.052 N 
HETATM    2  H   UNL     1      44.145 -12.199   5.701  1.00  0.00     0.281 HD
HETATM    3  C   UNL     1      42.856 -10.580   5.352  1.00  0.00     0.282 C 
HETATM    4  C   UNL     1      41.845 -10.408   4.230  1.00  0.00     0.072 C 
HETATM    5  C   UNL     1      42.437 -11.241   3.072  1.00  0.00     0.134 C 
HETATM    6  C   UNL     1      43.413 -12.242   3.716  1.00  0.00     0.263 C 
ENDROOT
BRANCH   1   7
HETATM    7  C   UNL     1      42.269 -13.026   5.854  1.00  0.00     0.274 C 
BRANCH   7   8
HETATM    8  C   UNL     1      42.629 -14.476   5.707  1.00  0.00    -0.032 A 
HETATM    9  C   UNL     1      41.900 -15.304   4.844  1.00  0.00     0.011 A 
HETATM   10  C   UNL     1      42.314 -16.618   4.603  1.00  0.00     0.030 A 
HETATM   11  C   UNL     1      43.464 -17.127   5.207  1.00  0.00     0.034 A 
HETATM   12  C   UNL     1      44.166 -16.314   6.106  1.00  0.00     0.030 A 
HETATM   13  C   UNL     1      43.754 -15.001   6.355  1.00  0.00     0.011 A 
BRANCH  11  14
HETATM   14  N   UNL     1      44.000 -18.402   4.934  1.00  0.00    -0.328 N 
HETATM   15  C   UNL     1      43.823 -19.560   5.670  1.00  0.00     0.218 C 
HETATM   16  C   UNL     1      44.406 -20.774   4.992  1.00  0.00     0.117 C 
HETATM   17  O   UNL     1      43.231 -19.661   6.740  1.00  0.00    -0.274 OA
HETATM   18  H   UNL     1      44.521 -18.493   4.070  1.00  0.00     0.169 HD
ENDBRANCH  11  14
ENDBRANCH   7   8
ENDBRANCH   1   7
BRANCH   3  19
HETATM   19  C   UNL     1      42.516 -10.249   6.814  1.00  0.00     0.253 C 
HETATM   20  N   UNL     1      43.561 -10.136   7.700  1.00  0.00    -0.325 N 
HETATM   21  H   UNL     1      44.456 -10.559   7.479  1.00  0.00     0.169 HD
HETATM   22  O   UNL     1      41.328 -10.030   7.061  1.00  0.00    -0.271 OA
BRANCH  20  23
HETATM   23  C   UNL     1      43.489  -9.553   8.992  1.00  0.00     0.036 A 
HETATM   24  C   UNL     1      42.977  -8.271   9.236  1.00  0.00     0.048 A 
HETATM   25  C   UNL     1      42.958  -7.727  10.528  1.00  0.00     0.002 A 
HETATM   26  C   UNL     1      43.482  -8.483  11.581  1.00  0.00     0.018 A 
HETATM   27  C   UNL     1      44.003  -9.756  11.352  1.00  0.00     0.004 A 
HETATM   28  C   UNL     1      44.010 -10.288  10.062  1.00  0.00     0.029 A 
BRANCH  25  29
HETATM   29  S   UNL     1      42.361  -6.086  10.915  1.00  0.00    -0.134 SA
HETATM   30  C   UNL     1      40.754  -6.020  10.077  1.00  0.00     0.095 C 
ENDBRANCH  25  29
ENDBRANCH  20  23
ENDBRANCH   3  19
BRANCH   5  31
HETATM   31  N   UNL     1      41.460 -11.948   2.273  1.00  0.00    -0.276 N 
HETATM   32  N   UNL     1      40.158 -11.839   2.573  1.00  0.00     0.005 NA
HETATM   33  N   UNL     1      39.518 -12.801   1.923  1.00  0.00    -0.152 NA
HETATM   34  C   UNL     1      40.437 -13.515   1.190  1.00  0.00     0.166 A 
HETATM   35  C   UNL     1      41.685 -12.952   1.385  1.00  0.00     0.147 A 
BRANCH  34  36
HETATM   36  C   UNL     1      40.128 -14.702   0.406  1.00  0.00     0.314 C 
HETATM   37  O   UNL     1      39.795 -15.764   0.918  1.00  0.00    -0.257 OA
BRANCH  36  38
HETATM   38  O   UNL     1      40.197 -14.475  -0.937  1.00  0.00    -0.321 OA
HETATM   39  C   UNL     1      39.016 -13.897  -1.495  1.00  0.00     0.213 C 
ENDBRANCH  36  38
ENDBRANCH  34  36
ENDBRANCH   5  31
TORSDOF 9
ENDMDL
MODEL 3
REMARK VINA RESULT:      -8.2      3.733      8.749
REMARK  9 active torsions:
REMARK  status: ('A' for Active; 'I' for Inactive)
REMARK       I    between atoms: C_2  and  N_3 
REMARK    1  A    between atoms: N_3  and  C_4 
REMARK    2  A    between atoms: C_7  and  C_8 
REMARK    3  A    between atoms: C_8  and  N_9 
REMARK    4  A    between atoms: C_11  and  C_12 
REMARK       I    between atoms: C_12  and  N_13 
REMARK    5  A    between atoms: N_13  and  C_14 
REMARK    6  A    between atoms: C_16  and  S_17 
REMARK    7  A    between atoms: C_24  and  N_25 
REMARK    8  A    between atoms: C_28  and  C_29 
REMARK    9  A    between atoms: C_29  and  O_30 
ROOT
HETATM    1  N   UNL     1      41.316 -12.786   0.240  1.00  0.00    -0.052 N 
HETATM    2  H   UNL     1      42.297 -13.104   0.234  1.00  0.00     0.281 HD
HETATM    3  C   UNL     1      41.217 -11.590   1.208  1.00  0.00     0.282 C 
HETATM    4  C   UNL     1      39.911 -10.942   0.776  1.00  0.00     0.072 C 
HETATM    5  C   UNL     1      39.929 -11.068  -0.762  1.00  0.00     0.134 C 
HETATM    6  C   UNL     1      40.914 -12.204  -1.090  1.00  0.00     0.263 C 
ENDROOT
BRANCH   1   7
HETATM    7  C   UNL     1      40.497 -13.994   0.676  1.00  0.00     0.274 C 
BRANCH   7   8
HETATM    8  C   UNL     1      41.263 -15.010   1.474  1.00  0.00    -0.032 A 
HETATM    9  C   UNL     1      40.664 -15.656   2.563  1.00  0.00     0.011 A 
HETATM   10  C   UNL     1      41.326 -16.696   3.223  1.00  0.00     0.030 A 
HETATM   11  C   UNL     1      42.588 -17.119   2.805  1.00  0.00     0.034 A 
HETATM   12  C   UNL     1      43.205 -16.442   1.746  1.00  0.00     0.030 A 
HETATM   13  C   UNL     1      42.551 -15.398   1.085  1.00  0.00     0.011 A 
BRANCH  11  14
HETATM   14  N   UNL     1      43.270 -18.224   3.352  1.00  0.00    -0.328 N 
HETATM   15  C   UNL     1      43.989 -18.263   4.534  1.00  0.00     0.218 C 
HETATM   16  C   UNL     1      44.445 -19.656   4.891  1.00  0.00     0.117 C 
HETATM   17  O   UNL     1      44.226 -17.315   5.276  1.00  0.00    -0.274 OA
HETATM   18  H   UNL     1      43.170 -19.102   2.856  1.00  0.00     0.169 HD
ENDBRANCH  11  14
ENDBRANCH   7   8
ENDBRANCH   1   7
BRANCH   3  19
HETATM   19  C   UNL     1      41.466 -12.037   2.657  1.00  0.00     0.253 C 
HETATM   20  N   UNL     1      42.745 -12.409   2.996  1.00  0.00    -0.325 N 
HETATM   21  H   UNL     1      43.400 -12.681   2.271  1.00  0.00     0.169 HD
HETATM   22  O   UNL     1      40.507 -11.949   3.427  1.00  0.00    -0.271 OA
BRANCH  20  23
HETATM   23  C   UNL     1      43.238 -12.558   4.319  1.00  0.00     0.036 A 
HETATM   24  C   UNL     1      44.054 -11.610   4.953  1.00  0.00     0.048 A 
HETATM   25  C   UNL     1      44.543 -11.820   6.250  1.00  0.00     0.002 A 
HETATM   26  C   UNL     1      44.217 -13.011   6.905  1.00  0.00     0.018 A 
HETATM   27  C   UNL     1      43.414 -13.967   6.283  1.00  0.00     0.004 A 
HETATM   28  C   UNL     1      42.929 -13.743   4.994  1.00  0.00     0.029 A 
BRANCH  25  29
HETATM   29  S   UNL     1      45.621 -10.680   7.110  1.00  0.00    -0.134 SA
HETATM   30  C   UNL     1      44.808 -10.473   8.718  1.00  0.00     0.095 C 
ENDBRANCH  25  29
ENDBRANCH  20  23
ENDBRANCH   3  19
BRANCH   5  31
HETATM   31  N   UNL     1      38.642 -11.341  -1.364  1.00  0.00    -0.276 N 
HETATM   32  N   UNL     1      38.336 -12.594  -1.727  1.00  0.00     0.005 NA
HETATM   33  N   UNL     1      37.276 -12.531  -2.520  1.00  0.00    -0.152 NA
HETATM   34  C   UNL     1      36.901 -11.213  -2.641  1.00  0.00     0.166 A 
HETATM   35  C   UNL     1      37.757 -10.444  -1.873  1.00  0.00     0.147 A 
BRANCH  34  36
HETATM   36  C   UNL     1      35.826 -10.732  -3.495  1.00  0.00     0.314 C 
HETATM   37  O   UNL     1      35.878  -9.657  -4.082  1.00  0.00    -0.257 OA
BRANCH  36  38
HETATM   38  O   UNL     1      34.804 -11.628  -3.606  1.00  0.00    -0.321 OA
HETATM   39  C   UNL     1      34.251 -11.725  -4.919  1.00  0.00     0.213 C 
ENDBRANCH  36  38
ENDBRANCH  34  36
ENDBRANCH   5  31
TORSDOF 9
ENDMDL
MODEL 4
REMARK VINA RESULT:      -8.2      3.121      8.838
REMARK  9 active torsions:
REMARK  status: ('A' for Active; 'I' for Inactive)
REMARK       I    between atoms: C_2  and  N_3 
REMARK    1  A    between atoms: N_3  and  C_4 
REMARK    2  A    between atoms: C_7  and  C_8 
REMARK    3  A    between atoms: C_8  and  N_9 
REMARK    4  A    between atoms: C_11  and  C_12 
REMARK       I    between atoms: C_12  and  N_13 
REMARK    5  A    between atoms: N_13  and  C_14 
REMARK    6  A    between atoms: C_16  and  S_17 
REMARK    7  A    between atoms: C_24  and  N_25 
REMARK    8  A    between atoms: C_28  and  C_29 
REMARK    9  A    between atoms: C_29  and  O_30 
ROOT
HETATM    1  N   UNL     1      40.903 -11.384   3.001  1.00  0.00    -0.052 N 
HETATM    2  H   UNL     1      40.608 -11.270   3.983  1.00  0.00     0.281 HD
HETATM    3  C   UNL     1      40.198 -12.636   2.443  1.00  0.00     0.282 C 
HETATM    4  C   UNL     1      40.320 -12.425   0.943  1.00  0.00     0.072 C 
HETATM    5  C   UNL     1      40.096 -10.908   0.765  1.00  0.00     0.134 C 
HETATM    6  C   UNL     1      40.389 -10.266   2.133  1.00  0.00     0.263 C 
ENDROOT
BRANCH   1   7
HETATM    7  C   UNL     1      42.421 -11.506   3.043  1.00  0.00     0.274 C 
BRANCH   7   8
HETATM    8  C   UNL     1      43.013 -11.441   4.422  1.00  0.00    -0.032 A 
HETATM    9  C   UNL     1      44.392 -11.603   4.610  1.00  0.00     0.011 A 
HETATM   10  C   UNL     1      44.962 -11.410   5.873  1.00  0.00     0.030 A 
HETATM   11  C   UNL     1      44.175 -11.043   6.964  1.00  0.00     0.034 A 
HETATM   12  C   UNL     1      42.792 -10.927   6.785  1.00  0.00     0.030 A 
HETATM   13  C   UNL     1      42.214 -11.123   5.526  1.00  0.00     0.011 A 
BRANCH  11  14
HETATM   14  N   UNL     1      44.691 -10.731   8.238  1.00  0.00    -0.328 N 
HETATM   15  C   UNL     1      45.253  -9.533   8.643  1.00  0.00     0.218 C 
HETATM   16  C   UNL     1      45.546  -9.499  10.122  1.00  0.00     0.117 C 
HETATM   17  O   UNL     1      45.475  -8.555   7.936  1.00  0.00    -0.274 OA
HETATM   18  H   UNL     1      44.581 -11.441   8.952  1.00  0.00     0.169 HD
ENDBRANCH  11  14
ENDBRANCH   7   8
ENDBRANCH   1   7
BRANCH   3  19
HETATM   19  C   UNL     1      40.715 -13.908   3.133  1.00  0.00     0.253 C 
HETATM   20  N   UNL     1      41.532 -14.739   2.405  1.00  0.00    -0.325 N 
HETATM   21  H   UNL     1      41.530 -14.687   1.392  1.00  0.00     0.169 HD
HETATM   22  O   UNL     1      40.417 -14.043   4.322  1.00  0.00    -0.271 OA
BRANCH  20  23
HETATM   23  C   UNL     1      42.341 -15.777   2.938  1.00  0.00     0.036 A 
HETATM   24  C   UNL     1      42.466 -17.043   2.347  1.00  0.00     0.048 A 
HETATM   25  C   UNL     1      43.251 -18.046   2.931  1.00  0.00     0.002 A 
HETATM   26  C   UNL     1      43.903 -17.770   4.137  1.00  0.00     0.018 A 
HETATM   27  C   UNL     1      43.780 -16.519   4.741  1.00  0.00     0.004 A 
HETATM   28  C   UNL     1      42.999 -15.527   4.146  1.00  0.00     0.029 A 
BRANCH  25  29
HETATM   29  S   UNL     1      43.429 -19.696   2.263  1.00  0.00    -0.134 SA
HETATM   30  C   UNL     1      43.837 -20.693   3.722  1.00  0.00     0.095 C 
ENDBRANCH  25  29
ENDBRANCH  20  23
ENDBRANCH   3  19
BRANCH   5  31
HETATM   31  N   UNL     1      40.912 -10.289  -0.256  1.00  0.00    -0.276 N 
HETATM   32  N   UNL     1      42.065  -9.698   0.088  1.00  0.00     0.005 NA
HETATM   33  N   UNL     1      42.452  -8.952  -0.936  1.00  0.00    -0.152 NA
HETATM   34  C   UNL     1      41.530  -9.092  -1.948  1.00  0.00     0.166 A 
HETATM   35  C   UNL     1      40.553  -9.977  -1.529  1.00  0.00     0.147 A 
BRANCH  34  36
HETATM   36  C   UNL     1      41.567  -8.366  -3.208  1.00  0.00     0.314 C 
HETATM   37  O   UNL     1      41.211  -8.865  -4.269  1.00  0.00    -0.257 OA
BRANCH  36  38
HETATM   38  O   UNL     1      41.981  -7.075  -3.057  1.00  0.00    -0.321 OA
HETATM   39  C   UNL     1      42.970  -6.663  -4.001  1.00  0.00     0.213 C 
ENDBRANCH  36  38
ENDBRANCH  34  36
ENDBRANCH   5  31
TORSDOF 9
ENDMDL
MODEL 5
REMARK VINA RESULT:      -8.1      1.989      2.305
REMARK  9 active torsions:
REMARK  status: ('A' for Active; 'I' for Inactive)
REMARK       I    between atoms: C_2  and  N_3 
REMARK    1  A    between atoms: N_3  and  C_4 
REMARK    2  A    between atoms: C_7  and  C_8 
REMARK    3  A    between atoms: C_8  and  N_9 
REMARK    4  A    between atoms: C_11  and  C_12 
REMARK       I    between atoms: C_12  and  N_13 
REMARK    5  A    between atoms: N_13  and  C_14 
REMARK    6  A    between atoms: C_16  and  S_17 
REMARK    7  A    between atoms: C_24  and  N_25 
REMARK    8  A    between atoms: C_28  and  C_29 
REMARK    9  A    between atoms: C_29  and  O_30 
ROOT
HETATM    1  N   UNL     1      40.638 -13.416   3.961  1.00  0.00    -0.052 N 
HETATM    2  H   UNL     1      40.196 -14.292   3.645  1.00  0.00     0.281 HD
HETATM    3  C   UNL     1      39.833 -12.244   3.367  1.00  0.00     0.282 C 
HETATM    4  C   UNL     1      40.259 -11.085   4.254  1.00  0.00     0.072 C 
HETATM    5  C   UNL     1      40.346 -11.713   5.662  1.00  0.00     0.134 C 
HETATM    6  C   UNL     1      40.497 -13.230   5.449  1.00  0.00     0.263 C 
ENDROOT
BRANCH   1   7
HETATM    7  C   UNL     1      42.077 -13.482   3.465  1.00  0.00     0.274 C 
BRANCH   7   8
HETATM    8  C   UNL     1      42.744 -14.813   3.663  1.00  0.00    -0.032 A 
HETATM    9  C   UNL     1      43.300 -15.151   4.902  1.00  0.00     0.011 A 
HETATM   10  C   UNL     1      43.801 -16.437   5.128  1.00  0.00     0.030 A 
HETATM   11  C   UNL     1      43.748 -17.410   4.129  1.00  0.00     0.034 A 
HETATM   12  C   UNL     1      43.234 -17.058   2.876  1.00  0.00     0.030 A 
HETATM   13  C   UNL     1      42.736 -15.772   2.642  1.00  0.00     0.011 A 
BRANCH  11  14
HETATM   14  N   UNL     1      44.136 -18.753   4.316  1.00  0.00    -0.328 N 
HETATM   15  C   UNL     1      43.880 -19.553   5.415  1.00  0.00     0.218 C 
HETATM   16  C   UNL     1      44.300 -20.986   5.201  1.00  0.00     0.117 C 
HETATM   17  O   UNL     1      43.336 -19.207   6.459  1.00  0.00    -0.274 OA
HETATM   18  H   UNL     1      44.599 -19.198   3.533  1.00  0.00     0.169 HD
ENDBRANCH  11  14
ENDBRANCH   7   8
ENDBRANCH   1   7
BRANCH   3  19
HETATM   19  C   UNL     1      39.980 -12.198   1.838  1.00  0.00     0.253 C 
HETATM   20  N   UNL     1      39.390 -13.205   1.112  1.00  0.00    -0.325 N 
HETATM   21  H   UNL     1      39.156 -14.082   1.565  1.00  0.00     0.169 HD
HETATM   22  O   UNL     1      40.553 -11.209   1.375  1.00  0.00    -0.271 OA
BRANCH  20  23
HETATM   23  C   UNL     1      39.154 -13.185  -0.288  1.00  0.00     0.036 A 
HETATM   24  C   UNL     1      38.181 -12.381  -0.898  1.00  0.00     0.048 A 
HETATM   25  C   UNL     1      37.965 -12.422  -2.282  1.00  0.00     0.002 A 
HETATM   26  C   UNL     1      38.729 -13.302  -3.055  1.00  0.00     0.018 A 
HETATM   27  C   UNL     1      39.695 -14.114  -2.460  1.00  0.00     0.004 A 
HETATM   28  C   UNL     1      39.904 -14.059  -1.081  1.00  0.00     0.029 A 
BRANCH  25  29
HETATM   29  S   UNL     1      36.717 -11.461  -3.130  1.00  0.00    -0.134 SA
HETATM   30  C   UNL     1      37.541  -9.870  -3.416  1.00  0.00     0.095 C 
ENDBRANCH  25  29
ENDBRANCH  20  23
ENDBRANCH   3  19
BRANCH   5  31
HETATM   31  N   UNL     1      41.430 -11.218   6.481  1.00  0.00    -0.276 N 
HETATM   32  N   UNL     1      41.307 -10.030   7.091  1.00  0.00     0.005 NA
HETATM   33  N   UNL     1      42.513  -9.666   7.500  1.00  0.00    -0.152 NA
HETATM   34  C   UNL     1      43.407 -10.654   7.154  1.00  0.00     0.166 A 
HETATM   35  C   UNL     1      42.710 -11.671   6.526  1.00  0.00     0.147 A 
BRANCH  34  36
HETATM   36  C   UNL     1      44.845 -10.581   7.363  1.00  0.00     0.314 C 
HETATM   37  O   UNL     1      45.599 -11.511   7.101  1.00  0.00    -0.257 OA
BRANCH  36  38
HETATM   38  O   UNL     1      45.246  -9.361   7.821  1.00  0.00    -0.321 OA
HETATM   39  C   UNL     1      45.747  -9.374   9.159  1.00  0.00     0.213 C 
ENDBRANCH  36  38
ENDBRANCH  34  36
ENDBRANCH   5  31
TORSDOF 9
ENDMDL
MODEL 6
REMARK VINA RESULT:      -7.8      3.410      7.810
REMARK  9 active torsions:
REMARK  status: ('A' for Active; 'I' for Inactive)
REMARK       I    between atoms: C_2  and  N_3 
REMARK    1  A    between atoms: N_3  and  C_4 
REMARK    2  A    between atoms: C_7  and  C_8 
REMARK    3  A    between atoms: C_8  and  N_9 
REMARK    4  A    between atoms: C_11  and  C_12 
REMARK       I    between atoms: C_12  and  N_13 
REMARK    5  A    between atoms: N_13  and  C_14 
REMARK    6  A    between atoms: C_16  and  S_17 
REMARK    7  A    between atoms: C_24  and  N_25 
REMARK    8  A    between atoms: C_28  and  C_29 
REMARK    9  A    between atoms: C_29  and  O_30 
ROOT
HETATM    1  N   UNL     1      41.462 -14.406   5.203  1.00  0.00    -0.052 N 
HETATM    2  H   UNL     1      40.533 -13.968   5.105  1.00  0.00     0.281 HD
HETATM    3  C   UNL     1      42.200 -13.689   6.350  1.00  0.00     0.282 C 
HETATM    4  C   UNL     1      43.290 -14.689   6.700  1.00  0.00     0.072 C 
HETATM    5  C   UNL     1      42.585 -16.057   6.578  1.00  0.00     0.134 C 
HETATM    6  C   UNL     1      41.355 -15.830   5.682  1.00  0.00     0.263 C 
ENDROOT
BRANCH   1   7
HETATM    7  C   UNL     1      42.136 -14.244   3.847  1.00  0.00     0.274 C 
BRANCH   7   8
HETATM    8  C   UNL     1      41.198 -14.295   2.675  1.00  0.00    -0.032 A 
HETATM    9  C   UNL     1      40.777 -13.114   2.051  1.00  0.00     0.011 A 
HETATM   10  C   UNL     1      40.013 -13.164   0.880  1.00  0.00     0.030 A 
HETATM   11  C   UNL     1      39.665 -14.387   0.305  1.00  0.00     0.034 A 
HETATM   12  C   UNL     1      40.048 -15.567   0.955  1.00  0.00     0.030 A 
HETATM   13  C   UNL     1      40.807 -15.524   2.129  1.00  0.00     0.011 A 
BRANCH  11  14
HETATM   14  N   UNL     1      38.990 -14.515  -0.925  1.00  0.00    -0.328 N 
HETATM   15  C   UNL     1      39.505 -14.294  -2.190  1.00  0.00     0.218 C 
HETATM   16  C   UNL     1      38.546 -14.689  -3.285  1.00  0.00     0.117 C 
HETATM   17  O   UNL     1      40.623 -13.867  -2.458  1.00  0.00    -0.274 OA
HETATM   18  H   UNL     1      38.041 -14.868  -0.881  1.00  0.00     0.169 HD
ENDBRANCH  11  14
ENDBRANCH   7   8
ENDBRANCH   1   7
BRANCH   3  19
HETATM   19  C   UNL     1      42.519 -12.234   5.969  1.00  0.00     0.253 C 
HETATM   20  N   UNL     1      41.462 -11.367   5.827  1.00  0.00    -0.325 N 
HETATM   21  H   UNL     1      40.530 -11.732   5.665  1.00  0.00     0.169 HD
HETATM   22  O   UNL     1      43.714 -11.939   5.900  1.00  0.00    -0.271 OA
BRANCH  20  23
HETATM   23  C   UNL     1      41.555  -9.952   5.781  1.00  0.00     0.036 A 
HETATM   24  C   UNL     1      41.843  -9.157   6.900  1.00  0.00     0.048 A 
HETATM   25  C   UNL     1      41.891  -7.759   6.808  1.00  0.00     0.002 A 
HETATM   26  C   UNL     1      41.626  -7.158   5.574  1.00  0.00     0.018 A 
HETATM   27  C   UNL     1      41.330  -7.936   4.454  1.00  0.00     0.004 A 
HETATM   28  C   UNL     1      41.291  -9.327   4.558  1.00  0.00     0.029 A 
BRANCH  25  29
HETATM   29  S   UNL     1      42.209  -6.675   8.195  1.00  0.00    -0.134 SA
HETATM   30  C   UNL     1      43.257  -7.684   9.278  1.00  0.00     0.095 C 
ENDBRANCH  25  29
ENDBRANCH  20  23
ENDBRANCH   3  19
BRANCH   5  31
HETATM   31  N   UNL     1      43.405 -17.116   6.033  1.00  0.00    -0.276 N 
HETATM   32  N   UNL     1      44.376 -16.815   5.159  1.00  0.00     0.005 NA
HETATM   33  N   UNL     1      44.756 -17.946   4.580  1.00  0.00    -0.152 NA
HETATM   34  C   UNL     1      44.019 -18.977   5.116  1.00  0.00     0.166 A 
HETATM   35  C   UNL     1      43.170 -18.454   6.075  1.00  0.00     0.147 A 
BRANCH  34  36
HETATM   36  C   UNL     1      44.093 -20.363   4.678  1.00  0.00     0.314 C 
HETATM   37  O   UNL     1      43.830 -21.304   5.417  1.00  0.00    -0.257 OA
BRANCH  36  38
HETATM   38  O   UNL     1      44.425 -20.478   3.361  1.00  0.00    -0.321 OA
HETATM   39  C   UNL     1      43.325 -20.323   2.464  1.00  0.00     0.213 C 
ENDBRANCH  36  38
ENDBRANCH  34  36
ENDBRANCH   5  31
TORSDOF 9
ENDMDL
MODEL 7
REMARK VINA RESULT:      -7.7      2.831      6.190
REMARK  9 active torsions:
REMARK  status: ('A' for Active; 'I' for Inactive)
REMARK       I    between atoms: C_2  and  N_3 
REMARK    1  A    between atoms: N_3  and  C_4 
REMARK    2  A    between atoms: C_7  and  C_8 
REMARK    3  A    between atoms: C_8  and  N_9 
REMARK    4  A    between atoms: C_11  and  C_12 
REMARK       I    between atoms: C_12  and  N_13 
REMARK    5  A    between atoms: N_13  and  C_14 
REMARK    6  A    between atoms: C_16  and  S_17 
REMARK    7  A    between atoms: C_24  and  N_25 
REMARK    8  A    between atoms: C_28  and  C_29 
REMARK    9  A    between atoms: C_29  and  O_30 
ROOT
HETATM    1  N   UNL     1      42.061 -13.424   1.060  1.00  0.00    -0.052 N 
HETATM    2  H   UNL     1      42.701 -12.861   0.479  1.00  0.00     0.281 HD
HETATM    3  C   UNL     1      40.996 -14.034   0.128  1.00  0.00     0.282 C 
HETATM    4  C   UNL     1      40.443 -15.167   0.977  1.00  0.00     0.072 C 
HETATM    5  C   UNL     1      41.691 -15.737   1.686  1.00  0.00     0.134 C 
HETATM    6  C   UNL     1      42.755 -14.626   1.645  1.00  0.00     0.263 C 
ENDROOT
BRANCH   1   7
HETATM    7  C   UNL     1      41.490 -12.459   2.092  1.00  0.00     0.274 C 
BRANCH   7   8
HETATM    8  C   UNL     1      42.297 -12.346   3.353  1.00  0.00    -0.032 A 
HETATM    9  C   UNL     1      43.545 -11.711   3.342  1.00  0.00     0.011 A 
HETATM   10  C   UNL     1      44.237 -11.486   4.537  1.00  0.00     0.030 A 
HETATM   11  C   UNL     1      43.695 -11.878   5.761  1.00  0.00     0.034 A 
HETATM   12  C   UNL     1      42.469 -12.553   5.767  1.00  0.00     0.030 A 
HETATM   13  C   UNL     1      41.774 -12.786   4.575  1.00  0.00     0.011 A 
BRANCH  11  14
HETATM   14  N   UNL     1      44.282 -11.593   7.010  1.00  0.00    -0.328 N 
HETATM   15  C   UNL     1      44.051 -10.488   7.811  1.00  0.00     0.218 C 
HETATM   16  C   UNL     1      44.728 -10.594   9.155  1.00  0.00     0.117 C 
HETATM   17  O   UNL     1      43.352  -9.519   7.534  1.00  0.00    -0.274 OA
HETATM   18  H   UNL     1      44.893 -12.306   7.391  1.00  0.00     0.169 HD
ENDBRANCH  11  14
ENDBRANCH   7   8
ENDBRANCH   1   7
BRANCH   3  19
HETATM   19  C   UNL     1      40.091 -12.938  -0.459  1.00  0.00     0.253 C 
HETATM   20  N   UNL     1      38.757 -12.971  -0.129  1.00  0.00    -0.325 N 
HETATM   21  H   UNL     1      38.343 -13.833   0.207  1.00  0.00     0.169 HD
HETATM   22  O   UNL     1      40.654 -12.063  -1.120  1.00  0.00    -0.271 OA
BRANCH  20  23
HETATM   23  C   UNL     1      37.835 -11.907  -0.312  1.00  0.00     0.036 A 
HETATM   24  C   UNL     1      37.391 -11.474  -1.570  1.00  0.00     0.048 A 
HETATM   25  C   UNL     1      36.504 -10.397  -1.699  1.00  0.00     0.002 A 
HETATM   26  C   UNL     1      36.076  -9.739  -0.542  1.00  0.00     0.018 A 
HETATM   27  C   UNL     1      36.516 -10.153   0.715  1.00  0.00     0.004 A 
HETATM   28  C   UNL     1      37.395 -11.231   0.830  1.00  0.00     0.029 A 
BRANCH  25  29
HETATM   29  S   UNL     1      35.925  -9.759  -3.266  1.00  0.00    -0.134 SA
HETATM   30  C   UNL     1      34.160  -9.465  -2.969  1.00  0.00     0.095 C 
ENDBRANCH  25  29
ENDBRANCH  20  23
ENDBRANCH   3  19
BRANCH   5  31
HETATM   31  N   UNL     1      41.472 -16.163   3.050  1.00  0.00    -0.276 N 
HETATM   32  N   UNL     1      40.251 -16.049   3.590  1.00  0.00     0.005 NA
HETATM   33  N   UNL     1      40.378 -16.197   4.900  1.00  0.00    -0.152 NA
HETATM   34  C   UNL     1      41.705 -16.424   5.185  1.00  0.00     0.166 A 
HETATM   35  C   UNL     1      42.411 -16.436   3.995  1.00  0.00     0.147 A 
BRANCH  34  36
HETATM   36  C   UNL     1      42.254 -16.557   6.526  1.00  0.00     0.314 C 
HETATM   37  O   UNL     1      41.707 -16.080   7.514  1.00  0.00    -0.257 OA
BRANCH  36  38
HETATM   38  O   UNL     1      43.393 -17.307   6.554  1.00  0.00    -0.321 OA
HETATM   39  C   UNL     1      44.588 -16.549   6.751  1.00  0.00     0.213 C 
ENDBRANCH  36  38
ENDBRANCH  34  36
ENDBRANCH   5  31
TORSDOF 9
ENDMDL
MODEL 8
REMARK VINA RESULT:      -7.7      3.822      8.879
REMARK  9 active torsions:
REMARK  status: ('A' for Active; 'I' for Inactive)
REMARK       I    between atoms: C_2  and  N_3 
REMARK    1  A    between atoms: N_3  and  C_4 
REMARK    2  A    between atoms: C_7  and  C_8 
REMARK    3  A    between atoms: C_8  and  N_9 
REMARK    4  A    between atoms: C_11  and  C_12 
REMARK       I    between atoms: C_12  and  N_13 
REMARK    5  A    between atoms: N_13  and  C_14 
REMARK    6  A    between atoms: C_16  and  S_17 
REMARK    7  A    between atoms: C_24  and  N_25 
REMARK    8  A    between atoms: C_28  and  C_29 
REMARK    9  A    between atoms: C_29  and  O_30 
ROOT
HETATM    1  N   UNL     1      39.756 -12.538   1.814  1.00  0.00    -0.052 N 
HETATM    2  H   UNL     1      38.957 -12.737   2.435  1.00  0.00     0.281 HD
HETATM    3  C   UNL     1      39.934 -13.749   0.877  1.00  0.00     0.282 C 
HETATM    4  C   UNL     1      40.773 -13.161  -0.245  1.00  0.00     0.072 C 
HETATM    5  C   UNL     1      40.191 -11.744  -0.435  1.00  0.00     0.134 C 
HETATM    6  C   UNL     1      39.459 -11.399   0.874  1.00  0.00     0.263 C 
ENDROOT
BRANCH   1   7
HETATM    7  C   UNL     1      40.944 -12.302   2.738  1.00  0.00     0.274 C 
BRANCH   7   8
HETATM    8  C   UNL     1      40.589 -11.697   4.066  1.00  0.00    -0.032 A 
HETATM    9  C   UNL     1      39.473 -12.153   4.779  1.00  0.00     0.011 A 
HETATM   10  C   UNL     1      39.218 -11.686   6.073  1.00  0.00     0.030 A 
HETATM   11  C   UNL     1      40.073 -10.767   6.682  1.00  0.00     0.034 A 
HETATM   12  C   UNL     1      41.161 -10.276   5.951  1.00  0.00     0.030 A 
HETATM   13  C   UNL     1      41.419 -10.735   4.655  1.00  0.00     0.011 A 
BRANCH  11  14
HETATM   14  N   UNL     1      39.939 -10.332   8.016  1.00  0.00    -0.328 N 
HETATM   15  C   UNL     1      39.320  -9.177   8.461  1.00  0.00     0.218 C 
HETATM   16  C   UNL     1      39.219  -9.115   9.965  1.00  0.00     0.117 C 
HETATM   17  O   UNL     1      38.846  -8.287   7.763  1.00  0.00    -0.274 OA
HETATM   18  H   UNL     1      40.281 -10.964   8.730  1.00  0.00     0.169 HD
ENDBRANCH  11  14
ENDBRANCH   7   8
ENDBRANCH   1   7
BRANCH   3  19
HETATM   19  C   UNL     1      40.381 -14.990   1.667  1.00  0.00     0.253 C 
HETATM   20  N   UNL     1      41.730 -15.242   1.744  1.00  0.00    -0.325 N 
HETATM   21  H   UNL     1      42.359 -14.830   1.063  1.00  0.00     0.169 HD
HETATM   22  O   UNL     1      39.491 -15.621   2.240  1.00  0.00    -0.271 OA
BRANCH  20  23
HETATM   23  C   UNL     1      42.353 -16.137   2.653  1.00  0.00     0.036 A 
HETATM   24  C   UNL     1      42.336 -15.964   4.045  1.00  0.00     0.048 A 
HETATM   25  C   UNL     1      42.995 -16.860   4.898  1.00  0.00     0.002 A 
HETATM   26  C   UNL     1      43.694 -17.932   4.335  1.00  0.00     0.018 A 
HETATM   27  C   UNL     1      43.726 -18.111   2.952  1.00  0.00     0.004 A 
HETATM   28  C   UNL     1      43.061 -17.215   2.114  1.00  0.00     0.029 A 
BRANCH  25  29
HETATM   29  S   UNL     1      43.056 -16.686   6.677  1.00  0.00    -0.134 SA
HETATM   30  C   UNL     1      43.333 -14.909   6.912  1.00  0.00     0.095 C 
ENDBRANCH  25  29
ENDBRANCH  20  23
ENDBRANCH   3  19
BRANCH   5  31
HETATM   31  N   UNL     1      41.168 -10.722  -0.739  1.00  0.00    -0.276 N 
HETATM   32  N   UNL     1      41.814 -10.108   0.262  1.00  0.00     0.005 NA
HETATM   33  N   UNL     1      42.395  -9.028  -0.241  1.00  0.00    -0.152 NA
HETATM   34  C   UNL     1      42.120  -8.975  -1.589  1.00  0.00     0.166 A 
HETATM   35  C   UNL     1      41.357 -10.080  -1.922  1.00  0.00     0.147 A 
BRANCH  34  36
HETATM   36  C   UNL     1      42.518  -7.891  -2.473  1.00  0.00     0.314 C 
HETATM   37  O   UNL     1      41.980  -7.690  -3.556  1.00  0.00    -0.257 OA
BRANCH  36  38
HETATM   38  O   UNL     1      43.500  -7.111  -1.937  1.00  0.00    -0.321 OA
HETATM   39  C   UNL     1      43.173  -5.722  -1.871  1.00  0.00     0.213 C 
ENDBRANCH  36  38
ENDBRANCH  34  36
ENDBRANCH   5  31
TORSDOF 9
ENDMDL
MODEL 9
REMARK VINA RESULT:      -7.7      2.183      2.921
REMARK  9 active torsions:
REMARK  status: ('A' for Active; 'I' for Inactive)
REMARK       I    between atoms: C_2  and  N_3 
REMARK    1  A    between atoms: N_3  and  C_4 
REMARK    2  A    between atoms: C_7  and  C_8 
REMARK    3  A    between atoms: C_8  and  N_9 
REMARK    4  A    between atoms: C_11  and  C_12 
REMARK       I    between atoms: C_12  and  N_13 
REMARK    5  A    between atoms: N_13  and  C_14 
REMARK    6  A    between atoms: C_16  and  S_17 
REMARK    7  A    between atoms: C_24  and  N_25 
REMARK    8  A    between atoms: C_28  and  C_29 
REMARK    9  A    between atoms: C_29  and  O_30 
ROOT
HETATM    1  N   UNL     1      40.394 -11.271   5.207  1.00  0.00    -0.052 N 
HETATM    2  H   UNL     1      39.973 -12.202   5.062  1.00  0.00     0.281 HD
HETATM    3  C   UNL     1      39.526 -10.243   4.456  1.00  0.00     0.282 C 
HETATM    4  C   UNL     1      39.940  -8.937   5.116  1.00  0.00     0.072 C 
HETATM    5  C   UNL     1      40.098  -9.312   6.605  1.00  0.00     0.134 C 
HETATM    6  C   UNL     1      40.297 -10.838   6.647  1.00  0.00     0.263 C 
ENDROOT
BRANCH   1   7
HETATM    7  C   UNL     1      41.816 -11.378   4.672  1.00  0.00     0.274 C 
BRANCH   7   8
HETATM    8  C   UNL     1      42.206 -12.752   4.209  1.00  0.00    -0.032 A 
HETATM    9  C   UNL     1      41.968 -13.869   5.019  1.00  0.00     0.011 A 
HETATM   10  C   UNL     1      42.206 -15.160   4.536  1.00  0.00     0.030 A 
HETATM   11  C   UNL     1      42.675 -15.362   3.237  1.00  0.00     0.034 A 
HETATM   12  C   UNL     1      42.957 -14.243   2.444  1.00  0.00     0.030 A 
HETATM   13  C   UNL     1      42.726 -12.949   2.923  1.00  0.00     0.011 A 
BRANCH  11  14
HETATM   14  N   UNL     1      42.839 -16.631   2.647  1.00  0.00    -0.328 N 
HETATM   15  C   UNL     1      43.487 -17.728   3.189  1.00  0.00     0.218 C 
HETATM   16  C   UNL     1      43.325 -18.970   2.349  1.00  0.00     0.117 C 
HETATM   17  O   UNL     1      44.103 -17.762   4.248  1.00  0.00    -0.274 OA
HETATM   18  H   UNL     1      42.379 -16.774   1.756  1.00  0.00     0.169 HD
ENDBRANCH  11  14
ENDBRANCH   7   8
ENDBRANCH   1   7
BRANCH   3  19
HETATM   19  C   UNL     1      39.620 -10.454   2.936  1.00  0.00     0.253 C 
HETATM   20  N   UNL     1      38.988 -11.555   2.408  1.00  0.00    -0.325 N 
HETATM   21  H   UNL     1      38.757 -12.339   3.008  1.00  0.00     0.169 HD
HETATM   22  O   UNL     1      40.191  -9.568   2.297  1.00  0.00    -0.271 OA
BRANCH  20  23
HETATM   23  C   UNL     1      38.702 -11.762   1.033  1.00  0.00     0.036 A 
HETATM   24  C   UNL     1      39.421 -12.648   0.217  1.00  0.00     0.048 A 
HETATM   25  C   UNL     1      39.120 -12.792  -1.144  1.00  0.00     0.002 A 
HETATM   26  C   UNL     1      38.092 -12.018  -1.690  1.00  0.00     0.018 A 
HETATM   27  C   UNL     1      37.375 -11.126  -0.892  1.00  0.00     0.004 A 
HETATM   28  C   UNL     1      37.681 -10.996   0.463  1.00  0.00     0.029 A 
BRANCH  25  29
HETATM   29  S   UNL     1      40.016 -13.868  -2.259  1.00  0.00    -0.134 SA
HETATM   30  C   UNL     1      38.698 -14.808  -3.076  1.00  0.00     0.095 C 
ENDBRANCH  25  29
ENDBRANCH  20  23
ENDBRANCH   3  19
BRANCH   5  31
HETATM   31  N   UNL     1      41.191  -8.653   7.285  1.00  0.00    -0.276 N 
HETATM   32  N   UNL     1      41.646  -7.480   6.820  1.00  0.00     0.005 NA
HETATM   33  N   UNL     1      42.816  -7.250   7.397  1.00  0.00    -0.152 NA
HETATM   34  C   UNL     1      43.091  -8.291   8.254  1.00  0.00     0.166 A 
HETATM   35  C   UNL     1      42.034  -9.182   8.211  1.00  0.00     0.147 A 
BRANCH  34  36
HETATM   36  C   UNL     1      44.325  -8.437   9.011  1.00  0.00     0.314 C 
HETATM   37  O   UNL     1      44.348  -8.865  10.159  1.00  0.00    -0.257 OA
BRANCH  36  38
HETATM   38  O   UNL     1      45.428  -8.103   8.283  1.00  0.00    -0.321 OA
HETATM   39  C   UNL     1      46.283  -9.206   7.976  1.00  0.00     0.213 C 
ENDBRANCH  36  38
ENDBRANCH  34  36
ENDBRANCH   5  31
TORSDOF 9
ENDMDL
MODEL 10
REMARK VINA RESULT:      -7.6      3.171      6.684
REMARK  9 active torsions:
REMARK  status: ('A' for Active; 'I' for Inactive)
REMARK       I    between atoms: C_2  and  N_3 
REMARK    1  A    between atoms: N_3  and  C_4 
REMARK    2  A    between atoms: C_7  and  C_8 
REMARK    3  A    between atoms: C_8  and  N_9 
REMARK    4  A    between atoms: C_11  and  C_12 
REMARK       I    between atoms: C_12  and  N_13 
REMARK    5  A    between atoms: N_13  and  C_14 
REMARK    6  A    between atoms: C_16  and  S_17 
REMARK    7  A    between atoms: C_24  and  N_25 
REMARK    8  A    between atoms: C_28  and  C_29 
REMARK    9  A    between atoms: C_29  and  O_30 
ROOT
HETATM    1  N   UNL     1      40.995 -13.654   4.701  1.00  0.00    -0.052 N 
HETATM    2  H   UNL     1      40.052 -13.307   4.469  1.00  0.00     0.281 HD
HETATM    3  C   UNL     1      41.647 -12.636   5.657  1.00  0.00     0.282 C 
HETATM    4  C   UNL     1      42.767 -13.457   6.276  1.00  0.00     0.072 C 
HETATM    5  C   UNL     1      42.135 -14.851   6.474  1.00  0.00     0.134 C 
HETATM    6  C   UNL     1      40.936 -14.922   5.512  1.00  0.00     0.263 C 
ENDROOT
BRANCH   1   7
HETATM    7  C   UNL     1      41.719 -13.790   3.368  1.00  0.00     0.274 C 
BRANCH   7   8
HETATM    8  C   UNL     1      40.813 -13.902   2.175  1.00  0.00    -0.032 A 
HETATM    9  C   UNL     1      40.249 -12.756   1.601  1.00  0.00     0.011 A 
HETATM   10  C   UNL     1      39.515 -12.844   0.414  1.00  0.00     0.030 A 
HETATM   11  C   UNL     1      39.340 -14.070  -0.228  1.00  0.00     0.034 A 
HETATM   12  C   UNL     1      39.865 -15.222   0.370  1.00  0.00     0.030 A 
HETATM   13  C   UNL     1      40.595 -15.141   1.561  1.00  0.00     0.011 A 
BRANCH  11  14
HETATM   14  N   UNL     1      38.705 -14.222  -1.477  1.00  0.00    -0.328 N 
HETATM   15  C   UNL     1      39.306 -14.261  -2.723  1.00  0.00     0.218 C 
HETATM   16  C   UNL     1      38.336 -14.602  -3.826  1.00  0.00     0.117 C 
HETATM   17  O   UNL     1      40.496 -14.088  -2.964  1.00  0.00    -0.274 OA
HETATM   18  H   UNL     1      37.705 -14.382  -1.455  1.00  0.00     0.169 HD
ENDBRANCH  11  14
ENDBRANCH   7   8
ENDBRANCH   1   7
BRANCH   3  19
HETATM   19  C   UNL     1      41.912 -11.303   4.940  1.00  0.00     0.253 C 
HETATM   20  N   UNL     1      40.822 -10.545   4.584  1.00  0.00    -0.325 N 
HETATM   21  H   UNL     1      39.909 -10.981   4.506  1.00  0.00     0.169 HD
HETATM   22  O   UNL     1      43.095 -10.980   4.811  1.00  0.00    -0.271 OA
BRANCH  20  23
HETATM   23  C   UNL     1      40.856  -9.180   4.198  1.00  0.00     0.036 A 
HETATM   24  C   UNL     1      40.505  -8.727   2.917  1.00  0.00     0.048 A 
HETATM   25  C   UNL     1      40.588  -7.370   2.577  1.00  0.00     0.002 A 
HETATM   26  C   UNL     1      41.049  -6.464   3.536  1.00  0.00     0.018 A 
HETATM   27  C   UNL     1      41.410  -6.901   4.811  1.00  0.00     0.004 A 
HETATM   28  C   UNL     1      41.317  -8.254   5.139  1.00  0.00     0.029 A 
BRANCH  25  29
HETATM   29  S   UNL     1      40.199  -6.720   0.956  1.00  0.00    -0.134 SA
HETATM   30  C   UNL     1      41.304  -7.650  -0.141  1.00  0.00     0.095 C 
ENDBRANCH  25  29
ENDBRANCH  20  23
ENDBRANCH   3  19
BRANCH   5  31
HETATM   31  N   UNL     1      43.029 -15.962   6.232  1.00  0.00    -0.276 N 
HETATM   32  N   UNL     1      44.345 -15.807   6.433  1.00  0.00     0.005 NA
HETATM   33  N   UNL     1      44.960 -16.827   5.852  1.00  0.00    -0.152 NA
HETATM   34  C   UNL     1      44.007 -17.646   5.291  1.00  0.00     0.166 A 
HETATM   35  C   UNL     1      42.760 -17.113   5.560  1.00  0.00     0.147 A 
BRANCH  34  36
HETATM   36  C   UNL     1      44.297 -18.830   4.496  1.00  0.00     0.314 C 
HETATM   37  O   UNL     1      44.532 -19.922   4.998  1.00  0.00    -0.257 OA
BRANCH  36  38
HETATM   38  O   UNL     1      44.221 -18.591   3.155  1.00  0.00    -0.321 OA
HETATM   39  C   UNL     1      43.498 -19.584   2.425  1.00  0.00     0.213 C 
ENDBRANCH  36  38
ENDBRANCH  34  36
ENDBRANCH   5  31
TORSDOF 9
ENDMDL
