MODEL 1
REMARK VINA RESULT:      -8.8      0.000      0.000
REMARK  5 active torsions:
REMARK  status: ('A' for Active; 'I' for Inactive)
REMARK    1  A    between atoms: C_9  and  C_10 
REMARK    2  A    between atoms: C_11  and  O_12 
REMARK    3  A    between atoms: O_12  and  C_13 
REMARK    4  A    between atoms: C_20  and  C_21 
REMARK       I    between atoms: C_21  and  N_22 
REMARK    5  A    between atoms: N_22  and  C_23 
ROOT
HETATM    1  C   UNL     1      43.081 -15.977   8.113  1.00  0.00     0.070 C 
HETATM    2  C   UNL     1      43.089 -14.847   7.116  1.00  0.00     0.037 A 
HETATM    3  N   UNL     1      43.421 -13.597   7.626  1.00  0.00    -0.192 N 
HETATM    4  C   UNL     1      43.618 -12.511   6.853  1.00  0.00     0.725 A 
HETATM    5  N   UNL     1      43.400 -12.596   5.504  1.00  0.00    -0.084 N 
HETATM    6  N   UNL     1      43.723 -11.440   4.882  1.00  0.00    -0.149 NA
HETATM    7  C   UNL     1      44.087 -10.691   5.929  1.00  0.00     0.275 A 
HETATM    8  N   UNL     1      44.030 -11.305   7.153  1.00  0.00    -0.054 NA
HETATM    9  C   UNL     1      42.965 -13.818   4.818  1.00  0.00     0.205 A 
HETATM   10  C   UNL     1      42.849 -14.986   5.788  1.00  0.00     0.063 A 
HETATM   11  H   UNL     1      43.629 -13.529   8.618  1.00  0.00     0.184 HD
ENDROOT
BRANCH   9  12
HETATM   12  C   UNL     1      41.685 -13.555   4.022  1.00  0.00     0.005 A 
HETATM   13  C   UNL     1      41.603 -13.731   2.625  1.00  0.00     0.083 A 
HETATM   14  C   UNL     1      40.399 -13.468   1.961  1.00  0.00     0.037 A 
HETATM   15  C   UNL     1      39.273 -13.052   2.675  1.00  0.00     0.003 A 
HETATM   16  C   UNL     1      39.343 -12.881   4.052  1.00  0.00     0.001 A 
HETATM   17  C   UNL     1      40.540 -13.127   4.721  1.00  0.00     0.012 A 
BRANCH  13  18
HETATM   18  O   UNL     1      42.755 -14.100   1.985  1.00  0.00    -0.290 OA
BRANCH  18  19
HETATM   19  C   UNL     1      42.694 -15.292   1.219  1.00  0.00     0.505 C 
HETATM   20  F   UNL     1      43.912 -15.891   1.249  1.00  0.00    -0.184 F 
HETATM   21  F   UNL     1      41.844 -16.135   1.859  1.00  0.00    -0.184 F 
ENDBRANCH  18  19
ENDBRANCH  13  18
ENDBRANCH   9  12
BRANCH  10  22
HETATM   22  C   UNL     1      42.540 -16.281   5.132  1.00  0.00     0.256 C 
HETATM   23  N   UNL     1      43.659 -17.054   4.910  1.00  0.00    -0.323 N 
HETATM   24  H   UNL     1      44.543 -16.680   5.231  1.00  0.00     0.169 HD
HETATM   25  O   UNL     1      41.371 -16.558   4.898  1.00  0.00    -0.267 OA
BRANCH  23  26
HETATM   26  C   UNL     1      43.714 -18.319   4.291  1.00  0.00     0.035 A 
HETATM   27  C   UNL     1      43.534 -18.526   2.921  1.00  0.00     0.029 A 
HETATM   28  C   UNL     1      43.615 -19.814   2.382  1.00  0.00     0.002 A 
HETATM   29  C   UNL     1      43.882 -20.904   3.206  1.00  0.00     0.000 A 
HETATM   30  C   UNL     1      44.064 -20.709   4.571  1.00  0.00     0.002 A 
HETATM   31  C   UNL     1      43.976 -19.423   5.112  1.00  0.00     0.029 A 
ENDBRANCH  23  26
ENDBRANCH  10  22
TORSDOF 5
ENDMDL
MODEL 2
REMARK VINA RESULT:      -8.6      3.049      6.084
REMARK  5 active torsions:
REMARK  status: ('A' for Active; 'I' for Inactive)
REMARK    1  A    between atoms: C_9  and  C_10 
REMARK    2  A    between atoms: C_11  and  O_12 
REMARK    3  A    between atoms: O_12  and  C_13 
REMARK    4  A    between atoms: C_20  and  C_21 
REMARK       I    between atoms: C_21  and  N_22 
REMARK    5  A    between atoms: N_22  and  C_23 
ROOT
HETATM    1  C   UNL     1      41.375  -9.960   1.228  1.00  0.00     0.070 C 
HETATM    2  C   UNL     1      41.800 -10.988   2.244  1.00  0.00     0.037 A 
HETATM    3  N   UNL     1      42.837 -10.607   3.088  1.00  0.00    -0.192 N 
HETATM    4  C   UNL     1      43.241 -11.342   4.143  1.00  0.00     0.725 A 
HETATM    5  N   UNL     1      42.677 -12.570   4.363  1.00  0.00    -0.084 N 
HETATM    6  N   UNL     1      43.145 -13.126   5.503  1.00  0.00    -0.149 NA
HETATM    7  C   UNL     1      44.019 -12.190   5.892  1.00  0.00     0.275 A 
HETATM    8  N   UNL     1      44.114 -11.088   5.084  1.00  0.00    -0.054 NA
HETATM    9  C   UNL     1      41.631 -13.156   3.518  1.00  0.00     0.205 A 
HETATM   10  C   UNL     1      41.214 -12.200   2.408  1.00  0.00     0.063 A 
HETATM   11  H   UNL     1      43.234  -9.679   2.965  1.00  0.00     0.184 HD
ENDROOT
BRANCH   9  12
HETATM   12  C   UNL     1      42.068 -14.532   3.007  1.00  0.00     0.005 A 
HETATM   13  C   UNL     1      41.500 -15.736   3.471  1.00  0.00     0.083 A 
HETATM   14  C   UNL     1      41.951 -16.959   2.961  1.00  0.00     0.037 A 
HETATM   15  C   UNL     1      42.945 -16.995   1.981  1.00  0.00     0.003 A 
HETATM   16  C   UNL     1      43.507 -15.813   1.514  1.00  0.00     0.001 A 
HETATM   17  C   UNL     1      43.075 -14.590   2.025  1.00  0.00     0.012 A 
BRANCH  13  18
HETATM   18  O   UNL     1      40.560 -15.629   4.460  1.00  0.00    -0.290 OA
BRANCH  18  19
HETATM   19  C   UNL     1      40.790 -16.396   5.632  1.00  0.00     0.505 C 
HETATM   20  F   UNL     1      41.888 -15.909   6.262  1.00  0.00    -0.184 F 
HETATM   21  F   UNL     1      39.744 -16.170   6.467  1.00  0.00    -0.184 F 
ENDBRANCH  18  19
ENDBRANCH  13  18
ENDBRANCH   9  12
BRANCH  10  22
HETATM   22  C   UNL     1      40.067 -12.683   1.600  1.00  0.00     0.256 C 
HETATM   23  N   UNL     1      40.357 -12.784   0.257  1.00  0.00    -0.323 N 
HETATM   24  H   UNL     1      41.301 -12.549  -0.025  1.00  0.00     0.169 HD
HETATM   25  O   UNL     1      39.028 -12.981   2.174  1.00  0.00    -0.267 OA
BRANCH  23  26
HETATM   26  C   UNL     1      39.489 -13.188  -0.776  1.00  0.00     0.035 A 
HETATM   27  C   UNL     1      38.415 -12.423  -1.237  1.00  0.00     0.029 A 
HETATM   28  C   UNL     1      37.605 -12.891  -2.276  1.00  0.00     0.002 A 
HETATM   29  C   UNL     1      37.865 -14.124  -2.868  1.00  0.00     0.000 A 
HETATM   30  C   UNL     1      38.933 -14.894  -2.418  1.00  0.00     0.002 A 
HETATM   31  C   UNL     1      39.738 -14.430  -1.375  1.00  0.00     0.029 A 
ENDBRANCH  23  26
ENDBRANCH  10  22
TORSDOF 5
ENDMDL
MODEL 3
REMARK VINA RESULT:      -8.5      2.593      4.702
REMARK  5 active torsions:
REMARK  status: ('A' for Active; 'I' for Inactive)
REMARK    1  A    between atoms: C_9  and  C_10 
REMARK    2  A    between atoms: C_11  and  O_12 
REMARK    3  A    between atoms: O_12  and  C_13 
REMARK    4  A    between atoms: C_20  and  C_21 
REMARK       I    between atoms: C_21  and  N_22 
REMARK    5  A    between atoms: N_22  and  C_23 
ROOT
HETATM    1  C   UNL     1      40.979 -13.311   0.521  1.00  0.00     0.070 C 
HETATM    2  C   UNL     1      40.877 -12.947   1.981  1.00  0.00     0.037 A 
HETATM    3  N   UNL     1      39.974 -11.935   2.287  1.00  0.00    -0.192 N 
HETATM    4  C   UNL     1      39.651 -11.588   3.547  1.00  0.00     0.725 A 
HETATM    5  N   UNL     1      40.296 -12.187   4.597  1.00  0.00    -0.084 N 
HETATM    6  N   UNL     1      39.790 -11.775   5.781  1.00  0.00    -0.149 NA
HETATM    7  C   UNL     1      38.871 -10.896   5.364  1.00  0.00     0.275 A 
HETATM    8  N   UNL     1      38.760 -10.746   4.006  1.00  0.00    -0.054 NA
HETATM    9  C   UNL     1      41.334 -13.213   4.445  1.00  0.00     0.205 A 
HETATM   10  C   UNL     1      41.553 -13.566   2.980  1.00  0.00     0.063 A 
HETATM   11  H   UNL     1      39.455 -11.514   1.521  1.00  0.00     0.184 HD
ENDROOT
BRANCH   9  12
HETATM   12  C   UNL     1      42.613 -12.787   5.169  1.00  0.00     0.005 A 
HETATM   13  C   UNL     1      43.039 -13.374   6.379  1.00  0.00     0.083 A 
HETATM   14  C   UNL     1      44.219 -12.932   6.988  1.00  0.00     0.037 A 
HETATM   15  C   UNL     1      44.989 -11.928   6.397  1.00  0.00     0.003 A 
HETATM   16  C   UNL     1      44.580 -11.348   5.202  1.00  0.00     0.001 A 
HETATM   17  C   UNL     1      43.400 -11.770   4.594  1.00  0.00     0.012 A 
BRANCH  13  18
HETATM   18  O   UNL     1      42.216 -14.322   6.923  1.00  0.00    -0.290 OA
BRANCH  18  19
HETATM   19  C   UNL     1      42.833 -15.534   7.327  1.00  0.00     0.505 C 
HETATM   20  F   UNL     1      42.999 -15.509   8.673  1.00  0.00    -0.184 F 
HETATM   21  F   UNL     1      41.950 -16.534   7.074  1.00  0.00    -0.184 F 
ENDBRANCH  18  19
ENDBRANCH  13  18
ENDBRANCH   9  12
BRANCH  10  22
HETATM   22  C   UNL     1      42.498 -14.691   2.770  1.00  0.00     0.256 C 
HETATM   23  N   UNL     1      42.062 -15.873   3.327  1.00  0.00    -0.323 N 
HETATM   24  H   UNL     1      41.159 -15.856   3.786  1.00  0.00     0.169 HD
HETATM   25  O   UNL     1      43.511 -14.494   2.113  1.00  0.00    -0.267 OA
BRANCH  23  26
HETATM   26  C   UNL     1      42.727 -17.115   3.327  1.00  0.00     0.035 A 
HETATM   27  C   UNL     1      43.577 -17.546   4.348  1.00  0.00     0.029 A 
HETATM   28  C   UNL     1      44.192 -18.800   4.277  1.00  0.00     0.002 A 
HETATM   29  C   UNL     1      43.959 -19.635   3.189  1.00  0.00     0.000 A 
HETATM   30  C   UNL     1      43.114 -19.217   2.166  1.00  0.00     0.002 A 
HETATM   31  C   UNL     1      42.505 -17.961   2.233  1.00  0.00     0.029 A 
ENDBRANCH  23  26
ENDBRANCH  10  22
TORSDOF 5
ENDMDL
MODEL 4
REMARK VINA RESULT:      -8.5      2.954      4.780
REMARK  5 active torsions:
REMARK  status: ('A' for Active; 'I' for Inactive)
REMARK    1  A    between atoms: C_9  and  C_10 
REMARK    2  A    between atoms: C_11  and  O_12 
REMARK    3  A    between atoms: O_12  and  C_13 
REMARK    4  A    between atoms: C_20  and  C_21 
REMARK       I    between atoms: C_21  and  N_22 
REMARK    5  A    between atoms: N_22  and  C_23 
ROOT
HETATM    1  C   UNL     1      39.922 -14.936   0.155  1.00  0.00     0.070 C 
HETATM    2  C   UNL     1      39.870 -13.962   1.305  1.00  0.00     0.037 A 
HETATM    3  N   UNL     1      39.353 -12.707   1.008  1.00  0.00    -0.192 N 
HETATM    4  C   UNL     1      39.099 -11.770   1.942  1.00  0.00     0.725 A 
HETATM    5  N   UNL     1      39.441 -12.011   3.246  1.00  0.00    -0.084 N 
HETATM    6  N   UNL     1      39.042 -11.001   4.051  1.00  0.00    -0.149 NA
HETATM    7  C   UNL     1      38.504 -10.168   3.153  1.00  0.00     0.275 A 
HETATM    8  N   UNL     1      38.526 -10.598   1.851  1.00  0.00    -0.054 NA
HETATM    9  C   UNL     1      40.073 -13.250   3.714  1.00  0.00     0.205 A 
HETATM   10  C   UNL     1      40.239 -14.250   2.578  1.00  0.00     0.063 A 
HETATM   11  H   UNL     1      39.052 -12.531   0.053  1.00  0.00     0.184 HD
ENDROOT
BRANCH   9  12
HETATM   12  C   UNL     1      41.379 -12.938   4.449  1.00  0.00     0.005 A 
HETATM   13  C   UNL     1      41.652 -13.399   5.754  1.00  0.00     0.083 A 
HETATM   14  C   UNL     1      42.867 -13.072   6.366  1.00  0.00     0.037 A 
HETATM   15  C   UNL     1      43.819 -12.309   5.688  1.00  0.00     0.003 A 
HETATM   16  C   UNL     1      43.561 -11.854   4.401  1.00  0.00     0.001 A 
HETATM   17  C   UNL     1      42.349 -12.162   3.786  1.00  0.00     0.012 A 
BRANCH  13  18
HETATM   18  O   UNL     1      40.658 -14.107   6.373  1.00  0.00    -0.290 OA
BRANCH  18  19
HETATM   19  C   UNL     1      40.879 -15.499   6.528  1.00  0.00     0.505 C 
HETATM   20  F   UNL     1      41.749 -15.690   7.552  1.00  0.00    -0.184 F 
HETATM   21  F   UNL     1      39.703 -16.049   6.924  1.00  0.00    -0.184 F 
ENDBRANCH  18  19
ENDBRANCH  13  18
ENDBRANCH   9  12
BRANCH  10  22
HETATM   22  C   UNL     1      40.751 -15.573   3.015  1.00  0.00     0.256 C 
HETATM   23  N   UNL     1      42.121 -15.679   2.922  1.00  0.00    -0.323 N 
HETATM   24  H   UNL     1      42.622 -14.859   2.600  1.00  0.00     0.169 HD
HETATM   25  O   UNL     1      39.956 -16.400   3.443  1.00  0.00    -0.267 OA
BRANCH  23  26
HETATM   26  C   UNL     1      42.915 -16.800   3.235  1.00  0.00     0.035 A 
HETATM   27  C   UNL     1      43.072 -17.904   2.394  1.00  0.00     0.029 A 
HETATM   28  C   UNL     1      43.888 -18.975   2.774  1.00  0.00     0.002 A 
HETATM   29  C   UNL     1      44.558 -18.948   3.994  1.00  0.00     0.000 A 
HETATM   30  C   UNL     1      44.410 -17.853   4.839  1.00  0.00     0.002 A 
HETATM   31  C   UNL     1      43.589 -16.786   4.463  1.00  0.00     0.029 A 
ENDBRANCH  23  26
ENDBRANCH  10  22
TORSDOF 5
ENDMDL
MODEL 5
REMARK VINA RESULT:      -8.0      2.009      2.529
REMARK  5 active torsions:
REMARK  status: ('A' for Active; 'I' for Inactive)
REMARK    1  A    between atoms: C_9  and  C_10 
REMARK    2  A    between atoms: C_11  and  O_12 
REMARK    3  A    between atoms: O_12  and  C_13 
REMARK    4  A    between atoms: C_20  and  C_21 
REMARK       I    between atoms: C_21  and  N_22 
REMARK    5  A    between atoms: N_22  and  C_23 
ROOT
HETATM    1  C   UNL     1      42.821 -15.778   7.987  1.00  0.00     0.070 C 
HETATM    2  C   UNL     1      42.919 -14.725   6.913  1.00  0.00     0.037 A 
HETATM    3  N   UNL     1      43.251 -13.448   7.351  1.00  0.00    -0.192 N 
HETATM    4  C   UNL     1      43.523 -12.427   6.516  1.00  0.00     0.725 A 
HETATM    5  N   UNL     1      43.386 -12.607   5.165  1.00  0.00    -0.084 N 
HETATM    6  N   UNL     1      43.776 -11.507   4.483  1.00  0.00    -0.149 NA
HETATM    7  C   UNL     1      44.094 -10.690   5.494  1.00  0.00     0.275 A 
HETATM    8  N   UNL     1      43.946 -11.211   6.753  1.00  0.00    -0.054 NA
HETATM    9  C   UNL     1      42.963 -13.867   4.544  1.00  0.00     0.205 A 
HETATM   10  C   UNL     1      42.758 -14.957   5.587  1.00  0.00     0.063 A 
HETATM   11  H   UNL     1      43.400 -13.311   8.347  1.00  0.00     0.184 HD
ENDROOT
BRANCH   9  12
HETATM   12  C   UNL     1      41.741 -13.637   3.652  1.00  0.00     0.005 A 
HETATM   13  C   UNL     1      40.470 -13.304   4.165  1.00  0.00     0.083 A 
HETATM   14  C   UNL     1      39.396 -13.110   3.290  1.00  0.00     0.037 A 
HETATM   15  C   UNL     1      39.577 -13.226   1.910  1.00  0.00     0.003 A 
HETATM   16  C   UNL     1      40.826 -13.549   1.394  1.00  0.00     0.001 A 
HETATM   17  C   UNL     1      41.900 -13.757   2.258  1.00  0.00     0.012 A 
BRANCH  13  18
HETATM   18  O   UNL     1      40.356 -13.247   5.528  1.00  0.00    -0.290 OA
BRANCH  18  19
HETATM   19  C   UNL     1      40.081 -11.972   6.084  1.00  0.00     0.505 C 
HETATM   20  F   UNL     1      40.596 -11.020   5.266  1.00  0.00    -0.184 F 
HETATM   21  F   UNL     1      38.734 -11.806   6.054  1.00  0.00    -0.184 F 
ENDBRANCH  18  19
ENDBRANCH  13  18
ENDBRANCH   9  12
BRANCH  10  22
HETATM   22  C   UNL     1      42.457 -16.291   5.008  1.00  0.00     0.256 C 
HETATM   23  N   UNL     1      43.578 -16.944   4.545  1.00  0.00    -0.323 N 
HETATM   24  H   UNL     1      44.465 -16.470   4.667  1.00  0.00     0.169 HD
HETATM   25  O   UNL     1      41.302 -16.695   5.034  1.00  0.00    -0.267 OA
BRANCH  23  26
HETATM   26  C   UNL     1      43.635 -18.207   3.923  1.00  0.00     0.035 A 
HETATM   27  C   UNL     1      43.372 -18.423   2.569  1.00  0.00     0.029 A 
HETATM   28  C   UNL     1      43.461 -19.709   2.025  1.00  0.00     0.002 A 
HETATM   29  C   UNL     1      43.818 -20.787   2.829  1.00  0.00     0.000 A 
HETATM   30  C   UNL     1      44.083 -20.584   4.180  1.00  0.00     0.002 A 
HETATM   31  C   UNL     1      43.987 -19.300   4.725  1.00  0.00     0.029 A 
ENDBRANCH  23  26
ENDBRANCH  10  22
TORSDOF 5
ENDMDL
MODEL 6
REMARK VINA RESULT:      -7.9      2.486      4.208
REMARK  5 active torsions:
REMARK  status: ('A' for Active; 'I' for Inactive)
REMARK    1  A    between atoms: C_9  and  C_10 
REMARK    2  A    between atoms: C_11  and  O_12 
REMARK    3  A    between atoms: O_12  and  C_13 
REMARK    4  A    between atoms: C_20  and  C_21 
REMARK       I    between atoms: C_21  and  N_22 
REMARK    5  A    between atoms: N_22  and  C_23 
ROOT
HETATM    1  C   UNL     1      39.900 -14.749   1.129  1.00  0.00     0.070 C 
HETATM    2  C   UNL     1      39.954 -13.926   2.390  1.00  0.00     0.037 A 
HETATM    3  N   UNL     1      39.455 -12.633   2.287  1.00  0.00    -0.192 N 
HETATM    4  C   UNL     1      39.292 -11.816   3.345  1.00  0.00     0.725 A 
HETATM    5  N   UNL     1      39.714 -12.225   4.582  1.00  0.00    -0.084 N 
HETATM    6  N   UNL     1      39.400 -11.315   5.532  1.00  0.00    -0.149 NA
HETATM    7  C   UNL     1      38.827 -10.366   4.783  1.00  0.00     0.275 A 
HETATM    8  N   UNL     1      38.749 -10.629   3.440  1.00  0.00    -0.054 NA
HETATM    9  C   UNL     1      40.339 -13.525   4.848  1.00  0.00     0.205 A 
HETATM   10  C   UNL     1      40.399 -14.379   3.589  1.00  0.00     0.063 A 
HETATM   11  H   UNL     1      39.096 -12.333   1.384  1.00  0.00     0.184 HD
ENDROOT
BRANCH   9  12
HETATM   12  C   UNL     1      41.700 -13.334   5.523  1.00  0.00     0.005 A 
HETATM   13  C   UNL     1      42.628 -12.355   5.110  1.00  0.00     0.083 A 
HETATM   14  C   UNL     1      43.856 -12.239   5.772  1.00  0.00     0.037 A 
HETATM   15  C   UNL     1      44.162 -13.073   6.849  1.00  0.00     0.003 A 
HETATM   16  C   UNL     1      43.252 -14.038   7.265  1.00  0.00     0.001 A 
HETATM   17  C   UNL     1      42.032 -14.171   6.606  1.00  0.00     0.012 A 
BRANCH  13  18
HETATM   18  O   UNL     1      42.279 -11.601   4.023  1.00  0.00    -0.290 OA
BRANCH  18  19
HETATM   19  C   UNL     1      43.098 -11.739   2.873  1.00  0.00     0.505 C 
HETATM   20  F   UNL     1      43.303 -13.060   2.641  1.00  0.00    -0.184 F 
HETATM   21  F   UNL     1      42.383 -11.277   1.816  1.00  0.00    -0.184 F 
ENDBRANCH  18  19
ENDBRANCH  13  18
ENDBRANCH   9  12
BRANCH  10  22
HETATM   22  C   UNL     1      40.901 -15.756   3.822  1.00  0.00     0.256 C 
HETATM   23  N   UNL     1      42.135 -15.985   3.254  1.00  0.00    -0.323 N 
HETATM   24  H   UNL     1      42.567 -15.205   2.773  1.00  0.00     0.169 HD
HETATM   25  O   UNL     1      40.230 -16.519   4.505  1.00  0.00    -0.267 OA
BRANCH  23  26
HETATM   26  C   UNL     1      42.874 -17.184   3.272  1.00  0.00     0.035 A 
HETATM   27  C   UNL     1      43.802 -17.514   4.262  1.00  0.00     0.029 A 
HETATM   28  C   UNL     1      44.489 -18.731   4.213  1.00  0.00     0.002 A 
HETATM   29  C   UNL     1      44.250 -19.631   3.179  1.00  0.00     0.000 A 
HETATM   30  C   UNL     1      43.327 -19.314   2.187  1.00  0.00     0.002 A 
HETATM   31  C   UNL     1      42.646 -18.094   2.232  1.00  0.00     0.029 A 
ENDBRANCH  23  26
ENDBRANCH  10  22
TORSDOF 5
ENDMDL
MODEL 7
REMARK VINA RESULT:      -7.8      3.438      5.251
REMARK  5 active torsions:
REMARK  status: ('A' for Active; 'I' for Inactive)
REMARK    1  A    between atoms: C_9  and  C_10 
REMARK    2  A    between atoms: C_11  and  O_12 
REMARK    3  A    between atoms: O_12  and  C_13 
REMARK    4  A    between atoms: C_20  and  C_21 
REMARK       I    between atoms: C_21  and  N_22 
REMARK    5  A    between atoms: N_22  and  C_23 
ROOT
HETATM    1  C   UNL     1      39.926 -15.422   0.361  1.00  0.00     0.070 C 
HETATM    2  C   UNL     1      39.826 -14.199   1.236  1.00  0.00     0.037 A 
HETATM    3  N   UNL     1      39.230 -13.087   0.650  1.00  0.00    -0.192 N 
HETATM    4  C   UNL     1      38.929 -11.965   1.331  1.00  0.00     0.725 A 
HETATM    5  N   UNL     1      39.297 -11.854   2.645  1.00  0.00    -0.084 N 
HETATM    6  N   UNL     1      38.845 -10.701   3.185  1.00  0.00    -0.149 NA
HETATM    7  C   UNL     1      38.249 -10.149   2.122  1.00  0.00     0.275 A 
HETATM    8  N   UNL     1      38.284 -10.885   0.967  1.00  0.00    -0.054 NA
HETATM    9  C   UNL     1      40.007 -12.901   3.389  1.00  0.00     0.205 A 
HETATM   10  C   UNL     1      40.223 -14.141   2.531  1.00  0.00     0.063 A 
HETATM   11  H   UNL     1      38.911 -13.171  -0.311  1.00  0.00     0.184 HD
ENDROOT
BRANCH   9  12
HETATM   12  C   UNL     1      41.298 -12.343   3.992  1.00  0.00     0.005 A 
HETATM   13  C   UNL     1      41.455 -12.100   5.373  1.00  0.00     0.083 A 
HETATM   14  C   UNL     1      42.664 -11.586   5.855  1.00  0.00     0.037 A 
HETATM   15  C   UNL     1      43.723 -11.329   4.982  1.00  0.00     0.003 A 
HETATM   16  C   UNL     1      43.579 -11.570   3.620  1.00  0.00     0.001 A 
HETATM   17  C   UNL     1      42.376 -12.069   3.128  1.00  0.00     0.012 A 
BRANCH  13  18
HETATM   18  O   UNL     1      40.364 -12.336   6.164  1.00  0.00    -0.290 OA
BRANCH  18  19
HETATM   19  C   UNL     1      39.700 -11.191   6.677  1.00  0.00     0.505 C 
HETATM   20  F   UNL     1      40.121 -10.099   5.990  1.00  0.00    -0.184 F 
HETATM   21  F   UNL     1      38.381 -11.332   6.390  1.00  0.00    -0.184 F 
ENDBRANCH  18  19
ENDBRANCH  13  18
ENDBRANCH   9  12
BRANCH  10  22
HETATM   22  C   UNL     1      40.819 -15.283   3.269  1.00  0.00     0.256 C 
HETATM   23  N   UNL     1      42.074 -15.622   2.815  1.00  0.00    -0.323 N 
HETATM   24  H   UNL     1      42.457 -15.058   2.066  1.00  0.00     0.169 HD
HETATM   25  O   UNL     1      40.194 -15.772   4.201  1.00  0.00    -0.267 OA
BRANCH  23  26
HETATM   26  C   UNL     1      42.898 -16.666   3.282  1.00  0.00     0.035 A 
HETATM   27  C   UNL     1      43.560 -16.647   4.512  1.00  0.00     0.029 A 
HETATM   28  C   UNL     1      44.353 -17.729   4.908  1.00  0.00     0.002 A 
HETATM   29  C   UNL     1      44.485 -18.841   4.081  1.00  0.00     0.000 A 
HETATM   30  C   UNL     1      43.829 -18.872   2.855  1.00  0.00     0.002 A 
HETATM   31  C   UNL     1      43.043 -17.787   2.455  1.00  0.00     0.029 A 
ENDBRANCH  23  26
ENDBRANCH  10  22
TORSDOF 5
ENDMDL
MODEL 8
REMARK VINA RESULT:      -7.7      2.887      5.618
REMARK  5 active torsions:
REMARK  status: ('A' for Active; 'I' for Inactive)
REMARK    1  A    between atoms: C_9  and  C_10 
REMARK    2  A    between atoms: C_11  and  O_12 
REMARK    3  A    between atoms: O_12  and  C_13 
REMARK    4  A    between atoms: C_20  and  C_21 
REMARK       I    between atoms: C_21  and  N_22 
REMARK    5  A    between atoms: N_22  and  C_23 
ROOT
HETATM    1  C   UNL     1      42.403 -17.804   2.245  1.00  0.00     0.070 C 
HETATM    2  C   UNL     1      42.667 -17.000   3.493  1.00  0.00     0.037 A 
HETATM    3  N   UNL     1      42.830 -17.737   4.660  1.00  0.00    -0.192 N 
HETATM    4  C   UNL     1      43.216 -17.194   5.831  1.00  0.00     0.725 A 
HETATM    5  N   UNL     1      43.377 -15.837   5.923  1.00  0.00    -0.084 N 
HETATM    6  N   UNL     1      43.841 -15.481   7.141  1.00  0.00    -0.149 NA
HETATM    7  C   UNL     1      43.895 -16.675   7.743  1.00  0.00     0.275 A 
HETATM    8  N   UNL     1      43.514 -17.747   6.979  1.00  0.00    -0.054 NA
HETATM    9  C   UNL     1      43.162 -14.908   4.808  1.00  0.00     0.205 A 
HETATM   10  C   UNL     1      42.801 -15.651   3.528  1.00  0.00     0.063 A 
HETATM   11  H   UNL     1      42.759 -18.749   4.597  1.00  0.00     0.184 HD
ENDROOT
BRANCH   9  12
HETATM   12  C   UNL     1      42.144 -13.833   5.198  1.00  0.00     0.005 A 
HETATM   13  C   UNL     1      42.446 -12.456   5.195  1.00  0.00     0.083 A 
HETATM   14  C   UNL     1      41.466 -11.528   5.567  1.00  0.00     0.037 A 
HETATM   15  C   UNL     1      40.186 -11.956   5.922  1.00  0.00     0.003 A 
HETATM   16  C   UNL     1      39.877 -13.311   5.924  1.00  0.00     0.001 A 
HETATM   17  C   UNL     1      40.849 -14.244   5.569  1.00  0.00     0.012 A 
BRANCH  13  18
HETATM   18  O   UNL     1      43.732 -12.112   4.875  1.00  0.00    -0.290 OA
BRANCH  18  19
HETATM   19  C   UNL     1      44.494 -11.501   5.905  1.00  0.00     0.505 C 
HETATM   20  F   UNL     1      44.688 -12.407   6.897  1.00  0.00    -0.184 F 
HETATM   21  F   UNL     1      45.722 -11.237   5.389  1.00  0.00    -0.184 F 
ENDBRANCH  18  19
ENDBRANCH  13  18
ENDBRANCH   9  12
BRANCH  10  22
HETATM   22  C   UNL     1      42.701 -14.775   2.335  1.00  0.00     0.256 C 
HETATM   23  N   UNL     1      41.402 -14.561   1.930  1.00  0.00    -0.323 N 
HETATM   24  H   UNL     1      40.674 -14.990   2.487  1.00  0.00     0.169 HD
HETATM   25  O   UNL     1      43.728 -14.304   1.864  1.00  0.00    -0.267 OA
BRANCH  23  26
HETATM   26  C   UNL     1      40.965 -13.801   0.826  1.00  0.00     0.035 A 
HETATM   27  C   UNL     1      41.170 -12.425   0.696  1.00  0.00     0.029 A 
HETATM   28  C   UNL     1      40.714 -11.745  -0.437  1.00  0.00     0.002 A 
HETATM   29  C   UNL     1      40.056 -12.433  -1.452  1.00  0.00     0.000 A 
HETATM   30  C   UNL     1      39.847 -13.803  -1.333  1.00  0.00     0.002 A 
HETATM   31  C   UNL     1      40.296 -14.483  -0.198  1.00  0.00     0.029 A 
ENDBRANCH  23  26
ENDBRANCH  10  22
TORSDOF 5
ENDMDL
MODEL 9
REMARK VINA RESULT:      -7.4     14.885     16.319
REMARK  5 active torsions:
REMARK  status: ('A' for Active; 'I' for Inactive)
REMARK    1  A    between atoms: C_9  and  C_10 
REMARK    2  A    between atoms: C_11  and  O_12 
REMARK    3  A    between atoms: O_12  and  C_13 
REMARK    4  A    between atoms: C_20  and  C_21 
REMARK       I    between atoms: C_21  and  N_22 
REMARK    5  A    between atoms: N_22  and  C_23 
ROOT
HETATM    1  C   UNL     1      47.113 -30.429   3.633  1.00  0.00     0.070 C 
HETATM    2  C   UNL     1      45.899 -30.186   2.772  1.00  0.00     0.037 A 
HETATM    3  N   UNL     1      44.671 -30.371   3.397  1.00  0.00    -0.192 N 
HETATM    4  C   UNL     1      43.494 -30.058   2.823  1.00  0.00     0.725 A 
HETATM    5  N   UNL     1      43.474 -29.616   1.527  1.00  0.00    -0.084 N 
HETATM    6  N   UNL     1      42.222 -29.276   1.145  1.00  0.00    -0.149 NA
HETATM    7  C   UNL     1      41.536 -29.581   2.253  1.00  0.00     0.275 A 
HETATM    8  N   UNL     1      42.275 -30.069   3.298  1.00  0.00    -0.054 NA
HETATM    9  C   UNL     1      44.673 -29.446   0.699  1.00  0.00     0.205 A 
HETATM   10  C   UNL     1      45.939 -29.763   1.485  1.00  0.00     0.063 A 
HETATM   11  H   UNL     1      44.673 -30.655   4.373  1.00  0.00     0.184 HD
ENDROOT
BRANCH   9  12
HETATM   12  C   UNL     1      44.543 -30.247  -0.599  1.00  0.00     0.005 A 
HETATM   13  C   UNL     1      44.530 -29.643  -1.873  1.00  0.00     0.083 A 
HETATM   14  C   UNL     1      44.404 -30.438  -3.018  1.00  0.00     0.037 A 
HETATM   15  C   UNL     1      44.311 -31.827  -2.909  1.00  0.00     0.003 A 
HETATM   16  C   UNL     1      44.328 -32.432  -1.658  1.00  0.00     0.001 A 
HETATM   17  C   UNL     1      44.439 -31.648  -0.511  1.00  0.00     0.012 A 
BRANCH  13  18
HETATM   18  O   UNL     1      44.584 -28.276  -1.904  1.00  0.00    -0.290 OA
BRANCH  18  19
HETATM   19  C   UNL     1      45.679 -27.704  -2.601  1.00  0.00     0.505 C 
HETATM   20  F   UNL     1      46.708 -28.589  -2.594  1.00  0.00    -0.184 F 
HETATM   21  F   UNL     1      45.302 -27.575  -3.899  1.00  0.00    -0.184 F 
ENDBRANCH  18  19
ENDBRANCH  13  18
ENDBRANCH   9  12
BRANCH  10  22
HETATM   22  C   UNL     1      47.192 -29.482   0.740  1.00  0.00     0.256 C 
HETATM   23  N   UNL     1      47.869 -30.624   0.374  1.00  0.00    -0.323 N 
HETATM   24  H   UNL     1      47.441 -31.508   0.622  1.00  0.00     0.169 HD
HETATM   25  O   UNL     1      47.478 -28.319   0.488  1.00  0.00    -0.267 OA
BRANCH  23  26
HETATM   26  C   UNL     1      49.094 -30.706  -0.318  1.00  0.00     0.035 A 
HETATM   27  C   UNL     1      49.291 -30.226  -1.615  1.00  0.00     0.029 A 
HETATM   28  C   UNL     1      50.542 -30.336  -2.229  1.00  0.00     0.002 A 
HETATM   29  C   UNL     1      51.609 -30.920  -1.551  1.00  0.00     0.000 A 
HETATM   30  C   UNL     1      51.424 -31.400  -0.258  1.00  0.00     0.002 A 
HETATM   31  C   UNL     1      50.172 -31.297   0.354  1.00  0.00     0.029 A 
ENDBRANCH  23  26
ENDBRANCH  10  22
TORSDOF 5
ENDMDL
MODEL 10
REMARK VINA RESULT:      -7.3      2.748      6.442
REMARK  5 active torsions:
REMARK  status: ('A' for Active; 'I' for Inactive)
REMARK    1  A    between atoms: C_9  and  C_10 
REMARK    2  A    between atoms: C_11  and  O_12 
REMARK    3  A    between atoms: O_12  and  C_13 
REMARK    4  A    between atoms: C_20  and  C_21 
REMARK       I    between atoms: C_21  and  N_22 
REMARK    5  A    between atoms: N_22  and  C_23 
ROOT
HETATM    1  C   UNL     1      41.338  -9.681   2.404  1.00  0.00     0.070 C 
HETATM    2  C   UNL     1      41.258 -11.177   2.239  1.00  0.00     0.037 A 
HETATM    3  N   UNL     1      40.306 -11.633   1.334  1.00  0.00    -0.192 N 
HETATM    4  C   UNL     1      40.200 -12.922   0.958  1.00  0.00     0.725 A 
HETATM    5  N   UNL     1      41.001 -13.864   1.547  1.00  0.00    -0.084 N 
HETATM    6  N   UNL     1      40.814 -15.082   0.992  1.00  0.00    -0.149 NA
HETATM    7  C   UNL     1      39.854 -14.802   0.103  1.00  0.00     0.275 A 
HETATM    8  N   UNL     1      39.445 -13.495   0.056  1.00  0.00    -0.054 NA
HETATM    9  C   UNL     1      41.999 -13.562   2.580  1.00  0.00     0.205 A 
HETATM   10  C   UNL     1      42.069 -12.067   2.863  1.00  0.00     0.063 A 
HETATM   11  H   UNL     1      39.736 -10.941   0.856  1.00  0.00     0.184 HD
ENDROOT
BRANCH   9  12
HETATM   12  C   UNL     1      41.745 -14.409   3.830  1.00  0.00     0.005 A 
HETATM   13  C   UNL     1      42.539 -15.522   4.174  1.00  0.00     0.083 A 
HETATM   14  C   UNL     1      42.246 -16.253   5.331  1.00  0.00     0.037 A 
HETATM   15  C   UNL     1      41.186 -15.877   6.157  1.00  0.00     0.003 A 
HETATM   16  C   UNL     1      40.400 -14.778   5.829  1.00  0.00     0.001 A 
HETATM   17  C   UNL     1      40.674 -14.052   4.672  1.00  0.00     0.012 A 
BRANCH  13  18
HETATM   18  O   UNL     1      43.535 -15.858   3.298  1.00  0.00    -0.290 OA
BRANCH  18  19
HETATM   19  C   UNL     1      43.265 -16.943   2.424  1.00  0.00     0.505 C 
HETATM   20  F   UNL     1      43.573 -16.567   1.157  1.00  0.00    -0.184 F 
HETATM   21  F   UNL     1      44.131 -17.938   2.744  1.00  0.00    -0.184 F 
ENDBRANCH  18  19
ENDBRANCH  13  18
ENDBRANCH   9  12
BRANCH  10  22
HETATM   22  C   UNL     1      43.152 -11.686   3.803  1.00  0.00     0.256 C 
HETATM   23  N   UNL     1      42.711 -11.525   5.098  1.00  0.00    -0.323 N 
HETATM   24  H   UNL     1      41.728 -11.702   5.271  1.00  0.00     0.169 HD
HETATM   25  O   UNL     1      44.296 -11.598   3.378  1.00  0.00    -0.267 OA
BRANCH  23  26
HETATM   26  C   UNL     1      43.474 -11.147   6.221  1.00  0.00     0.035 A 
HETATM   27  C   UNL     1      44.753 -11.637   6.495  1.00  0.00     0.029 A 
HETATM   28  C   UNL     1      45.451 -11.203   7.626  1.00  0.00     0.002 A 
HETATM   29  C   UNL     1      44.880 -10.271   8.489  1.00  0.00     0.000 A 
HETATM   30  C   UNL     1      43.607  -9.776   8.225  1.00  0.00     0.002 A 
HETATM   31  C   UNL     1      42.906 -10.215   7.098  1.00  0.00     0.029 A 
ENDBRANCH  23  26
ENDBRANCH  10  22
TORSDOF 5
ENDMDL
