MODEL 1
REMARK VINA RESULT:      -9.0      0.000      0.000
REMARK  9 active torsions:
REMARK  status: ('A' for Active; 'I' for Inactive)
REMARK    1  A    between atoms: O_2  and  C_3 
REMARK    2  A    between atoms: C_4  and  O_5 
REMARK    3  A    between atoms: C_8  and  C_9 
REMARK    4  A    between atoms: C_9  and  N_10 
REMARK    5  A    between atoms: C_14  and  O_15 
REMARK    6  A    between atoms: C_14  and  C_16 
REMARK    7  A    between atoms: C_21  and  C_22 
REMARK       I    between atoms: C_22  and  N_23 
REMARK    8  A    between atoms: N_23  and  C_24 
REMARK    9  A    between atoms: C_24  and  C_25 
ROOT
HETATM    1  N   UNL     1      39.617 -14.021   1.853  1.00  0.00    -0.067 N 
HETATM    2  H   UNL     1      38.850 -14.015   1.167  1.00  0.00     0.280 HD
HETATM    3  C   UNL     1      39.213 -13.084   2.969  1.00  0.00     0.238 C 
HETATM    4  C   UNL     1      39.222 -11.641   2.495  1.00  0.00     0.071 C 
HETATM    5  C   UNL     1      40.609 -11.227   1.969  1.00  0.00     0.088 C 
HETATM    6  C   UNL     1      40.864 -12.141   0.755  1.00  0.00     0.071 C 
HETATM    7  C   UNL     1      40.885 -13.612   1.138  1.00  0.00     0.238 C 
ENDROOT
BRANCH   5   8
HETATM    8  O   UNL     1      40.484  -9.898   1.464  1.00  0.00    -0.385 OA
HETATM    9  H   UNL     1      41.139  -9.751   0.757  1.00  0.00     0.211 HD
ENDBRANCH   5   8
BRANCH   5  10
HETATM   10  C   UNL     1      41.708 -11.238   3.043  1.00  0.00    -0.023 A 
HETATM   11  C   UNL     1      41.466 -10.675   4.320  1.00  0.00     0.024 A 
HETATM   12  C   UNL     1      42.421 -10.811   5.347  1.00  0.00     0.001 A 
HETATM   13  C   UNL     1      43.614 -11.452   5.059  1.00  0.00     0.086 A 
HETATM   14  C   UNL     1      42.500 -10.445   6.715  1.00  0.00     0.057 A 
HETATM   15  O   UNL     1      44.388 -11.544   6.173  1.00  0.00    -0.304 OA
HETATM   16  C   UNL     1      43.951 -11.926   3.799  1.00  0.00     0.039 A 
HETATM   17  C   UNL     1      43.704 -10.933   7.192  1.00  0.00     0.144 A 
HETATM   18  C   UNL     1      42.980 -11.791   2.796  1.00  0.00     0.013 A 
BRANCH  17  19
HETATM   19  C   UNL     1      44.279 -10.892   8.520  1.00  0.00     0.275 C 
HETATM   20  N   UNL     1      43.357 -10.737   9.530  1.00  0.00    -0.353 N 
HETATM   21  H   UNL     1      42.404 -10.526   9.260  1.00  0.00     0.162 HD
HETATM   22  O   UNL     1      45.488 -10.951   8.729  1.00  0.00    -0.265 OA
BRANCH  20  23
HETATM   23  C   UNL     1      43.748 -10.511  10.909  1.00  0.00     0.155 C 
BRANCH  23  24
HETATM   24  C   UNL     1      42.816  -9.539  11.639  1.00  0.00     0.139 C 
HETATM   25  O   UNL     1      42.181 -10.186  12.764  1.00  0.00    -0.384 OA
HETATM   26  C   UNL     1      42.046  -9.215  13.816  1.00  0.00     0.168 C 
HETATM   27  C   UNL     1      42.582  -7.898  13.293  1.00  0.00     0.029 C 
HETATM   28  C   UNL     1      43.550  -8.346  12.226  1.00  0.00     0.035 C 
ENDBRANCH  23  24
ENDBRANCH  20  23
ENDBRANCH  17  19
ENDBRANCH   5  10
BRANCH   1  29
HETATM   29  C   UNL     1      39.753 -15.464   2.327  1.00  0.00     0.273 C 
BRANCH  29  30
HETATM   30  C   UNL     1      41.004 -15.753   3.105  1.00  0.00    -0.030 A 
HETATM   31  C   UNL     1      41.809 -16.849   2.758  1.00  0.00     0.048 A 
HETATM   32  C   UNL     1      42.989 -17.109   3.458  1.00  0.00     0.102 A 
HETATM   33  C   UNL     1      43.355 -16.323   4.555  1.00  0.00     0.101 A 
HETATM   34  C   UNL     1      42.561 -15.226   4.898  1.00  0.00     0.040 A 
HETATM   35  C   UNL     1      41.397 -14.938   4.174  1.00  0.00     0.012 A 
BRANCH  32  36
HETATM   36  O   UNL     1      43.744 -18.205   3.131  1.00  0.00    -0.353 OA
HETATM   37  C   UNL     1      43.087 -19.032   2.173  1.00  0.00     0.210 C 
ENDBRANCH  32  36
BRANCH  33  38
HETATM   38  O   UNL     1      44.519 -16.655   5.193  1.00  0.00    -0.353 OA
HETATM   39  C   UNL     1      44.513 -16.502   6.609  1.00  0.00     0.210 C 
ENDBRANCH  33  38
ENDBRANCH  29  30
ENDBRANCH   1  29
TORSDOF 9
ENDMDL
MODEL 2
REMARK VINA RESULT:      -8.7      2.823     10.949
REMARK  9 active torsions:
REMARK  status: ('A' for Active; 'I' for Inactive)
REMARK    1  A    between atoms: O_2  and  C_3 
REMARK    2  A    between atoms: C_4  and  O_5 
REMARK    3  A    between atoms: C_8  and  C_9 
REMARK    4  A    between atoms: C_9  and  N_10 
REMARK    5  A    between atoms: C_14  and  O_15 
REMARK    6  A    between atoms: C_14  and  C_16 
REMARK    7  A    between atoms: C_21  and  C_22 
REMARK       I    between atoms: C_22  and  N_23 
REMARK    8  A    between atoms: N_23  and  C_24 
REMARK    9  A    between atoms: C_24  and  C_25 
ROOT
HETATM    1  N   UNL     1      43.482  -8.984  11.132  1.00  0.00    -0.067 N 
HETATM    2  H   UNL     1      44.042  -8.385  11.755  1.00  0.00     0.280 HD
HETATM    3  C   UNL     1      44.319 -10.207  10.833  1.00  0.00     0.238 C 
HETATM    4  C   UNL     1      45.503  -9.852   9.950  1.00  0.00     0.071 C 
HETATM    5  C   UNL     1      45.047  -9.216   8.622  1.00  0.00     0.088 C 
HETATM    6  C   UNL     1      44.332  -7.914   9.028  1.00  0.00     0.071 C 
HETATM    7  C   UNL     1      43.120  -8.175   9.908  1.00  0.00     0.238 C 
ENDROOT
BRANCH   5   8
HETATM    8  O   UNL     1      46.227  -8.835   7.916  1.00  0.00    -0.385 OA
HETATM    9  H   UNL     1      46.554  -7.982   8.256  1.00  0.00     0.211 HD
ENDBRANCH   5   8
BRANCH   5  10
HETATM   10  C   UNL     1      44.231 -10.165   7.730  1.00  0.00    -0.023 A 
HETATM   11  C   UNL     1      44.687 -11.483   7.481  1.00  0.00     0.024 A 
HETATM   12  C   UNL     1      43.873 -12.394   6.781  1.00  0.00     0.001 A 
HETATM   13  C   UNL     1      42.652 -11.954   6.299  1.00  0.00     0.086 A 
HETATM   14  C   UNL     1      43.964 -13.759   6.408  1.00  0.00     0.057 A 
HETATM   15  O   UNL     1      41.976 -12.973   5.704  1.00  0.00    -0.304 OA
HETATM   16  C   UNL     1      42.201 -10.646   6.418  1.00  0.00     0.039 A 
HETATM   17  C   UNL     1      42.777 -14.084   5.777  1.00  0.00     0.144 A 
HETATM   18  C   UNL     1      43.023  -9.760   7.129  1.00  0.00     0.013 A 
BRANCH  17  19
HETATM   19  C   UNL     1      42.308 -15.343   5.236  1.00  0.00     0.275 C 
HETATM   20  N   UNL     1      42.805 -15.641   3.988  1.00  0.00    -0.353 N 
HETATM   21  H   UNL     1      43.321 -14.913   3.507  1.00  0.00     0.162 HD
HETATM   22  O   UNL     1      41.507 -16.067   5.820  1.00  0.00    -0.265 OA
BRANCH  20  23
HETATM   23  C   UNL     1      42.329 -16.772   3.213  1.00  0.00     0.155 C 
BRANCH  23  24
HETATM   24  C   UNL     1      43.393 -17.860   3.035  1.00  0.00     0.139 C 
HETATM   25  O   UNL     1      43.795 -18.398   4.313  1.00  0.00    -0.384 OA
HETATM   26  C   UNL     1      44.058 -19.801   4.142  1.00  0.00     0.168 C 
HETATM   27  C   UNL     1      43.852 -20.127   2.676  1.00  0.00     0.029 C 
HETATM   28  C   UNL     1      42.889 -19.052   2.239  1.00  0.00     0.035 C 
ENDBRANCH  23  24
ENDBRANCH  20  23
ENDBRANCH  17  19
ENDBRANCH   5  10
BRANCH   1  29
HETATM   29  C   UNL     1      42.211  -9.325  11.902  1.00  0.00     0.273 C 
BRANCH  29  30
HETATM   30  C   UNL     1      41.861  -8.357  12.995  1.00  0.00    -0.030 A 
HETATM   31  C   UNL     1      40.532  -7.939  13.165  1.00  0.00     0.048 A 
HETATM   32  C   UNL     1      40.192  -7.061  14.196  1.00  0.00     0.102 A 
HETATM   33  C   UNL     1      41.179  -6.532  15.035  1.00  0.00     0.101 A 
HETATM   34  C   UNL     1      42.502  -6.951  14.875  1.00  0.00     0.040 A 
HETATM   35  C   UNL     1      42.840  -7.863  13.867  1.00  0.00     0.012 A 
BRANCH  32  36
HETATM   36  O   UNL     1      38.897  -6.633  14.324  1.00  0.00    -0.353 OA
HETATM   37  C   UNL     1      38.136  -6.894  13.147  1.00  0.00     0.210 C 
ENDBRANCH  32  36
BRANCH  33  38
HETATM   38  O   UNL     1      40.763  -5.668  16.011  1.00  0.00    -0.353 OA
HETATM   39  C   UNL     1      40.953  -4.284  15.734  1.00  0.00     0.210 C 
ENDBRANCH  33  38
ENDBRANCH  29  30
ENDBRANCH   1  29
TORSDOF 9
ENDMDL
MODEL 3
REMARK VINA RESULT:      -8.3      1.833      4.420
REMARK  9 active torsions:
REMARK  status: ('A' for Active; 'I' for Inactive)
REMARK    1  A    between atoms: O_2  and  C_3 
REMARK    2  A    between atoms: C_4  and  O_5 
REMARK    3  A    between atoms: C_8  and  C_9 
REMARK    4  A    between atoms: C_9  and  N_10 
REMARK    5  A    between atoms: C_14  and  O_15 
REMARK    6  A    between atoms: C_14  and  C_16 
REMARK    7  A    between atoms: C_21  and  C_22 
REMARK       I    between atoms: C_22  and  N_23 
REMARK    8  A    between atoms: N_23  and  C_24 
REMARK    9  A    between atoms: C_24  and  C_25 
ROOT
HETATM    1  N   UNL     1      40.682 -14.602   1.475  1.00  0.00    -0.067 N 
HETATM    2  H   UNL     1      40.438 -15.040   0.576  1.00  0.00     0.280 HD
HETATM    3  C   UNL     1      42.159 -14.282   1.418  1.00  0.00     0.238 C 
HETATM    4  C   UNL     1      42.991 -15.552   1.449  1.00  0.00     0.071 C 
HETATM    5  C   UNL     1      42.705 -16.385   2.713  1.00  0.00     0.088 C 
HETATM    6  C   UNL     1      41.220 -16.777   2.605  1.00  0.00     0.071 C 
HETATM    7  C   UNL     1      40.306 -15.562   2.580  1.00  0.00     0.238 C 
ENDROOT
BRANCH   5   8
HETATM    8  O   UNL     1      43.459 -17.591   2.597  1.00  0.00    -0.385 OA
HETATM    9  H   UNL     1      43.866 -17.642   1.713  1.00  0.00     0.211 HD
ENDBRANCH   5   8
BRANCH   5  10
HETATM   10  C   UNL     1      43.108 -15.684   4.020  1.00  0.00    -0.023 A 
HETATM   11  C   UNL     1      43.329 -14.286   4.045  1.00  0.00     0.024 A 
HETATM   12  C   UNL     1      43.559 -13.625   5.267  1.00  0.00     0.001 A 
HETATM   13  C   UNL     1      43.619 -14.381   6.425  1.00  0.00     0.086 A 
HETATM   14  C   UNL     1      43.756 -12.281   5.674  1.00  0.00     0.057 A 
HETATM   15  O   UNL     1      43.789 -13.581   7.511  1.00  0.00    -0.304 OA
HETATM   16  C   UNL     1      43.518 -15.766   6.449  1.00  0.00     0.039 A 
HETATM   17  C   UNL     1      43.866 -12.291   7.053  1.00  0.00     0.144 A 
HETATM   18  C   UNL     1      43.277 -16.400   5.222  1.00  0.00     0.013 A 
BRANCH  17  19
HETATM   19  C   UNL     1      44.029 -11.203   7.995  1.00  0.00     0.275 C 
HETATM   20  N   UNL     1      42.920 -10.398   8.124  1.00  0.00    -0.353 N 
HETATM   21  H   UNL     1      42.163 -10.541   7.467  1.00  0.00     0.162 HD
HETATM   22  O   UNL     1      45.077 -10.990   8.599  1.00  0.00    -0.265 OA
BRANCH  20  23
HETATM   23  C   UNL     1      42.941  -9.167   8.892  1.00  0.00     0.155 C 
BRANCH  23  24
HETATM   24  C   UNL     1      42.361  -9.335  10.300  1.00  0.00     0.139 C 
HETATM   25  O   UNL     1      42.880 -10.526  10.930  1.00  0.00    -0.384 OA
HETATM   26  C   UNL     1      43.039 -10.254  12.333  1.00  0.00     0.168 C 
HETATM   27  C   UNL     1      42.549  -8.841  12.581  1.00  0.00     0.029 C 
HETATM   28  C   UNL     1      42.735  -8.194  11.232  1.00  0.00     0.035 C 
ENDBRANCH  23  24
ENDBRANCH  20  23
ENDBRANCH  17  19
ENDBRANCH   5  10
BRANCH   1  29
HETATM   29  C   UNL     1      39.820 -13.349   1.584  1.00  0.00     0.273 C 
BRANCH  29  30
HETATM   30  C   UNL     1      40.017 -12.561   2.847  1.00  0.00    -0.030 A 
HETATM   31  C   UNL     1      39.817 -13.172   4.094  1.00  0.00     0.048 A 
HETATM   32  C   UNL     1      40.025 -12.455   5.275  1.00  0.00     0.102 A 
HETATM   33  C   UNL     1      40.373 -11.101   5.234  1.00  0.00     0.101 A 
HETATM   34  C   UNL     1      40.582 -10.491   3.994  1.00  0.00     0.040 A 
HETATM   35  C   UNL     1      40.412 -11.217   2.809  1.00  0.00     0.012 A 
BRANCH  32  36
HETATM   36  O   UNL     1      39.788 -13.055   6.484  1.00  0.00    -0.353 OA
HETATM   37  C   UNL     1      40.080 -14.450   6.446  1.00  0.00     0.210 C 
ENDBRANCH  32  36
BRANCH  33  38
HETATM   38  O   UNL     1      40.544 -10.470   6.436  1.00  0.00    -0.353 OA
HETATM   39  C   UNL     1      39.654  -9.390   6.700  1.00  0.00     0.210 C 
ENDBRANCH  33  38
ENDBRANCH  29  30
ENDBRANCH   1  29
TORSDOF 9
ENDMDL
MODEL 4
REMARK VINA RESULT:      -8.2      1.679      2.744
REMARK  9 active torsions:
REMARK  status: ('A' for Active; 'I' for Inactive)
REMARK    1  A    between atoms: O_2  and  C_3 
REMARK    2  A    between atoms: C_4  and  O_5 
REMARK    3  A    between atoms: C_8  and  C_9 
REMARK    4  A    between atoms: C_9  and  N_10 
REMARK    5  A    between atoms: C_14  and  O_15 
REMARK    6  A    between atoms: C_14  and  C_16 
REMARK    7  A    between atoms: C_21  and  C_22 
REMARK       I    between atoms: C_22  and  N_23 
REMARK    8  A    between atoms: N_23  and  C_24 
REMARK    9  A    between atoms: C_24  and  C_25 
ROOT
HETATM    1  N   UNL     1      41.655 -15.466   1.452  1.00  0.00    -0.067 N 
HETATM    2  H   UNL     1      41.150 -16.114   0.832  1.00  0.00     0.280 HD
HETATM    3  C   UNL     1      40.978 -15.538   2.802  1.00  0.00     0.238 C 
HETATM    4  C   UNL     1      39.596 -14.911   2.750  1.00  0.00     0.071 C 
HETATM    5  C   UNL     1      39.657 -13.441   2.295  1.00  0.00     0.088 C 
HETATM    6  C   UNL     1      40.226 -13.489   0.864  1.00  0.00     0.071 C 
HETATM    7  C   UNL     1      41.621 -14.093   0.821  1.00  0.00     0.238 C 
ENDROOT
BRANCH   5   8
HETATM    8  O   UNL     1      38.311 -12.981   2.187  1.00  0.00    -0.385 OA
HETATM    9  H   UNL     1      37.729 -13.528   2.746  1.00  0.00     0.211 HD
ENDBRANCH   5   8
BRANCH   5  10
HETATM   10  C   UNL     1      40.408 -12.522   3.271  1.00  0.00    -0.023 A 
HETATM   11  C   UNL     1      41.008 -13.054   4.438  1.00  0.00     0.024 A 
HETATM   12  C   UNL     1      41.814 -12.239   5.257  1.00  0.00     0.001 A 
HETATM   13  C   UNL     1      41.954 -10.902   4.923  1.00  0.00     0.086 A 
HETATM   14  C   UNL     1      42.593 -12.427   6.426  1.00  0.00     0.057 A 
HETATM   15  O   UNL     1      42.806 -10.281   5.782  1.00  0.00    -0.304 OA
HETATM   16  C   UNL     1      41.304 -10.300   3.854  1.00  0.00     0.039 A 
HETATM   17  C   UNL     1      43.206 -11.218   6.701  1.00  0.00     0.144 A 
HETATM   18  C   UNL     1      40.517 -11.135   3.047  1.00  0.00     0.013 A 
BRANCH  17  19
HETATM   19  C   UNL     1      44.142 -10.848   7.742  1.00  0.00     0.275 C 
HETATM   20  N   UNL     1      43.755  -9.758   8.487  1.00  0.00    -0.353 N 
HETATM   21  H   UNL     1      42.950  -9.235   8.164  1.00  0.00     0.162 HD
HETATM   22  O   UNL     1      45.208 -11.430   7.922  1.00  0.00    -0.265 OA
BRANCH  20  23
HETATM   23  C   UNL     1      44.630  -9.137   9.464  1.00  0.00     0.155 C 
BRANCH  23  24
HETATM   24  C   UNL     1      44.073  -9.206  10.890  1.00  0.00     0.139 C 
HETATM   25  O   UNL     1      42.811  -8.510  10.981  1.00  0.00    -0.384 OA
HETATM   26  C   UNL     1      41.975  -9.223  11.909  1.00  0.00     0.168 C 
HETATM   27  C   UNL     1      42.784 -10.387  12.447  1.00  0.00     0.029 C 
HETATM   28  C   UNL     1      43.779 -10.627  11.340  1.00  0.00     0.035 C 
ENDBRANCH  23  24
ENDBRANCH  20  23
ENDBRANCH  17  19
ENDBRANCH   5  10
BRANCH   1  29
HETATM   29  C   UNL     1      43.097 -15.961   1.499  1.00  0.00     0.273 C 
BRANCH  29  30
HETATM   30  C   UNL     1      43.368 -17.002   2.546  1.00  0.00    -0.030 A 
HETATM   31  C   UNL     1      43.705 -16.613   3.852  1.00  0.00     0.048 A 
HETATM   32  C   UNL     1      43.932 -17.574   4.840  1.00  0.00     0.102 A 
HETATM   33  C   UNL     1      43.892 -18.938   4.530  1.00  0.00     0.101 A 
HETATM   34  C   UNL     1      43.549 -19.329   3.233  1.00  0.00     0.040 A 
HETATM   35  C   UNL     1      43.282 -18.368   2.249  1.00  0.00     0.012 A 
BRANCH  32  36
HETATM   36  O   UNL     1      44.297 -17.179   6.100  1.00  0.00    -0.353 OA
HETATM   37  C   UNL     1      43.912 -15.831   6.362  1.00  0.00     0.210 C 
ENDBRANCH  32  36
BRANCH  33  38
HETATM   38  O   UNL     1      44.140 -19.812   5.553  1.00  0.00    -0.353 OA
HETATM   39  C   UNL     1      44.169 -21.190   5.195  1.00  0.00     0.210 C 
ENDBRANCH  33  38
ENDBRANCH  29  30
ENDBRANCH   1  29
TORSDOF 9
ENDMDL
MODEL 5
REMARK VINA RESULT:      -8.2      2.246      3.291
REMARK  9 active torsions:
REMARK  status: ('A' for Active; 'I' for Inactive)
REMARK    1  A    between atoms: O_2  and  C_3 
REMARK    2  A    between atoms: C_4  and  O_5 
REMARK    3  A    between atoms: C_8  and  C_9 
REMARK    4  A    between atoms: C_9  and  N_10 
REMARK    5  A    between atoms: C_14  and  O_15 
REMARK    6  A    between atoms: C_14  and  C_16 
REMARK    7  A    between atoms: C_21  and  C_22 
REMARK       I    between atoms: C_22  and  N_23 
REMARK    8  A    between atoms: N_23  and  C_24 
REMARK    9  A    between atoms: C_24  and  C_25 
ROOT
HETATM    1  N   UNL     1      41.281 -14.259   2.045  1.00  0.00    -0.067 N 
HETATM    2  H   UNL     1      41.813 -14.544   1.212  1.00  0.00     0.280 HD
HETATM    3  C   UNL     1      40.183 -13.336   1.568  1.00  0.00     0.238 C 
HETATM    4  C   UNL     1      40.755 -12.013   1.091  1.00  0.00     0.071 C 
HETATM    5  C   UNL     1      41.556 -11.309   2.202  1.00  0.00     0.088 C 
HETATM    6  C   UNL     1      42.725 -12.262   2.517  1.00  0.00     0.071 C 
HETATM    7  C   UNL     1      42.244 -13.615   3.016  1.00  0.00     0.238 C 
ENDROOT
BRANCH   5   8
HETATM    8  O   UNL     1      42.127 -10.135   1.626  1.00  0.00    -0.385 OA
HETATM    9  H   UNL     1      43.024  -9.996   1.980  1.00  0.00     0.211 HD
ENDBRANCH   5   8
BRANCH   5  10
HETATM   10  C   UNL     1      40.703 -10.892   3.411  1.00  0.00    -0.023 A 
HETATM   11  C   UNL     1      41.228 -10.982   4.723  1.00  0.00     0.024 A 
HETATM   12  C   UNL     1      40.501 -10.469   5.815  1.00  0.00     0.001 A 
HETATM   13  C   UNL     1      39.246  -9.933   5.579  1.00  0.00     0.086 A 
HETATM   14  C   UNL     1      40.722 -10.333   7.208  1.00  0.00     0.057 A 
HETATM   15  O   UNL     1      38.714  -9.436   6.727  1.00  0.00    -0.304 OA
HETATM   16  C   UNL     1      38.635  -9.917   4.332  1.00  0.00     0.039 A 
HETATM   17  C   UNL     1      39.622  -9.674   7.728  1.00  0.00     0.144 A 
HETATM   18  C   UNL     1      39.384 -10.422   3.259  1.00  0.00     0.013 A 
BRANCH  17  19
HETATM   19  C   UNL     1      39.335  -9.233   9.077  1.00  0.00     0.275 C 
HETATM   20  N   UNL     1      40.133  -9.807  10.040  1.00  0.00    -0.353 N 
HETATM   21  H   UNL     1      40.734 -10.570   9.751  1.00  0.00     0.162 HD
HETATM   22  O   UNL     1      38.432  -8.445   9.347  1.00  0.00    -0.265 OA
BRANCH  20  23
HETATM   23  C   UNL     1      39.894  -9.618  11.458  1.00  0.00     0.155 C 
BRANCH  23  24
HETATM   24  C   UNL     1      41.184  -9.398  12.255  1.00  0.00     0.139 C 
HETATM   25  O   UNL     1      42.289 -10.101  11.645  1.00  0.00    -0.384 OA
HETATM   26  C   UNL     1      43.472  -9.302  11.814  1.00  0.00     0.168 C 
HETATM   27  C   UNL     1      43.081  -8.071  12.608  1.00  0.00     0.029 C 
HETATM   28  C   UNL     1      41.611  -7.941  12.295  1.00  0.00     0.035 C 
ENDBRANCH  23  24
ENDBRANCH  20  23
ENDBRANCH  17  19
ENDBRANCH   5  10
BRANCH   1  29
HETATM   29  C   UNL     1      40.734 -15.543   2.659  1.00  0.00     0.273 C 
BRANCH  29  30
HETATM   30  C   UNL     1      41.781 -16.480   3.189  1.00  0.00    -0.030 A 
HETATM   31  C   UNL     1      42.009 -16.569   4.571  1.00  0.00     0.048 A 
HETATM   32  C   UNL     1      42.961 -17.459   5.075  1.00  0.00     0.102 A 
HETATM   33  C   UNL     1      43.747 -18.227   4.209  1.00  0.00     0.101 A 
HETATM   34  C   UNL     1      43.517 -18.148   2.833  1.00  0.00     0.040 A 
HETATM   35  C   UNL     1      42.536 -17.285   2.327  1.00  0.00     0.012 A 
BRANCH  32  36
HETATM   36  O   UNL     1      43.199 -17.506   6.423  1.00  0.00    -0.353 OA
HETATM   37  C   UNL     1      42.589 -16.412   7.105  1.00  0.00     0.210 C 
ENDBRANCH  32  36
BRANCH  33  38
HETATM   38  O   UNL     1      44.666 -19.062   4.785  1.00  0.00    -0.353 OA
HETATM   39  C   UNL     1      44.273 -20.425   4.904  1.00  0.00     0.210 C 
ENDBRANCH  33  38
ENDBRANCH  29  30
ENDBRANCH   1  29
TORSDOF 9
ENDMDL
MODEL 6
REMARK VINA RESULT:      -8.2      3.582      9.157
REMARK  9 active torsions:
REMARK  status: ('A' for Active; 'I' for Inactive)
REMARK    1  A    between atoms: O_2  and  C_3 
REMARK    2  A    between atoms: C_4  and  O_5 
REMARK    3  A    between atoms: C_8  and  C_9 
REMARK    4  A    between atoms: C_9  and  N_10 
REMARK    5  A    between atoms: C_14  and  O_15 
REMARK    6  A    between atoms: C_14  and  C_16 
REMARK    7  A    between atoms: C_21  and  C_22 
REMARK       I    between atoms: C_22  and  N_23 
REMARK    8  A    between atoms: N_23  and  C_24 
REMARK    9  A    between atoms: C_24  and  C_25 
ROOT
HETATM    1  N   UNL     1      43.412 -14.325   7.187  1.00  0.00    -0.067 N 
HETATM    2  H   UNL     1      43.678 -14.486   8.168  1.00  0.00     0.280 HD
HETATM    3  C   UNL     1      42.062 -14.976   6.988  1.00  0.00     0.238 C 
HETATM    4  C   UNL     1      42.176 -16.489   7.041  1.00  0.00     0.071 C 
HETATM    5  C   UNL     1      43.153 -17.021   5.975  1.00  0.00     0.088 C 
HETATM    6  C   UNL     1      44.519 -16.415   6.348  1.00  0.00     0.071 C 
HETATM    7  C   UNL     1      44.503 -14.896   6.309  1.00  0.00     0.238 C 
ENDROOT
BRANCH   5   8
HETATM    8  O   UNL     1      43.260 -18.431   6.174  1.00  0.00    -0.385 OA
HETATM    9  H   UNL     1      43.577 -18.613   7.078  1.00  0.00     0.211 HD
ENDBRANCH   5   8
BRANCH   5  10
HETATM   10  C   UNL     1      42.692 -16.768   4.532  1.00  0.00    -0.023 A 
HETATM   11  C   UNL     1      41.490 -16.063   4.276  1.00  0.00     0.024 A 
HETATM   12  C   UNL     1      41.141 -15.709   2.959  1.00  0.00     0.001 A 
HETATM   13  C   UNL     1      41.968 -16.114   1.925  1.00  0.00     0.086 A 
HETATM   14  C   UNL     1      40.089 -14.982   2.347  1.00  0.00     0.057 A 
HETATM   15  O   UNL     1      41.515 -15.639   0.735  1.00  0.00    -0.304 OA
HETATM   16  C   UNL     1      43.100 -16.899   2.104  1.00  0.00     0.039 A 
HETATM   17  C   UNL     1      40.365 -14.938   0.992  1.00  0.00     0.144 A 
HETATM   18  C   UNL     1      43.434 -17.229   3.426  1.00  0.00     0.013 A 
BRANCH  17  19
HETATM   19  C   UNL     1      39.659 -14.292  -0.095  1.00  0.00     0.275 C 
HETATM   20  N   UNL     1      39.298 -12.990   0.162  1.00  0.00    -0.353 N 
HETATM   21  H   UNL     1      39.421 -12.651   1.109  1.00  0.00     0.162 HD
HETATM   22  O   UNL     1      39.372 -14.865  -1.143  1.00  0.00    -0.265 OA
BRANCH  20  23
HETATM   23  C   UNL     1      38.445 -12.230  -0.734  1.00  0.00     0.155 C 
BRANCH  23  24
HETATM   24  C   UNL     1      39.187 -11.087  -1.434  1.00  0.00     0.139 C 
HETATM   25  O   UNL     1      40.488 -11.522  -1.887  1.00  0.00    -0.384 OA
HETATM   26  C   UNL     1      40.769 -10.859  -3.133  1.00  0.00     0.168 C 
HETATM   27  C   UNL     1      39.603  -9.938  -3.431  1.00  0.00     0.029 C 
HETATM   28  C   UNL     1      38.472 -10.596  -2.681  1.00  0.00     0.035 C 
ENDBRANCH  23  24
ENDBRANCH  20  23
ENDBRANCH  17  19
ENDBRANCH   5  10
BRANCH   1  29
HETATM   29  C   UNL     1      43.360 -12.813   7.002  1.00  0.00     0.273 C 
BRANCH  29  30
HETATM   30  C   UNL     1      42.631 -12.356   5.772  1.00  0.00    -0.030 A 
HETATM   31  C   UNL     1      41.434 -11.632   5.893  1.00  0.00     0.048 A 
HETATM   32  C   UNL     1      40.764 -11.179   4.755  1.00  0.00     0.102 A 
HETATM   33  C   UNL     1      41.236 -11.493   3.477  1.00  0.00     0.101 A 
HETATM   34  C   UNL     1      42.431 -12.206   3.352  1.00  0.00     0.040 A 
HETATM   35  C   UNL     1      43.128 -12.629   4.491  1.00  0.00     0.012 A 
BRANCH  32  36
HETATM   36  O   UNL     1      39.577 -10.506   4.889  1.00  0.00    -0.353 OA
HETATM   37  C   UNL     1      38.839 -10.960   6.022  1.00  0.00     0.210 C 
ENDBRANCH  32  36
BRANCH  33  38
HETATM   38  O   UNL     1      40.512 -11.022   2.416  1.00  0.00    -0.353 OA
HETATM   39  C   UNL     1      41.124  -9.980   1.663  1.00  0.00     0.210 C 
ENDBRANCH  33  38
ENDBRANCH  29  30
ENDBRANCH   1  29
TORSDOF 9
ENDMDL
MODEL 7
REMARK VINA RESULT:      -8.1      5.673      9.949
REMARK  9 active torsions:
REMARK  status: ('A' for Active; 'I' for Inactive)
REMARK    1  A    between atoms: O_2  and  C_3 
REMARK    2  A    between atoms: C_4  and  O_5 
REMARK    3  A    between atoms: C_8  and  C_9 
REMARK    4  A    between atoms: C_9  and  N_10 
REMARK    5  A    between atoms: C_14  and  O_15 
REMARK    6  A    between atoms: C_14  and  C_16 
REMARK    7  A    between atoms: C_21  and  C_22 
REMARK       I    between atoms: C_22  and  N_23 
REMARK    8  A    between atoms: N_23  and  C_24 
REMARK    9  A    between atoms: C_24  and  C_25 
ROOT
HETATM    1  N   UNL     1      40.582 -10.641  -2.264  1.00  0.00    -0.067 N 
HETATM    2  H   UNL     1      40.339 -10.406  -3.236  1.00  0.00     0.280 HD
HETATM    3  C   UNL     1      41.109 -12.059  -2.277  1.00  0.00     0.238 C 
HETATM    4  C   UNL     1      39.997 -13.049  -2.574  1.00  0.00     0.071 C 
HETATM    5  C   UNL     1      38.857 -12.946  -1.543  1.00  0.00     0.088 C 
HETATM    6  C   UNL     1      38.299 -11.519  -1.707  1.00  0.00     0.071 C 
HETATM    7  C   UNL     1      39.345 -10.456  -1.416  1.00  0.00     0.238 C 
ENDROOT
BRANCH   5   8
HETATM    8  O   UNL     1      37.829 -13.841  -1.966  1.00  0.00    -0.385 OA
HETATM    9  H   UNL     1      37.149 -13.351  -2.463  1.00  0.00     0.211 HD
ENDBRANCH   5   8
BRANCH   5  10
HETATM   10  C   UNL     1      39.277 -13.328  -0.116  1.00  0.00    -0.023 A 
HETATM   11  C   UNL     1      39.861 -14.592   0.145  1.00  0.00     0.024 A 
HETATM   12  C   UNL     1      40.374 -14.886   1.423  1.00  0.00     0.001 A 
HETATM   13  C   UNL     1      40.241 -13.937   2.423  1.00  0.00     0.086 A 
HETATM   14  C   UNL     1      41.053 -15.979   2.018  1.00  0.00     0.057 A 
HETATM   15  O   UNL     1      40.839 -14.361   3.568  1.00  0.00    -0.304 OA
HETATM   16  C   UNL     1      39.582 -12.726   2.256  1.00  0.00     0.039 A 
HETATM   17  C   UNL     1      41.345 -15.612   3.320  1.00  0.00     0.144 A 
HETATM   18  C   UNL     1      39.091 -12.450   0.971  1.00  0.00     0.013 A 
BRANCH  17  19
HETATM   19  C   UNL     1      42.063 -16.315   4.362  1.00  0.00     0.275 C 
HETATM   20  N   UNL     1      43.372 -16.603   4.049  1.00  0.00    -0.353 N 
HETATM   21  H   UNL     1      43.670 -16.435   3.096  1.00  0.00     0.162 HD
HETATM   22  O   UNL     1      41.542 -16.662   5.419  1.00  0.00    -0.265 OA
BRANCH  20  23
HETATM   23  C   UNL     1      44.203 -17.442   4.892  1.00  0.00     0.155 C 
BRANCH  23  24
HETATM   24  C   UNL     1      44.552 -18.782   4.237  1.00  0.00     0.139 C 
HETATM   25  O   UNL     1      44.219 -19.883   5.111  1.00  0.00    -0.384 OA
HETATM   26  C   UNL     1      43.759 -20.975   4.297  1.00  0.00     0.168 C 
HETATM   27  C   UNL     1      43.860 -20.537   2.849  1.00  0.00     0.029 C 
HETATM   28  C   UNL     1      43.768 -19.036   2.960  1.00  0.00     0.035 C 
ENDBRANCH  23  24
ENDBRANCH  20  23
ENDBRANCH  17  19
ENDBRANCH   5  10
BRANCH   1  29
HETATM   29  C   UNL     1      41.641  -9.633  -1.834  1.00  0.00     0.273 C 
BRANCH  29  30
HETATM   30  C   UNL     1      41.745  -8.420  -2.713  1.00  0.00    -0.030 A 
HETATM   31  C   UNL     1      42.303  -7.234  -2.211  1.00  0.00     0.048 A 
HETATM   32  C   UNL     1      42.430  -6.110  -3.029  1.00  0.00     0.102 A 
HETATM   33  C   UNL     1      41.944  -6.125  -4.341  1.00  0.00     0.101 A 
HETATM   34  C   UNL     1      41.396  -7.306  -4.848  1.00  0.00     0.040 A 
HETATM   35  C   UNL     1      41.303  -8.448  -4.042  1.00  0.00     0.012 A 
BRANCH  32  36
HETATM   36  O   UNL     1      42.942  -4.948  -2.513  1.00  0.00    -0.353 OA
HETATM   37  C   UNL     1      43.883  -5.204  -1.473  1.00  0.00     0.210 C 
ENDBRANCH  32  36
BRANCH  33  38
HETATM   38  O   UNL     1      42.096  -4.977  -5.070  1.00  0.00    -0.353 OA
HETATM   39  C   UNL     1      40.893  -4.285  -5.392  1.00  0.00     0.210 C 
ENDBRANCH  33  38
ENDBRANCH  29  30
ENDBRANCH   1  29
TORSDOF 9
ENDMDL
MODEL 8
REMARK VINA RESULT:      -7.9      1.456      4.789
REMARK  9 active torsions:
REMARK  status: ('A' for Active; 'I' for Inactive)
REMARK    1  A    between atoms: O_2  and  C_3 
REMARK    2  A    between atoms: C_4  and  O_5 
REMARK    3  A    between atoms: C_8  and  C_9 
REMARK    4  A    between atoms: C_9  and  N_10 
REMARK    5  A    between atoms: C_14  and  O_15 
REMARK    6  A    between atoms: C_14  and  C_16 
REMARK    7  A    between atoms: C_21  and  C_22 
REMARK       I    between atoms: C_22  and  N_23 
REMARK    8  A    between atoms: N_23  and  C_24 
REMARK    9  A    between atoms: C_24  and  C_25 
ROOT
HETATM    1  N   UNL     1      40.694 -15.325   1.206  1.00  0.00    -0.067 N 
HETATM    2  H   UNL     1      40.489 -16.236   0.775  1.00  0.00     0.280 HD
HETATM    3  C   UNL     1      42.185 -15.107   1.079  1.00  0.00     0.238 C 
HETATM    4  C   UNL     1      42.951 -16.062   1.978  1.00  0.00     0.071 C 
HETATM    5  C   UNL     1      42.544 -15.899   3.455  1.00  0.00     0.088 C 
HETATM    6  C   UNL     1      41.051 -16.277   3.500  1.00  0.00     0.071 C 
HETATM    7  C   UNL     1      40.200 -15.362   2.634  1.00  0.00     0.238 C 
ENDROOT
BRANCH   5   8
HETATM    8  O   UNL     1      43.244 -16.899   4.193  1.00  0.00    -0.385 OA
HETATM    9  H   UNL     1      42.746 -17.123   5.001  1.00  0.00     0.211 HD
ENDBRANCH   5   8
BRANCH   5  10
HETATM   10  C   UNL     1      42.892 -14.525   4.046  1.00  0.00    -0.023 A 
HETATM   11  C   UNL     1      43.081 -14.372   5.441  1.00  0.00     0.024 A 
HETATM   12  C   UNL     1      43.538 -13.147   5.965  1.00  0.00     0.001 A 
HETATM   13  C   UNL     1      43.740 -12.090   5.094  1.00  0.00     0.086 A 
HETATM   14  C   UNL     1      43.884 -12.658   7.250  1.00  0.00     0.057 A 
HETATM   15  O   UNL     1      44.233 -11.010   5.757  1.00  0.00    -0.304 OA
HETATM   16  C   UNL     1      43.468 -12.148   3.733  1.00  0.00     0.039 A 
HETATM   17  C   UNL     1      44.329 -11.359   7.080  1.00  0.00     0.144 A 
HETATM   18  C   UNL     1      43.026 -13.381   3.233  1.00  0.00     0.013 A 
BRANCH  17  19
HETATM   19  C   UNL     1      44.848 -10.405   8.038  1.00  0.00     0.275 C 
HETATM   20  N   UNL     1      44.274 -10.489   9.286  1.00  0.00    -0.353 N 
HETATM   21  H   UNL     1      43.464 -11.090   9.385  1.00  0.00     0.162 HD
HETATM   22  O   UNL     1      45.699  -9.566   7.755  1.00  0.00    -0.265 OA
BRANCH  20  23
HETATM   23  C   UNL     1      44.541  -9.518  10.329  1.00  0.00     0.155 C 
BRANCH  23  24
HETATM   24  C   UNL     1      43.270  -9.047  11.043  1.00  0.00     0.139 C 
HETATM   25  O   UNL     1      42.409 -10.166  11.348  1.00  0.00    -0.384 OA
HETATM   26  C   UNL     1      41.769  -9.904  12.608  1.00  0.00     0.168 C 
HETATM   27  C   UNL     1      42.224  -8.535  13.075  1.00  0.00     0.029 C 
HETATM   28  C   UNL     1      43.555  -8.385  12.381  1.00  0.00     0.035 C 
ENDBRANCH  23  24
ENDBRANCH  20  23
ENDBRANCH  17  19
ENDBRANCH   5  10
BRANCH   1  29
HETATM   29  C   UNL     1      39.888 -14.294   0.424  1.00  0.00     0.273 C 
BRANCH  29  30
HETATM   30  C   UNL     1      40.021 -12.884   0.923  1.00  0.00    -0.030 A 
HETATM   31  C   UNL     1      41.014 -12.043   0.397  1.00  0.00     0.048 A 
HETATM   32  C   UNL     1      41.127 -10.722   0.836  1.00  0.00     0.102 A 
HETATM   33  C   UNL     1      40.297 -10.234   1.851  1.00  0.00     0.101 A 
HETATM   34  C   UNL     1      39.301 -11.066   2.371  1.00  0.00     0.040 A 
HETATM   35  C   UNL     1      39.160 -12.379   1.906  1.00  0.00     0.012 A 
BRANCH  32  36
HETATM   36  O   UNL     1      42.125  -9.925   0.340  1.00  0.00    -0.353 OA
HETATM   37  C   UNL     1      41.836  -9.479  -0.983  1.00  0.00     0.210 C 
ENDBRANCH  32  36
BRANCH  33  38
HETATM   38  O   UNL     1      40.483  -8.933   2.231  1.00  0.00    -0.353 OA
HETATM   39  C   UNL     1      39.340  -8.090   2.130  1.00  0.00     0.210 C 
ENDBRANCH  33  38
ENDBRANCH  29  30
ENDBRANCH   1  29
TORSDOF 9
ENDMDL
MODEL 9
REMARK VINA RESULT:      -7.7     17.561     19.594
REMARK  9 active torsions:
REMARK  status: ('A' for Active; 'I' for Inactive)
REMARK    1  A    between atoms: O_2  and  C_3 
REMARK    2  A    between atoms: C_4  and  O_5 
REMARK    3  A    between atoms: C_8  and  C_9 
REMARK    4  A    between atoms: C_9  and  N_10 
REMARK    5  A    between atoms: C_14  and  O_15 
REMARK    6  A    between atoms: C_14  and  C_16 
REMARK    7  A    between atoms: C_21  and  C_22 
REMARK       I    between atoms: C_22  and  N_23 
REMARK    8  A    between atoms: N_23  and  C_24 
REMARK    9  A    between atoms: C_24  and  C_25 
ROOT
HETATM    1  N   UNL     1      46.900 -28.486  -2.588  1.00  0.00    -0.067 N 
HETATM    2  H   UNL     1      47.282 -28.195  -3.498  1.00  0.00     0.280 HD
HETATM    3  C   UNL     1      47.097 -29.982  -2.491  1.00  0.00     0.238 C 
HETATM    4  C   UNL     1      46.186 -30.713  -3.463  1.00  0.00     0.071 C 
HETATM    5  C   UNL     1      44.704 -30.382  -3.208  1.00  0.00     0.088 C 
HETATM    6  C   UNL     1      44.582 -28.868  -3.468  1.00  0.00     0.071 C 
HETATM    7  C   UNL     1      45.454 -28.052  -2.528  1.00  0.00     0.238 C 
ENDROOT
BRANCH   5   8
HETATM    8  O   UNL     1      43.949 -31.037  -4.227  1.00  0.00    -0.385 OA
HETATM    9  H   UNL     1      43.911 -31.994  -4.046  1.00  0.00     0.211 HD
ENDBRANCH   5   8
BRANCH   5  10
HETATM   10  C   UNL     1      44.189 -30.858  -1.841  1.00  0.00    -0.023 A 
HETATM   11  C   UNL     1      43.859 -29.919  -0.833  1.00  0.00     0.024 A 
HETATM   12  C   UNL     1      43.256 -30.347   0.366  1.00  0.00     0.001 A 
HETATM   13  C   UNL     1      43.051 -31.703   0.554  1.00  0.00     0.086 A 
HETATM   14  C   UNL     1      42.753 -29.716   1.531  1.00  0.00     0.057 A 
HETATM   15  O   UNL     1      42.411 -31.931   1.731  1.00  0.00    -0.304 OA
HETATM   16  C   UNL     1      43.452 -32.678  -0.350  1.00  0.00     0.039 A 
HETATM   17  C   UNL     1      42.220 -30.712   2.330  1.00  0.00     0.144 A 
HETATM   18  C   UNL     1      44.039 -32.227  -1.541  1.00  0.00     0.013 A 
BRANCH  17  19
HETATM   19  C   UNL     1      41.537 -30.637   3.604  1.00  0.00     0.275 C 
HETATM   20  N   UNL     1      41.107 -31.852   4.086  1.00  0.00    -0.353 N 
HETATM   21  H   UNL     1      41.171 -32.649   3.463  1.00  0.00     0.162 HD
HETATM   22  O   UNL     1      41.324 -29.579   4.190  1.00  0.00    -0.265 OA
BRANCH  20  23
HETATM   23  C   UNL     1      40.263 -31.966   5.261  1.00  0.00     0.155 C 
BRANCH  23  24
HETATM   24  C   UNL     1      39.246 -33.106   5.155  1.00  0.00     0.139 C 
HETATM   25  O   UNL     1      37.933 -32.661   5.560  1.00  0.00    -0.384 OA
HETATM   26  C   UNL     1      36.963 -33.330   4.736  1.00  0.00     0.168 C 
HETATM   27  C   UNL     1      37.717 -34.265   3.811  1.00  0.00     0.029 C 
HETATM   28  C   UNL     1      39.075 -33.613   3.733  1.00  0.00     0.035 C 
ENDBRANCH  23  24
ENDBRANCH  20  23
ENDBRANCH  17  19
ENDBRANCH   5  10
BRANCH   1  29
HETATM   29  C   UNL     1      47.696 -27.727  -1.532  1.00  0.00     0.273 C 
BRANCH  29  30
HETATM   30  C   UNL     1      47.675 -28.348  -0.165  1.00  0.00    -0.030 A 
HETATM   31  C   UNL     1      48.714 -29.204   0.234  1.00  0.00     0.048 A 
HETATM   32  C   UNL     1      48.717 -29.763   1.513  1.00  0.00     0.102 A 
HETATM   33  C   UNL     1      47.655 -29.534   2.394  1.00  0.00     0.101 A 
HETATM   34  C   UNL     1      46.624 -28.676   2.005  1.00  0.00     0.040 A 
HETATM   35  C   UNL     1      46.636 -28.081   0.736  1.00  0.00     0.012 A 
BRANCH  32  36
HETATM   36  O   UNL     1      49.719 -30.627   1.873  1.00  0.00    -0.353 OA
HETATM   37  C   UNL     1      50.699 -30.755   0.846  1.00  0.00     0.210 C 
ENDBRANCH  32  36
BRANCH  33  38
HETATM   38  O   UNL     1      47.731 -30.132   3.623  1.00  0.00    -0.353 OA
HETATM   39  C   UNL     1      46.526 -30.723   4.098  1.00  0.00     0.210 C 
ENDBRANCH  33  38
ENDBRANCH  29  30
ENDBRANCH   1  29
TORSDOF 9
ENDMDL
MODEL 10
REMARK VINA RESULT:      -7.7      1.434      4.778
REMARK  9 active torsions:
REMARK  status: ('A' for Active; 'I' for Inactive)
REMARK    1  A    between atoms: O_2  and  C_3 
REMARK    2  A    between atoms: C_4  and  O_5 
REMARK    3  A    between atoms: C_8  and  C_9 
REMARK    4  A    between atoms: C_9  and  N_10 
REMARK    5  A    between atoms: C_14  and  O_15 
REMARK    6  A    between atoms: C_14  and  C_16 
REMARK    7  A    between atoms: C_21  and  C_22 
REMARK       I    between atoms: C_22  and  N_23 
REMARK    8  A    between atoms: N_23  and  C_24 
REMARK    9  A    between atoms: C_24  and  C_25 
ROOT
HETATM    1  N   UNL     1      40.672 -15.397   1.181  1.00  0.00    -0.067 N 
HETATM    2  H   UNL     1      40.471 -16.315   0.761  1.00  0.00     0.280 HD
HETATM    3  C   UNL     1      42.165 -15.183   1.068  1.00  0.00     0.238 C 
HETATM    4  C   UNL     1      42.919 -16.125   1.990  1.00  0.00     0.071 C 
HETATM    5  C   UNL     1      42.494 -15.941   3.459  1.00  0.00     0.088 C 
HETATM    6  C   UNL     1      41.001 -16.317   3.492  1.00  0.00     0.071 C 
HETATM    7  C   UNL     1      40.161 -15.414   2.604  1.00  0.00     0.238 C 
ENDROOT
BRANCH   5   8
HETATM    8  O   UNL     1      43.185 -16.931   4.221  1.00  0.00    -0.385 OA
HETATM    9  H   UNL     1      44.038 -16.574   4.529  1.00  0.00     0.211 HD
ENDBRANCH   5   8
BRANCH   5  10
HETATM   10  C   UNL     1      42.838 -14.558   4.035  1.00  0.00    -0.023 A 
HETATM   11  C   UNL     1      43.031 -14.390   5.427  1.00  0.00     0.024 A 
HETATM   12  C   UNL     1      43.483 -13.157   5.937  1.00  0.00     0.001 A 
HETATM   13  C   UNL     1      43.675 -12.108   5.054  1.00  0.00     0.086 A 
HETATM   14  C   UNL     1      43.831 -12.653   7.215  1.00  0.00     0.057 A 
HETATM   15  O   UNL     1      44.165 -11.019   5.704  1.00  0.00    -0.304 OA
HETATM   16  C   UNL     1      43.398 -12.182   3.695  1.00  0.00     0.039 A 
HETATM   17  C   UNL     1      44.268 -11.353   7.030  1.00  0.00     0.144 A 
HETATM   18  C   UNL     1      42.961 -13.423   3.209  1.00  0.00     0.013 A 
BRANCH  17  19
HETATM   19  C   UNL     1      44.786 -10.387   7.975  1.00  0.00     0.275 C 
HETATM   20  N   UNL     1      43.903 -10.046   8.975  1.00  0.00    -0.353 N 
HETATM   21  H   UNL     1      42.949 -10.377   8.885  1.00  0.00     0.162 HD
HETATM   22  O   UNL     1      45.901  -9.882   7.877  1.00  0.00    -0.265 OA
BRANCH  20  23
HETATM   23  C   UNL     1      44.174  -8.978   9.918  1.00  0.00     0.155 C 
BRANCH  23  24
HETATM   24  C   UNL     1      43.044  -8.782  10.935  1.00  0.00     0.139 C 
HETATM   25  O   UNL     1      42.330 -10.019  11.152  1.00  0.00    -0.384 OA
HETATM   26  C   UNL     1      41.940 -10.069  12.536  1.00  0.00     0.168 C 
HETATM   27  C   UNL     1      42.396  -8.777  13.185  1.00  0.00     0.029 C 
HETATM   28  C   UNL     1      43.550  -8.365  12.305  1.00  0.00     0.035 C 
ENDBRANCH  23  24
ENDBRANCH  20  23
ENDBRANCH  17  19
ENDBRANCH   5  10
BRANCH   1  29
HETATM   29  C   UNL     1      39.877 -14.377   0.375  1.00  0.00     0.273 C 
BRANCH  29  30
HETATM   30  C   UNL     1      40.143 -12.945   0.739  1.00  0.00    -0.030 A 
HETATM   31  C   UNL     1      39.546 -12.387   1.880  1.00  0.00     0.048 A 
HETATM   32  C   UNL     1      39.810 -11.065   2.242  1.00  0.00     0.102 A 
HETATM   33  C   UNL     1      40.621 -10.255   1.440  1.00  0.00     0.101 A 
HETATM   34  C   UNL     1      41.225 -10.808   0.308  1.00  0.00     0.040 A 
HETATM   35  C   UNL     1      40.993 -12.146  -0.037  1.00  0.00     0.012 A 
BRANCH  32  36
HETATM   36  O   UNL     1      39.189 -10.524   3.337  1.00  0.00    -0.353 OA
HETATM   37  C   UNL     1      39.563 -11.194   4.539  1.00  0.00     0.210 C 
ENDBRANCH  32  36
BRANCH  33  38
HETATM   38  O   UNL     1      40.817  -8.967   1.859  1.00  0.00    -0.353 OA
HETATM   39  C   UNL     1      40.134  -7.963   1.115  1.00  0.00     0.210 C 
ENDBRANCH  33  38
ENDBRANCH  29  30
ENDBRANCH   1  29
TORSDOF 9
ENDMDL
