MODEL 1
REMARK VINA RESULT:      -8.9      0.000      0.000
REMARK  6 active torsions:
REMARK  status: ('A' for Active; 'I' for Inactive)
REMARK    1  A    between atoms: C_2  and  O_3 
REMARK    2  A    between atoms: O_3  and  C_4 
REMARK    3  A    between atoms: C_13  and  C_14 
REMARK       I    between atoms: C_14  and  N_15 
REMARK    4  A    between atoms: N_15  and  N_16 
REMARK       I    between atoms: N_16  and  C_17 
REMARK    5  A    between atoms: C_17  and  C_18 
REMARK    6  A    between atoms: C_18  and  C_19 
ROOT
HETATM    1  C   UNL     1      43.654 -18.756   3.091  1.00  0.00     0.069 A 
HETATM    2  C   UNL     1      43.656 -18.034   4.284  1.00  0.00     0.050 A 
HETATM    3  C   UNL     1      43.379 -16.655   4.297  1.00  0.00    -0.004 A 
HETATM    4  C   UNL     1      43.097 -15.976   3.096  1.00  0.00     0.068 A 
HETATM    5  N   UNL     1      42.813 -14.672   3.027  1.00  0.00    -0.240 NA
HETATM    6  C   UNL     1      42.810 -14.012   4.202  1.00  0.00     0.111 A 
HETATM    7  C   UNL     1      43.079 -14.547   5.453  1.00  0.00     0.028 A 
HETATM    8  C   UNL     1      43.373 -15.926   5.493  1.00  0.00     0.030 A 
HETATM    9  S   UNL     1      42.447 -12.351   4.262  1.00  0.00    -0.062 SA
HETATM   10  C   UNL     1      42.655 -12.287   5.965  1.00  0.00     0.103 A 
HETATM   11  C   UNL     1      42.992 -13.533   6.464  1.00  0.00     0.062 A 
HETATM   12  N   UNL     1      43.216 -13.774   7.776  1.00  0.00    -0.397 N 
HETATM   13  C   UNL     1      43.115 -16.711   1.920  1.00  0.00     0.035 A 
HETATM   14  C   UNL     1      43.389 -18.087   1.902  1.00  0.00     0.039 A 
HETATM   15  H   UNL     1      43.251 -13.003   8.447  1.00  0.00     0.156 HD
HETATM   16  H   UNL     1      43.616 -14.638   8.124  1.00  0.00     0.156 HD
ENDROOT
BRANCH  10  17
HETATM   17  C   UNL     1      42.502 -11.041   6.704  1.00  0.00     0.279 C 
HETATM   18  N   UNL     1      43.579 -10.647   7.480  1.00  0.00    -0.263 N 
HETATM   19  H   UNL     1      44.430 -11.200   7.568  1.00  0.00     0.190 HD
HETATM   20  O   UNL     1      41.480 -10.347   6.665  1.00  0.00    -0.265 OA
BRANCH  18  21
HETATM   21  N   UNL     1      43.457  -9.523   8.302  1.00  0.00    -0.267 N 
HETATM   22  C   UNL     1      43.764  -9.651   9.641  1.00  0.00     0.240 C 
HETATM   23  O   UNL     1      44.104 -10.720  10.145  1.00  0.00    -0.272 OA
HETATM   24  H   UNL     1      43.340  -8.622   7.839  1.00  0.00     0.190 HD
BRANCH  22  25
HETATM   25  C   UNL     1      43.576  -8.382  10.448  1.00  0.00     0.143 C 
BRANCH  25  26
HETATM   26  C   UNL     1      42.790  -8.584  11.720  1.00  0.00    -0.049 A 
HETATM   27  C   UNL     1      41.609  -9.339  11.718  1.00  0.00     0.007 A 
HETATM   28  C   UNL     1      40.898  -9.540  12.902  1.00  0.00     0.001 A 
HETATM   29  C   UNL     1      41.360  -8.993  14.098  1.00  0.00     0.000 A 
HETATM   30  C   UNL     1      42.534  -8.240  14.110  1.00  0.00     0.001 A 
HETATM   31  C   UNL     1      43.246  -8.036  12.928  1.00  0.00     0.007 A 
ENDBRANCH  25  26
ENDBRANCH  22  25
ENDBRANCH  18  21
ENDBRANCH  10  17
BRANCH   1  32
HETATM   32  O   UNL     1      43.924 -20.088   3.225  1.00  0.00    -0.351 OA
BRANCH  32  33
HETATM   33  C   UNL     1      44.608 -20.496   4.410  1.00  0.00     0.171 C 
HETATM   34  C   UNL     1      43.613 -21.217   5.300  1.00  0.00     0.034 C 
ENDBRANCH  32  33
ENDBRANCH   1  32
TORSDOF 6
ENDMDL
MODEL 2
REMARK VINA RESULT:      -8.8      2.322     10.866
REMARK  6 active torsions:
REMARK  status: ('A' for Active; 'I' for Inactive)
REMARK    1  A    between atoms: C_2  and  O_3 
REMARK    2  A    between atoms: O_3  and  C_4 
REMARK    3  A    between atoms: C_13  and  C_14 
REMARK       I    between atoms: C_14  and  N_15 
REMARK    4  A    between atoms: N_15  and  N_16 
REMARK       I    between atoms: N_16  and  C_17 
REMARK    5  A    between atoms: C_17  and  C_18 
REMARK    6  A    between atoms: C_18  and  C_19 
ROOT
HETATM    1  C   UNL     1      42.421  -7.186  13.189  1.00  0.00     0.069 A 
HETATM    2  C   UNL     1      43.323  -7.961  12.460  1.00  0.00     0.050 A 
HETATM    3  C   UNL     1      43.000  -8.430  11.174  1.00  0.00    -0.004 A 
HETATM    4  C   UNL     1      41.752  -8.124  10.598  1.00  0.00     0.068 A 
HETATM    5  N   UNL     1      41.377  -8.522   9.379  1.00  0.00    -0.240 NA
HETATM    6  C   UNL     1      42.281  -9.255   8.700  1.00  0.00     0.111 A 
HETATM    7  C   UNL     1      43.538  -9.639   9.144  1.00  0.00     0.028 A 
HETATM    8  C   UNL     1      43.905  -9.203  10.434  1.00  0.00     0.030 A 
HETATM    9  S   UNL     1      41.941  -9.812   7.129  1.00  0.00    -0.062 SA
HETATM   10  C   UNL     1      43.459 -10.601   6.995  1.00  0.00     0.103 A 
HETATM   11  C   UNL     1      44.206 -10.425   8.148  1.00  0.00     0.062 A 
HETATM   12  N   UNL     1      45.445 -10.940   8.317  1.00  0.00    -0.397 N 
HETATM   13  C   UNL     1      40.866  -7.365  11.347  1.00  0.00     0.035 A 
HETATM   14  C   UNL     1      41.183  -6.894  12.630  1.00  0.00     0.039 A 
HETATM   15  H   UNL     1      45.839 -11.584   7.628  1.00  0.00     0.156 HD
HETATM   16  H   UNL     1      45.927 -10.950   9.210  1.00  0.00     0.156 HD
ENDROOT
BRANCH  10  17
HETATM   17  C   UNL     1      43.823 -11.355   5.803  1.00  0.00     0.279 C 
HETATM   18  N   UNL     1      42.881 -12.252   5.326  1.00  0.00    -0.263 N 
HETATM   19  H   UNL     1      41.988 -12.413   5.789  1.00  0.00     0.190 HD
HETATM   20  O   UNL     1      44.906 -11.228   5.221  1.00  0.00    -0.265 OA
BRANCH  18  21
HETATM   21  N   UNL     1      43.209 -13.087   4.256  1.00  0.00    -0.267 N 
HETATM   22  C   UNL     1      42.373 -14.146   3.967  1.00  0.00     0.240 C 
HETATM   23  O   UNL     1      41.373 -14.404   4.635  1.00  0.00    -0.272 OA
HETATM   24  H   UNL     1      43.936 -12.760   3.621  1.00  0.00     0.190 HD
BRANCH  22  25
HETATM   25  C   UNL     1      42.830 -15.003   2.804  1.00  0.00     0.143 C 
BRANCH  25  26
HETATM   26  C   UNL     1      43.237 -16.399   3.204  1.00  0.00    -0.049 A 
HETATM   27  C   UNL     1      43.157 -17.458   2.288  1.00  0.00     0.007 A 
HETATM   28  C   UNL     1      43.556 -18.744   2.658  1.00  0.00     0.001 A 
HETATM   29  C   UNL     1      44.039 -18.984   3.943  1.00  0.00     0.000 A 
HETATM   30  C   UNL     1      44.123 -17.938   4.861  1.00  0.00     0.001 A 
HETATM   31  C   UNL     1      43.724 -16.652   4.495  1.00  0.00     0.007 A 
ENDBRANCH  25  26
ENDBRANCH  22  25
ENDBRANCH  18  21
ENDBRANCH  10  17
BRANCH   1  32
HETATM   32  O   UNL     1      42.868  -6.788  14.416  1.00  0.00    -0.351 OA
BRANCH  32  33
HETATM   33  C   UNL     1      41.903  -6.704  15.465  1.00  0.00     0.171 C 
HETATM   34  C   UNL     1      41.398  -8.107  15.749  1.00  0.00     0.034 C 
ENDBRANCH  32  33
ENDBRANCH   1  32
TORSDOF 6
ENDMDL
MODEL 3
REMARK VINA RESULT:      -8.8      1.632      2.060
REMARK  6 active torsions:
REMARK  status: ('A' for Active; 'I' for Inactive)
REMARK    1  A    between atoms: C_2  and  O_3 
REMARK    2  A    between atoms: O_3  and  C_4 
REMARK    3  A    between atoms: C_13  and  C_14 
REMARK       I    between atoms: C_14  and  N_15 
REMARK    4  A    between atoms: N_15  and  N_16 
REMARK       I    between atoms: N_16  and  C_17 
REMARK    5  A    between atoms: C_17  and  C_18 
REMARK    6  A    between atoms: C_18  and  C_19 
ROOT
HETATM    1  C   UNL     1      42.721 -17.373   2.340  1.00  0.00     0.069 A 
HETATM    2  C   UNL     1      42.819 -16.895   3.646  1.00  0.00     0.050 A 
HETATM    3  C   UNL     1      42.958 -15.519   3.905  1.00  0.00    -0.004 A 
HETATM    4  C   UNL     1      43.004 -14.597   2.842  1.00  0.00     0.068 A 
HETATM    5  N   UNL     1      43.122 -13.276   3.007  1.00  0.00    -0.240 NA
HETATM    6  C   UNL     1      43.198 -12.851   4.283  1.00  0.00     0.111 A 
HETATM    7  C   UNL     1      43.177 -13.642   5.422  1.00  0.00     0.028 A 
HETATM    8  C   UNL     1      43.050 -15.031   5.216  1.00  0.00     0.030 A 
HETATM    9  S   UNL     1      43.333 -11.193   4.637  1.00  0.00    -0.062 SA
HETATM   10  C   UNL     1      43.385 -11.478   6.329  1.00  0.00     0.103 A 
HETATM   11  C   UNL     1      43.294 -12.833   6.601  1.00  0.00     0.062 A 
HETATM   12  N   UNL     1      43.309 -13.344   7.852  1.00  0.00    -0.397 N 
HETATM   13  C   UNL     1      42.919 -15.097   1.551  1.00  0.00     0.035 A 
HETATM   14  C   UNL     1      42.779 -16.468   1.287  1.00  0.00     0.039 A 
HETATM   15  H   UNL     1      43.504 -12.742   8.657  1.00  0.00     0.156 HD
HETATM   16  H   UNL     1      43.404 -14.334   8.049  1.00  0.00     0.156 HD
ENDROOT
BRANCH  10  17
HETATM   17  C   UNL     1      43.533 -10.385   7.281  1.00  0.00     0.279 C 
HETATM   18  N   UNL     1      42.783  -9.247   7.037  1.00  0.00    -0.263 N 
HETATM   19  H   UNL     1      42.179  -9.146   6.223  1.00  0.00     0.190 HD
HETATM   20  O   UNL     1      44.278 -10.436   8.266  1.00  0.00    -0.265 OA
BRANCH  18  21
HETATM   21  N   UNL     1      42.962  -8.121   7.846  1.00  0.00    -0.267 N 
HETATM   22  C   UNL     1      42.006  -7.837   8.799  1.00  0.00     0.240 C 
HETATM   23  O   UNL     1      40.986  -8.512   8.939  1.00  0.00    -0.272 OA
HETATM   24  H   UNL     1      43.881  -7.682   7.829  1.00  0.00     0.190 HD
BRANCH  22  25
HETATM   25  C   UNL     1      42.282  -6.585   9.607  1.00  0.00     0.143 C 
BRANCH  25  26
HETATM   26  C   UNL     1      42.532  -6.851  11.070  1.00  0.00    -0.049 A 
HETATM   27  C   UNL     1      43.176  -8.026  11.484  1.00  0.00     0.007 A 
HETATM   28  C   UNL     1      43.424  -8.255  12.838  1.00  0.00     0.001 A 
HETATM   29  C   UNL     1      43.034  -7.316  13.790  1.00  0.00     0.000 A 
HETATM   30  C   UNL     1      42.393  -6.145  13.390  1.00  0.00     0.001 A 
HETATM   31  C   UNL     1      42.143  -5.912  12.037  1.00  0.00     0.007 A 
ENDBRANCH  25  26
ENDBRANCH  22  25
ENDBRANCH  18  21
ENDBRANCH  10  17
BRANCH   1  32
HETATM   32  O   UNL     1      42.576 -18.727   2.234  1.00  0.00    -0.351 OA
BRANCH  32  33
HETATM   33  C   UNL     1      43.635 -19.537   2.744  1.00  0.00     0.171 C 
HETATM   34  C   UNL     1      43.998 -20.557   1.681  1.00  0.00     0.034 C 
ENDBRANCH  32  33
ENDBRANCH   1  32
TORSDOF 6
ENDMDL
MODEL 4
REMARK VINA RESULT:      -8.8      3.226     11.675
REMARK  6 active torsions:
REMARK  status: ('A' for Active; 'I' for Inactive)
REMARK    1  A    between atoms: C_2  and  O_3 
REMARK    2  A    between atoms: O_3  and  C_4 
REMARK    3  A    between atoms: C_13  and  C_14 
REMARK       I    between atoms: C_14  and  N_15 
REMARK    4  A    between atoms: N_15  and  N_16 
REMARK       I    between atoms: N_16  and  C_17 
REMARK    5  A    between atoms: C_17  and  C_18 
REMARK    6  A    between atoms: C_18  and  C_19 
ROOT
HETATM    1  C   UNL     1      40.751  -6.700  16.491  1.00  0.00     0.069 A 
HETATM    2  C   UNL     1      41.234  -7.897  15.963  1.00  0.00     0.050 A 
HETATM    3  C   UNL     1      41.693  -7.970  14.635  1.00  0.00    -0.004 A 
HETATM    4  C   UNL     1      41.669  -6.828  13.811  1.00  0.00     0.068 A 
HETATM    5  N   UNL     1      42.098  -6.814  12.545  1.00  0.00    -0.240 NA
HETATM    6  C   UNL     1      42.571  -7.986  12.076  1.00  0.00     0.111 A 
HETATM    7  C   UNL     1      42.643  -9.186  12.767  1.00  0.00     0.028 A 
HETATM    8  C   UNL     1      42.185  -9.168  14.101  1.00  0.00     0.030 A 
HETATM    9  S   UNL     1      43.165  -8.105  10.487  1.00  0.00    -0.062 SA
HETATM   10  C   UNL     1      43.524  -9.775  10.663  1.00  0.00     0.103 A 
HETATM   11  C   UNL     1      43.192 -10.216  11.933  1.00  0.00     0.062 A 
HETATM   12  N   UNL     1      43.368 -11.490  12.348  1.00  0.00    -0.397 N 
HETATM   13  C   UNL     1      41.172  -5.653  14.353  1.00  0.00     0.035 A 
HETATM   14  C   UNL     1      40.714  -5.574  15.677  1.00  0.00     0.039 A 
HETATM   15  H   UNL     1      43.659 -12.217  11.688  1.00  0.00     0.156 HD
HETATM   16  H   UNL     1      42.982 -11.854  13.213  1.00  0.00     0.156 HD
ENDROOT
BRANCH  10  17
HETATM   17  C   UNL     1      44.081 -10.554   9.565  1.00  0.00     0.279 C 
HETATM   18  N   UNL     1      43.208 -10.898   8.547  1.00  0.00    -0.263 N 
HETATM   19  H   UNL     1      42.218 -10.657   8.561  1.00  0.00     0.190 HD
HETATM   20  O   UNL     1      45.264 -10.907   9.512  1.00  0.00    -0.265 OA
BRANCH  18  21
HETATM   21  N   UNL     1      43.648 -11.740   7.522  1.00  0.00    -0.267 N 
HETATM   22  C   UNL     1      42.833 -11.922   6.424  1.00  0.00     0.240 C 
HETATM   23  O   UNL     1      41.720 -11.404   6.329  1.00  0.00    -0.272 OA
HETATM   24  H   UNL     1      44.628 -12.018   7.541  1.00  0.00     0.190 HD
BRANCH  22  25
HETATM   25  C   UNL     1      43.391 -12.870   5.382  1.00  0.00     0.143 C 
BRANCH  25  26
HETATM   26  C   UNL     1      43.088 -14.321   5.658  1.00  0.00    -0.049 A 
HETATM   27  C   UNL     1      43.987 -15.114   6.386  1.00  0.00     0.007 A 
HETATM   28  C   UNL     1      43.690 -16.451   6.657  1.00  0.00     0.001 A 
HETATM   29  C   UNL     1      42.495 -17.007   6.207  1.00  0.00     0.000 A 
HETATM   30  C   UNL     1      41.594 -16.228   5.483  1.00  0.00     0.001 A 
HETATM   31  C   UNL     1      41.888 -14.892   5.209  1.00  0.00     0.007 A 
ENDBRANCH  25  26
ENDBRANCH  22  25
ENDBRANCH  18  21
ENDBRANCH  10  17
BRANCH   1  32
HETATM   32  O   UNL     1      40.352  -6.768  17.795  1.00  0.00    -0.351 OA
BRANCH  32  33
HETATM   33  C   UNL     1      40.763  -7.912  18.542  1.00  0.00     0.171 C 
HETATM   34  C   UNL     1      39.563  -8.415  19.325  1.00  0.00     0.034 C 
ENDBRANCH  32  33
ENDBRANCH   1  32
TORSDOF 6
ENDMDL
MODEL 5
REMARK VINA RESULT:      -8.6      2.217     10.808
REMARK  6 active torsions:
REMARK  status: ('A' for Active; 'I' for Inactive)
REMARK    1  A    between atoms: C_2  and  O_3 
REMARK    2  A    between atoms: O_3  and  C_4 
REMARK    3  A    between atoms: C_13  and  C_14 
REMARK       I    between atoms: C_14  and  N_15 
REMARK    4  A    between atoms: N_15  and  N_16 
REMARK       I    between atoms: N_16  and  C_17 
REMARK    5  A    between atoms: C_17  and  C_18 
REMARK    6  A    between atoms: C_18  and  C_19 
ROOT
HETATM    1  C   UNL     1      41.474  -7.346  11.027  1.00  0.00     0.069 A 
HETATM    2  C   UNL     1      42.479  -7.980  10.298  1.00  0.00     0.050 A 
HETATM    3  C   UNL     1      42.170  -8.783   9.185  1.00  0.00    -0.004 A 
HETATM    4  C   UNL     1      40.831  -8.963   8.789  1.00  0.00     0.068 A 
HETATM    5  N   UNL     1      40.457  -9.700   7.738  1.00  0.00    -0.240 NA
HETATM    6  C   UNL     1      41.457 -10.283   7.049  1.00  0.00     0.111 A 
HETATM    7  C   UNL     1      42.813 -10.203   7.330  1.00  0.00     0.028 A 
HETATM    8  C   UNL     1      43.176  -9.418   8.444  1.00  0.00     0.030 A 
HETATM    9  S   UNL     1      41.125 -11.234   5.679  1.00  0.00    -0.062 SA
HETATM   10  C   UNL     1      42.785 -11.586   5.423  1.00  0.00     0.103 A 
HETATM   11  C   UNL     1      43.570 -10.969   6.383  1.00  0.00     0.062 A 
HETATM   12  N   UNL     1      44.917 -11.075   6.423  1.00  0.00    -0.397 N 
HETATM   13  C   UNL     1      39.847  -8.334   9.538  1.00  0.00     0.035 A 
HETATM   14  C   UNL     1      40.150  -7.532  10.648  1.00  0.00     0.039 A 
HETATM   15  H   UNL     1      45.408 -11.719   5.796  1.00  0.00     0.156 HD
HETATM   16  H   UNL     1      45.479 -10.762   7.208  1.00  0.00     0.156 HD
ENDROOT
BRANCH  10  17
HETATM   17  C   UNL     1      43.222 -12.448   4.332  1.00  0.00     0.279 C 
HETATM   18  N   UNL     1      42.778 -13.759   4.364  1.00  0.00    -0.263 N 
HETATM   19  H   UNL     1      42.202 -14.130   5.118  1.00  0.00     0.190 HD
HETATM   20  O   UNL     1      43.951 -12.064   3.412  1.00  0.00    -0.265 OA
BRANCH  18  21
HETATM   21  N   UNL     1      43.251 -14.667   3.413  1.00  0.00    -0.267 N 
HETATM   22  C   UNL     1      42.569 -15.853   3.240  1.00  0.00     0.240 C 
HETATM   23  O   UNL     1      41.587 -16.160   3.915  1.00  0.00    -0.272 OA
HETATM   24  H   UNL     1      43.952 -14.325   2.757  1.00  0.00     0.190 HD
BRANCH  22  25
HETATM   25  C   UNL     1      43.176 -16.777   2.202  1.00  0.00     0.143 C 
BRANCH  25  26
HETATM   26  C   UNL     1      43.459 -18.165   2.719  1.00  0.00    -0.049 A 
HETATM   27  C   UNL     1      44.090 -18.353   3.957  1.00  0.00     0.007 A 
HETATM   28  C   UNL     1      44.329 -19.641   4.439  1.00  0.00     0.001 A 
HETATM   29  C   UNL     1      43.942 -20.751   3.692  1.00  0.00     0.000 A 
HETATM   30  C   UNL     1      43.314 -20.576   2.459  1.00  0.00     0.001 A 
HETATM   31  C   UNL     1      43.074 -19.290   1.974  1.00  0.00     0.007 A 
ENDBRANCH  25  26
ENDBRANCH  22  25
ENDBRANCH  18  21
ENDBRANCH  10  17
BRANCH   1  32
HETATM   32  O   UNL     1      41.916  -6.587  12.073  1.00  0.00    -0.351 OA
BRANCH  32  33
HETATM   33  C   UNL     1      41.801  -7.150  13.380  1.00  0.00     0.171 C 
HETATM   34  C   UNL     1      43.201  -7.439  13.890  1.00  0.00     0.034 C 
ENDBRANCH  32  33
ENDBRANCH   1  32
TORSDOF 6
ENDMDL
MODEL 6
REMARK VINA RESULT:      -8.5      2.359     11.032
REMARK  6 active torsions:
REMARK  status: ('A' for Active; 'I' for Inactive)
REMARK    1  A    between atoms: C_2  and  O_3 
REMARK    2  A    between atoms: O_3  and  C_4 
REMARK    3  A    between atoms: C_13  and  C_14 
REMARK       I    between atoms: C_14  and  N_15 
REMARK    4  A    between atoms: N_15  and  N_16 
REMARK       I    between atoms: N_16  and  C_17 
REMARK    5  A    between atoms: C_17  and  C_18 
REMARK    6  A    between atoms: C_18  and  C_19 
ROOT
HETATM    1  C   UNL     1      41.968  -7.043  12.198  1.00  0.00     0.069 A 
HETATM    2  C   UNL     1      41.580  -7.304  10.884  1.00  0.00     0.050 A 
HETATM    3  C   UNL     1      42.238  -8.279  10.114  1.00  0.00    -0.004 A 
HETATM    4  C   UNL     1      43.309  -9.012  10.661  1.00  0.00     0.068 A 
HETATM    5  N   UNL     1      43.977  -9.962   9.999  1.00  0.00    -0.240 NA
HETATM    6  C   UNL     1      43.563 -10.195   8.738  1.00  0.00     0.111 A 
HETATM    7  C   UNL     1      42.535  -9.547   8.070  1.00  0.00     0.028 A 
HETATM    8  C   UNL     1      41.849  -8.551   8.796  1.00  0.00     0.030 A 
HETATM    9  S   UNL     1      44.313 -11.390   7.788  1.00  0.00    -0.062 SA
HETATM   10  C   UNL     1      43.297 -11.069   6.441  1.00  0.00     0.103 A 
HETATM   11  C   UNL     1      42.397 -10.059   6.737  1.00  0.00     0.062 A 
HETATM   12  N   UNL     1      41.477  -9.601   5.859  1.00  0.00    -0.397 N 
HETATM   13  C   UNL     1      43.687  -8.725  11.964  1.00  0.00     0.035 A 
HETATM   14  C   UNL     1      43.033  -7.754  12.737  1.00  0.00     0.039 A 
HETATM   15  H   UNL     1      41.485  -9.917   4.885  1.00  0.00     0.156 HD
HETATM   16  H   UNL     1      40.928  -8.762   6.012  1.00  0.00     0.156 HD
ENDROOT
BRANCH  10  17
HETATM   17  C   UNL     1      43.446 -11.791   5.185  1.00  0.00     0.279 C 
HETATM   18  N   UNL     1      43.010 -13.106   5.172  1.00  0.00    -0.263 N 
HETATM   19  H   UNL     1      42.632 -13.571   5.996  1.00  0.00     0.190 HD
HETATM   20  O   UNL     1      43.932 -11.290   4.165  1.00  0.00    -0.265 OA
BRANCH  18  21
HETATM   21  N   UNL     1      43.227 -13.889   4.035  1.00  0.00    -0.267 N 
HETATM   22  C   UNL     1      42.434 -15.001   3.842  1.00  0.00     0.240 C 
HETATM   23  O   UNL     1      41.571 -15.350   4.646  1.00  0.00    -0.272 OA
HETATM   24  H   UNL     1      43.822 -13.493   3.308  1.00  0.00     0.190 HD
BRANCH  22  25
HETATM   25  C   UNL     1      42.765 -15.794   2.593  1.00  0.00     0.143 C 
BRANCH  25  26
HETATM   26  C   UNL     1      43.194 -17.212   2.873  1.00  0.00    -0.049 A 
HETATM   27  C   UNL     1      43.948 -17.520   4.014  1.00  0.00     0.007 A 
HETATM   28  C   UNL     1      44.323 -18.838   4.279  1.00  0.00     0.001 A 
HETATM   29  C   UNL     1      43.949 -19.860   3.409  1.00  0.00     0.000 A 
HETATM   30  C   UNL     1      43.199 -19.566   2.271  1.00  0.00     0.001 A 
HETATM   31  C   UNL     1      42.823 -18.249   2.003  1.00  0.00     0.007 A 
ENDBRANCH  25  26
ENDBRANCH  22  25
ENDBRANCH  18  21
ENDBRANCH  10  17
BRANCH   1  32
HETATM   32  O   UNL     1      41.234  -6.082  12.833  1.00  0.00    -0.351 OA
BRANCH  32  33
HETATM   33  C   UNL     1      40.596  -6.451  14.055  1.00  0.00     0.171 C 
HETATM   34  C   UNL     1      39.113  -6.615  13.778  1.00  0.00     0.034 C 
ENDBRANCH  32  33
ENDBRANCH   1  32
TORSDOF 6
ENDMDL
MODEL 7
REMARK VINA RESULT:      -8.5      2.019      2.427
REMARK  6 active torsions:
REMARK  status: ('A' for Active; 'I' for Inactive)
REMARK    1  A    between atoms: C_2  and  O_3 
REMARK    2  A    between atoms: O_3  and  C_4 
REMARK    3  A    between atoms: C_13  and  C_14 
REMARK       I    between atoms: C_14  and  N_15 
REMARK    4  A    between atoms: N_15  and  N_16 
REMARK       I    between atoms: N_16  and  C_17 
REMARK    5  A    between atoms: C_17  and  C_18 
REMARK    6  A    between atoms: C_18  and  C_19 
ROOT
HETATM    1  C   UNL     1      43.720 -18.363   3.322  1.00  0.00     0.069 A 
HETATM    2  C   UNL     1      43.965 -17.447   4.345  1.00  0.00     0.050 A 
HETATM    3  C   UNL     1      43.283 -16.218   4.396  1.00  0.00    -0.004 A 
HETATM    4  C   UNL     1      42.337 -15.889   3.407  1.00  0.00     0.068 A 
HETATM    5  N   UNL     1      41.640 -14.748   3.392  1.00  0.00    -0.240 NA
HETATM    6  C   UNL     1      41.894 -13.896   4.405  1.00  0.00     0.111 A 
HETATM    7  C   UNL     1      42.802 -14.083   5.437  1.00  0.00     0.028 A 
HETATM    8  C   UNL     1      43.520 -15.297   5.425  1.00  0.00     0.030 A 
HETATM    9  S   UNL     1      41.065 -12.415   4.518  1.00  0.00    -0.062 SA
HETATM   10  C   UNL     1      41.906 -11.964   5.945  1.00  0.00     0.103 A 
HETATM   11  C   UNL     1      42.803 -12.951   6.318  1.00  0.00     0.062 A 
HETATM   12  N   UNL     1      43.599 -12.861   7.407  1.00  0.00    -0.397 N 
HETATM   13  C   UNL     1      42.120 -16.808   2.391  1.00  0.00     0.035 A 
HETATM   14  C   UNL     1      42.796 -18.036   2.337  1.00  0.00     0.039 A 
HETATM   15  H   UNL     1      43.647 -11.992   7.945  1.00  0.00     0.156 HD
HETATM   16  H   UNL     1      44.364 -13.501   7.593  1.00  0.00     0.156 HD
ENDROOT
BRANCH  10  17
HETATM   17  C   UNL     1      41.665 -10.685   6.599  1.00  0.00     0.279 C 
HETATM   18  N   UNL     1      40.467 -10.555   7.281  1.00  0.00    -0.263 N 
HETATM   19  H   UNL     1      39.763 -11.292   7.309  1.00  0.00     0.190 HD
HETATM   20  O   UNL     1      42.464  -9.743   6.568  1.00  0.00    -0.265 OA
BRANCH  18  21
HETATM   21  N   UNL     1      40.123  -9.318   7.834  1.00  0.00    -0.267 N 
HETATM   22  C   UNL     1      39.227  -9.293   8.883  1.00  0.00     0.240 C 
HETATM   23  O   UNL     1      38.692 -10.309   9.325  1.00  0.00    -0.272 OA
HETATM   24  H   UNL     1      40.697  -8.519   7.570  1.00  0.00     0.190 HD
BRANCH  22  25
HETATM   25  C   UNL     1      38.904  -7.903   9.394  1.00  0.00     0.143 C 
BRANCH  25  26
HETATM   26  C   UNL     1      39.423  -7.634  10.784  1.00  0.00    -0.049 A 
HETATM   27  C   UNL     1      40.800  -7.628  11.046  1.00  0.00     0.007 A 
HETATM   28  C   UNL     1      41.274  -7.356  12.330  1.00  0.00     0.001 A 
HETATM   29  C   UNL     1      40.379  -7.086  13.364  1.00  0.00     0.000 A 
HETATM   30  C   UNL     1      39.008  -7.089  13.115  1.00  0.00     0.001 A 
HETATM   31  C   UNL     1      38.530  -7.362  11.832  1.00  0.00     0.007 A 
ENDBRANCH  25  26
ENDBRANCH  22  25
ENDBRANCH  18  21
ENDBRANCH  10  17
BRANCH   1  32
HETATM   32  O   UNL     1      44.440 -19.520   3.403  1.00  0.00    -0.351 OA
BRANCH  32  33
HETATM   33  C   UNL     1      43.724 -20.711   3.727  1.00  0.00     0.171 C 
HETATM   34  C   UNL     1      43.903 -20.976   5.211  1.00  0.00     0.034 C 
ENDBRANCH  32  33
ENDBRANCH   1  32
TORSDOF 6
ENDMDL
MODEL 8
REMARK VINA RESULT:      -8.4      2.817     11.237
REMARK  6 active torsions:
REMARK  status: ('A' for Active; 'I' for Inactive)
REMARK    1  A    between atoms: C_2  and  O_3 
REMARK    2  A    between atoms: O_3  and  C_4 
REMARK    3  A    between atoms: C_13  and  C_14 
REMARK       I    between atoms: C_14  and  N_15 
REMARK    4  A    between atoms: N_15  and  N_16 
REMARK       I    between atoms: N_16  and  C_17 
REMARK    5  A    between atoms: C_17  and  C_18 
REMARK    6  A    between atoms: C_18  and  C_19 
ROOT
HETATM    1  C   UNL     1      41.643  -7.265  14.806  1.00  0.00     0.069 A 
HETATM    2  C   UNL     1      42.696  -7.836  14.091  1.00  0.00     0.050 A 
HETATM    3  C   UNL     1      42.536  -8.211  12.744  1.00  0.00    -0.004 A 
HETATM    4  C   UNL     1      41.303  -8.018  12.094  1.00  0.00     0.068 A 
HETATM    5  N   UNL     1      41.076  -8.336  10.816  1.00  0.00    -0.240 NA
HETATM    6  C   UNL     1      42.121  -8.870  10.154  1.00  0.00     0.111 A 
HETATM    7  C   UNL     1      43.384  -9.126  10.667  1.00  0.00     0.028 A 
HETATM    8  C   UNL     1      43.592  -8.777  12.018  1.00  0.00     0.030 A 
HETATM    9  S   UNL     1      41.977  -9.305   8.516  1.00  0.00    -0.062 SA
HETATM   10  C   UNL     1      43.598  -9.868   8.441  1.00  0.00     0.103 A 
HETATM   11  C   UNL     1      44.227  -9.711   9.665  1.00  0.00     0.062 A 
HETATM   12  N   UNL     1      45.510 -10.071   9.893  1.00  0.00    -0.397 N 
HETATM   13  C   UNL     1      40.266  -7.463  12.830  1.00  0.00     0.035 A 
HETATM   14  C   UNL     1      40.420  -7.086  14.172  1.00  0.00     0.039 A 
HETATM   15  H   UNL     1      46.041 -10.584   9.184  1.00  0.00     0.156 HD
HETATM   16  H   UNL     1      45.923 -10.107  10.819  1.00  0.00     0.156 HD
ENDROOT
BRANCH  10  17
HETATM   17  C   UNL     1      44.149 -10.442   7.222  1.00  0.00     0.279 C 
HETATM   18  N   UNL     1      43.239 -10.817   6.248  1.00  0.00    -0.263 N 
HETATM   19  H   UNL     1      42.231 -10.734   6.371  1.00  0.00     0.190 HD
HETATM   20  O   UNL     1      45.360 -10.602   7.031  1.00  0.00    -0.265 OA
BRANCH  18  21
HETATM   21  N   UNL     1      43.692 -11.478   5.103  1.00  0.00    -0.267 N 
HETATM   22  C   UNL     1      42.760 -11.935   4.195  1.00  0.00     0.240 C 
HETATM   23  O   UNL     1      41.548 -11.818   4.370  1.00  0.00    -0.272 OA
HETATM   24  H   UNL     1      44.688 -11.414   4.897  1.00  0.00     0.190 HD
BRANCH  22  25
HETATM   25  C   UNL     1      43.353 -12.657   3.001  1.00  0.00     0.143 C 
BRANCH  25  26
HETATM   26  C   UNL     1      43.165 -14.153   3.043  1.00  0.00    -0.049 A 
HETATM   27  C   UNL     1      42.851 -14.801   4.246  1.00  0.00     0.007 A 
HETATM   28  C   UNL     1      42.656 -16.183   4.273  1.00  0.00     0.001 A 
HETATM   29  C   UNL     1      42.772 -16.930   3.102  1.00  0.00     0.000 A 
HETATM   30  C   UNL     1      43.084 -16.295   1.901  1.00  0.00     0.001 A 
HETATM   31  C   UNL     1      43.280 -14.914   1.870  1.00  0.00     0.007 A 
ENDBRANCH  25  26
ENDBRANCH  22  25
ENDBRANCH  18  21
ENDBRANCH  10  17
BRANCH   1  32
HETATM   32  O   UNL     1      41.940  -6.937  16.098  1.00  0.00    -0.351 OA
BRANCH  32  33
HETATM   33  C   UNL     1      40.845  -6.619  16.957  1.00  0.00     0.171 C 
HETATM   34  C   UNL     1      40.580  -7.822  17.843  1.00  0.00     0.034 C 
ENDBRANCH  32  33
ENDBRANCH   1  32
TORSDOF 6
ENDMDL
MODEL 9
REMARK VINA RESULT:      -8.3      3.020      4.230
REMARK  6 active torsions:
REMARK  status: ('A' for Active; 'I' for Inactive)
REMARK    1  A    between atoms: C_2  and  O_3 
REMARK    2  A    between atoms: O_3  and  C_4 
REMARK    3  A    between atoms: C_13  and  C_14 
REMARK       I    between atoms: C_14  and  N_15 
REMARK    4  A    between atoms: N_15  and  N_16 
REMARK       I    between atoms: N_16  and  C_17 
REMARK    5  A    between atoms: C_17  and  C_18 
REMARK    6  A    between atoms: C_18  and  C_19 
ROOT
HETATM    1  C   UNL     1      40.173 -14.461   0.953  1.00  0.00     0.069 A 
HETATM    2  C   UNL     1      40.517 -13.311   1.663  1.00  0.00     0.050 A 
HETATM    3  C   UNL     1      41.239 -13.391   2.868  1.00  0.00    -0.004 A 
HETATM    4  C   UNL     1      41.626 -14.643   3.381  1.00  0.00     0.068 A 
HETATM    5  N   UNL     1      42.322 -14.802   4.512  1.00  0.00    -0.240 NA
HETATM    6  C   UNL     1      42.649 -13.667   5.160  1.00  0.00     0.111 A 
HETATM    7  C   UNL     1      42.326 -12.373   4.779  1.00  0.00     0.028 A 
HETATM    8  C   UNL     1      41.593 -12.239   3.581  1.00  0.00     0.030 A 
HETATM    9  S   UNL     1      43.549 -13.722   6.602  1.00  0.00    -0.062 SA
HETATM   10  C   UNL     1      43.524 -12.014   6.775  1.00  0.00     0.103 A 
HETATM   11  C   UNL     1      42.835 -11.426   5.728  1.00  0.00     0.062 A 
HETATM   12  N   UNL     1      42.659 -10.091   5.610  1.00  0.00    -0.397 N 
HETATM   13  C   UNL     1      41.261 -15.774   2.666  1.00  0.00     0.035 A 
HETATM   14  C   UNL     1      40.542 -15.700   1.464  1.00  0.00     0.039 A 
HETATM   15  H   UNL     1      42.943  -9.460   6.365  1.00  0.00     0.156 HD
HETATM   16  H   UNL     1      42.025  -9.668   4.940  1.00  0.00     0.156 HD
ENDROOT
BRANCH  10  17
HETATM   17  C   UNL     1      44.149 -11.355   7.914  1.00  0.00     0.279 C 
HETATM   18  N   UNL     1      43.295 -10.845   8.878  1.00  0.00    -0.263 N 
HETATM   19  H   UNL     1      42.280 -10.889   8.797  1.00  0.00     0.190 HD
HETATM   20  O   UNL     1      45.372 -11.239   8.047  1.00  0.00    -0.265 OA
BRANCH  18  21
HETATM   21  N   UNL     1      43.823 -10.102   9.937  1.00  0.00    -0.267 N 
HETATM   22  C   UNL     1      42.960  -9.638  10.909  1.00  0.00     0.240 C 
HETATM   23  O   UNL     1      41.744  -9.819  10.860  1.00  0.00    -0.272 OA
HETATM   24  H   UNL     1      44.836 -10.109  10.047  1.00  0.00     0.190 HD
BRANCH  22  25
HETATM   25  C   UNL     1      43.628  -8.825  12.000  1.00  0.00     0.143 C 
BRANCH  25  26
HETATM   26  C   UNL     1      42.658  -8.223  12.986  1.00  0.00    -0.049 A 
HETATM   27  C   UNL     1      42.110  -6.951  12.765  1.00  0.00     0.007 A 
HETATM   28  C   UNL     1      41.197  -6.409  13.670  1.00  0.00     0.001 A 
HETATM   29  C   UNL     1      40.820  -7.130  14.802  1.00  0.00     0.000 A 
HETATM   30  C   UNL     1      41.359  -8.395  15.031  1.00  0.00     0.001 A 
HETATM   31  C   UNL     1      42.274  -8.940  14.128  1.00  0.00     0.007 A 
ENDBRANCH  25  26
ENDBRANCH  22  25
ENDBRANCH  18  21
ENDBRANCH  10  17
BRANCH   1  32
HETATM   32  O   UNL     1      39.486 -14.236  -0.205  1.00  0.00    -0.351 OA
BRANCH  32  33
HETATM   33  C   UNL     1      40.167 -13.526  -1.239  1.00  0.00     0.171 C 
HETATM   34  C   UNL     1      39.848 -14.201  -2.560  1.00  0.00     0.034 C 
ENDBRANCH  32  33
ENDBRANCH   1  32
TORSDOF 6
ENDMDL
MODEL 10
REMARK VINA RESULT:      -8.2      7.047     10.246
REMARK  6 active torsions:
REMARK  status: ('A' for Active; 'I' for Inactive)
REMARK    1  A    between atoms: C_2  and  O_3 
REMARK    2  A    between atoms: O_3  and  C_4 
REMARK    3  A    between atoms: C_13  and  C_14 
REMARK       I    between atoms: C_14  and  N_15 
REMARK    4  A    between atoms: N_15  and  N_16 
REMARK       I    between atoms: N_16  and  C_17 
REMARK    5  A    between atoms: C_17  and  C_18 
REMARK    6  A    between atoms: C_18  and  C_19 
ROOT
HETATM    1  C   UNL     1      43.557 -18.031   3.873  1.00  0.00     0.069 A 
HETATM    2  C   UNL     1      43.192 -17.400   2.684  1.00  0.00     0.050 A 
HETATM    3  C   UNL     1      42.366 -16.262   2.692  1.00  0.00    -0.004 A 
HETATM    4  C   UNL     1      41.887 -15.740   3.909  1.00  0.00     0.068 A 
HETATM    5  N   UNL     1      41.108 -14.658   4.000  1.00  0.00    -0.240 NA
HETATM    6  C   UNL     1      40.791 -14.067   2.832  1.00  0.00     0.111 A 
HETATM    7  C   UNL     1      41.179 -14.476   1.564  1.00  0.00     0.028 A 
HETATM    8  C   UNL     1      42.002 -15.620   1.501  1.00  0.00     0.030 A 
HETATM    9  S   UNL     1      39.820 -12.670   2.803  1.00  0.00    -0.062 SA
HETATM   10  C   UNL     1      39.873 -12.573   1.090  1.00  0.00     0.103 A 
HETATM   11  C   UNL     1      40.634 -13.604   0.564  1.00  0.00     0.062 A 
HETATM   12  N   UNL     1      40.845 -13.772  -0.761  1.00  0.00    -0.397 N 
HETATM   13  C   UNL     1      42.251 -16.393   5.077  1.00  0.00     0.035 A 
HETATM   14  C   UNL     1      43.076 -17.527   5.075  1.00  0.00     0.039 A 
HETATM   15  H   UNL     1      40.349 -13.195  -1.444  1.00  0.00     0.156 HD
HETATM   16  H   UNL     1      41.262 -14.608  -1.157  1.00  0.00     0.156 HD
ENDROOT
BRANCH  10  17
HETATM   17  C   UNL     1      39.163 -11.529   0.364  1.00  0.00     0.279 C 
HETATM   18  N   UNL     1      37.974 -11.897  -0.244  1.00  0.00    -0.263 N 
HETATM   19  H   UNL     1      37.615 -12.850  -0.224  1.00  0.00     0.190 HD
HETATM   20  O   UNL     1      39.570 -10.366   0.274  1.00  0.00    -0.265 OA
BRANCH  18  21
HETATM   21  N   UNL     1      37.302 -10.974  -1.050  1.00  0.00    -0.267 N 
HETATM   22  C   UNL     1      37.156 -11.257  -2.392  1.00  0.00     0.240 C 
HETATM   23  O   UNL     1      37.624 -12.269  -2.913  1.00  0.00    -0.272 OA
HETATM   24  H   UNL     1      36.783 -10.237  -0.575  1.00  0.00     0.190 HD
BRANCH  22  25
HETATM   25  C   UNL     1      36.434 -10.184  -3.182  1.00  0.00     0.143 C 
BRANCH  25  26
HETATM   26  C   UNL     1      34.938 -10.192  -2.989  1.00  0.00    -0.049 A 
HETATM   27  C   UNL     1      34.129 -11.083  -3.708  1.00  0.00     0.007 A 
HETATM   28  C   UNL     1      32.748 -11.101  -3.509  1.00  0.00     0.001 A 
HETATM   29  C   UNL     1      32.162 -10.232  -2.590  1.00  0.00     0.000 A 
HETATM   30  C   UNL     1      32.957  -9.342  -1.870  1.00  0.00     0.001 A 
HETATM   31  C   UNL     1      34.339  -9.321  -2.068  1.00  0.00     0.007 A 
ENDBRANCH  25  26
ENDBRANCH  22  25
ENDBRANCH  18  21
ENDBRANCH  10  17
BRANCH   1  32
HETATM   32  O   UNL     1      44.374 -19.115   3.720  1.00  0.00    -0.351 OA
BRANCH  32  33
HETATM   33  C   UNL     1      43.753 -20.355   3.382  1.00  0.00     0.171 C 
HETATM   34  C   UNL     1      43.919 -20.569   1.888  1.00  0.00     0.034 C 
ENDBRANCH  32  33
ENDBRANCH   1  32
TORSDOF 6
ENDMDL
