MODEL 1
REMARK VINA RESULT:      -9.0      0.000      0.000
REMARK  5 active torsions:
REMARK  status: ('A' for Active; 'I' for Inactive)
REMARK    1  A    between atoms: C_2  and  C_3 
REMARK    2  A    between atoms: C_6  and  C_7 
REMARK    3  A    between atoms: C_7  and  C_8 
REMARK       I    between atoms: C_8  and  N_9 
REMARK    4  A    between atoms: N_9  and  C_10 
REMARK    5  A    between atoms: C_17  and  C_18 
REMARK       I    between atoms: C_18  and  N_19 
ROOT
HETATM    1  C   UNL     1      40.715 -13.652   0.342  1.00  0.00     0.035 A 
HETATM    2  C   UNL     1      40.099 -14.196  -0.794  1.00  0.00     0.046 A 
HETATM    3  C   UNL     1      39.039 -13.500  -1.414  1.00  0.00     0.030 A 
HETATM    4  C   UNL     1      38.652 -12.270  -0.896  1.00  0.00     0.063 A 
HETATM    5  N   UNL     1      37.620 -11.853  -1.689  1.00  0.00    -0.277 N 
HETATM    6  H   UNL     1      37.088 -10.993  -1.604  1.00  0.00     0.189 HD
HETATM    7  N   UNL     1      37.286 -12.710  -2.668  1.00  0.00    -0.168 NA
HETATM    8  C   UNL     1      38.155 -13.735  -2.510  1.00  0.00     0.156 A 
HETATM    9  C   UNL     1      39.259 -11.687   0.218  1.00  0.00     0.034 A 
HETATM   10  C   UNL     1      40.291 -12.410   0.831  1.00  0.00     0.032 A 
ENDROOT
BRANCH   1  11
HETATM   11  N   UNL     1      41.695 -14.341   1.089  1.00  0.00    -0.327 N 
HETATM   12  C   UNL     1      41.546 -14.871   2.360  1.00  0.00     0.226 C 
HETATM   13  O   UNL     1      40.482 -15.149   2.904  1.00  0.00    -0.273 OA
HETATM   14  H   UNL     1      42.600 -14.460   0.651  1.00  0.00     0.169 HD
BRANCH  12  15
HETATM   15  C   UNL     1      42.872 -15.041   3.085  1.00  0.00     0.141 C 
BRANCH  15  16
HETATM   16  C   UNL     1      43.317 -16.463   3.306  1.00  0.00    -0.049 A 
HETATM   17  C   UNL     1      43.755 -16.872   4.573  1.00  0.00     0.008 A 
HETATM   18  C   UNL     1      44.047 -18.214   4.829  1.00  0.00     0.007 A 
HETATM   19  C   UNL     1      43.891 -19.181   3.829  1.00  0.00    -0.059 A 
HETATM   20  C   UNL     1      43.480 -18.770   2.555  1.00  0.00     0.007 A 
HETATM   21  C   UNL     1      43.193 -17.426   2.297  1.00  0.00     0.008 A 
BRANCH  19  22
HETATM   22  C   UNL     1      44.148 -20.639   4.120  1.00  0.00     0.034 C 
HETATM   23  C   UNL     1      43.983 -20.979   5.597  1.00  0.00     0.010 C 
ENDBRANCH  19  22
ENDBRANCH  15  16
ENDBRANCH  12  15
ENDBRANCH   1  11
BRANCH   8  24
HETATM   24  C   UNL     1      38.109 -14.915  -3.386  1.00  0.00     0.270 C 
HETATM   25  N   UNL     1      38.166 -16.108  -2.719  1.00  0.00    -0.365 N 
HETATM   26  H   UNL     1      38.249 -16.097  -1.709  1.00  0.00     0.159 HD
HETATM   27  H   UNL     1      38.160 -16.970  -3.239  1.00  0.00     0.159 HD
HETATM   28  O   UNL     1      38.040 -14.876  -4.609  1.00  0.00    -0.266 OA
ENDBRANCH   8  24
TORSDOF 5
ENDMDL
MODEL 2
REMARK VINA RESULT:      -8.4      6.407      9.126
REMARK  5 active torsions:
REMARK  status: ('A' for Active; 'I' for Inactive)
REMARK    1  A    between atoms: C_2  and  C_3 
REMARK    2  A    between atoms: C_6  and  C_7 
REMARK    3  A    between atoms: C_7  and  C_8 
REMARK       I    between atoms: C_8  and  N_9 
REMARK    4  A    between atoms: N_9  and  C_10 
REMARK    5  A    between atoms: C_17  and  C_18 
REMARK       I    between atoms: C_18  and  N_19 
ROOT
HETATM    1  C   UNL     1      43.557 -12.212   6.852  1.00  0.00     0.035 A 
HETATM    2  C   UNL     1      43.328 -11.039   7.585  1.00  0.00     0.046 A 
HETATM    3  C   UNL     1      44.384 -10.123   7.783  1.00  0.00     0.030 A 
HETATM    4  C   UNL     1      45.623 -10.396   7.217  1.00  0.00     0.063 A 
HETATM    5  N   UNL     1      46.425  -9.351   7.582  1.00  0.00    -0.277 N 
HETATM    6  H   UNL     1      47.402  -9.216   7.347  1.00  0.00     0.189 HD
HETATM    7  N   UNL     1      45.825  -8.429   8.352  1.00  0.00    -0.168 NA
HETATM    8  C   UNL     1      44.561  -8.893   8.486  1.00  0.00     0.156 A 
HETATM    9  C   UNL     1      45.880 -11.541   6.461  1.00  0.00     0.034 A 
HETATM   10  C   UNL     1      44.822 -12.448   6.300  1.00  0.00     0.032 A 
ENDROOT
BRANCH   1  11
HETATM   11  N   UNL     1      42.591 -13.233   6.714  1.00  0.00    -0.327 N 
HETATM   12  C   UNL     1      42.655 -14.511   7.243  1.00  0.00     0.226 C 
HETATM   13  O   UNL     1      43.354 -14.864   8.189  1.00  0.00    -0.273 OA
HETATM   14  H   UNL     1      41.767 -13.007   6.172  1.00  0.00     0.169 HD
BRANCH  12  15
HETATM   15  C   UNL     1      41.786 -15.504   6.489  1.00  0.00     0.141 C 
BRANCH  15  16
HETATM   16  C   UNL     1      42.502 -16.365   5.482  1.00  0.00    -0.049 A 
HETATM   17  C   UNL     1      43.320 -17.417   5.913  1.00  0.00     0.008 A 
HETATM   18  C   UNL     1      43.886 -18.305   4.994  1.00  0.00     0.007 A 
HETATM   19  C   UNL     1      43.633 -18.170   3.624  1.00  0.00    -0.059 A 
HETATM   20  C   UNL     1      42.838 -17.103   3.189  1.00  0.00     0.007 A 
HETATM   21  C   UNL     1      42.277 -16.211   4.108  1.00  0.00     0.008 A 
BRANCH  19  22
HETATM   22  C   UNL     1      44.195 -19.163   2.636  1.00  0.00     0.034 C 
HETATM   23  C   UNL     1      43.133 -20.113   2.094  1.00  0.00     0.010 C 
ENDBRANCH  19  22
ENDBRANCH  15  16
ENDBRANCH  12  15
ENDBRANCH   1  11
BRANCH   8  24
HETATM   24  C   UNL     1      43.566  -8.172   9.293  1.00  0.00     0.270 C 
HETATM   25  N   UNL     1      43.546  -6.820   9.077  1.00  0.00    -0.365 N 
HETATM   26  H   UNL     1      44.202  -6.424   8.415  1.00  0.00     0.159 HD
HETATM   27  H   UNL     1      42.909  -6.242   9.601  1.00  0.00     0.159 HD
HETATM   28  O   UNL     1      42.813  -8.694  10.108  1.00  0.00    -0.266 OA
ENDBRANCH   8  24
TORSDOF 5
ENDMDL
MODEL 3
REMARK VINA RESULT:      -8.4      6.193      9.246
REMARK  5 active torsions:
REMARK  status: ('A' for Active; 'I' for Inactive)
REMARK    1  A    between atoms: C_2  and  C_3 
REMARK    2  A    between atoms: C_6  and  C_7 
REMARK    3  A    between atoms: C_7  and  C_8 
REMARK       I    between atoms: C_8  and  N_9 
REMARK    4  A    between atoms: N_9  and  C_10 
REMARK    5  A    between atoms: C_17  and  C_18 
REMARK       I    between atoms: C_18  and  N_19 
ROOT
HETATM    1  C   UNL     1      44.135 -11.611   6.406  1.00  0.00     0.035 A 
HETATM    2  C   UNL     1      43.358 -11.015   7.410  1.00  0.00     0.046 A 
HETATM    3  C   UNL     1      43.992 -10.320   8.463  1.00  0.00     0.030 A 
HETATM    4  C   UNL     1      45.378 -10.219   8.460  1.00  0.00     0.063 A 
HETATM    5  N   UNL     1      45.691  -9.510   9.585  1.00  0.00    -0.277 N 
HETATM    6  H   UNL     1      46.616  -9.246   9.908  1.00  0.00     0.189 HD
HETATM    7  N   UNL     1      44.634  -9.155  10.334  1.00  0.00    -0.168 NA
HETATM    8  C   UNL     1      43.575  -9.650   9.652  1.00  0.00     0.156 A 
HETATM    9  C   UNL     1      46.181 -10.778   7.464  1.00  0.00     0.034 A 
HETATM   10  C   UNL     1      45.529 -11.485   6.444  1.00  0.00     0.032 A 
ENDROOT
BRANCH   1  11
HETATM   11  N   UNL     1      43.586 -12.424   5.391  1.00  0.00    -0.327 N 
HETATM   12  C   UNL     1      43.487 -12.115   4.045  1.00  0.00     0.226 C 
HETATM   13  O   UNL     1      44.152 -11.274   3.449  1.00  0.00    -0.273 OA
HETATM   14  H   UNL     1      43.228 -13.327   5.677  1.00  0.00     0.169 HD
BRANCH  12  15
HETATM   15  C   UNL     1      42.396 -12.905   3.340  1.00  0.00     0.141 C 
BRANCH  15  16
HETATM   16  C   UNL     1      42.699 -14.360   3.094  1.00  0.00    -0.049 A 
HETATM   17  C   UNL     1      42.318 -15.325   4.037  1.00  0.00     0.008 A 
HETATM   18  C   UNL     1      42.474 -16.687   3.767  1.00  0.00     0.007 A 
HETATM   19  C   UNL     1      42.998 -17.116   2.542  1.00  0.00    -0.059 A 
HETATM   20  C   UNL     1      43.404 -16.153   1.611  1.00  0.00     0.007 A 
HETATM   21  C   UNL     1      43.254 -14.790   1.883  1.00  0.00     0.008 A 
BRANCH  19  22
HETATM   22  C   UNL     1      43.110 -18.587   2.225  1.00  0.00     0.034 C 
HETATM   23  C   UNL     1      43.936 -19.347   3.256  1.00  0.00     0.010 C 
ENDBRANCH  19  22
ENDBRANCH  15  16
ENDBRANCH  12  15
ENDBRANCH   1  11
BRANCH   8  24
HETATM   24  C   UNL     1      42.203  -9.494  10.158  1.00  0.00     0.270 C 
HETATM   25  N   UNL     1      41.952 -10.185  11.313  1.00  0.00    -0.365 N 
HETATM   26  H   UNL     1      42.694 -10.745  11.715  1.00  0.00     0.159 HD
HETATM   27  H   UNL     1      41.032 -10.153  11.722  1.00  0.00     0.159 HD
HETATM   28  O   UNL     1      41.329  -8.827   9.616  1.00  0.00    -0.266 OA
ENDBRANCH   8  24
TORSDOF 5
ENDMDL
MODEL 4
REMARK VINA RESULT:      -8.4      2.888      4.369
REMARK  5 active torsions:
REMARK  status: ('A' for Active; 'I' for Inactive)
REMARK    1  A    between atoms: C_2  and  C_3 
REMARK    2  A    between atoms: C_6  and  C_7 
REMARK    3  A    between atoms: C_7  and  C_8 
REMARK       I    between atoms: C_8  and  N_9 
REMARK    4  A    between atoms: N_9  and  C_10 
REMARK    5  A    between atoms: C_17  and  C_18 
REMARK       I    between atoms: C_18  and  N_19 
ROOT
HETATM    1  C   UNL     1      41.072 -14.363   5.607  1.00  0.00     0.035 A 
HETATM    2  C   UNL     1      40.978 -14.633   4.233  1.00  0.00     0.046 A 
HETATM    3  C   UNL     1      40.222 -13.777   3.404  1.00  0.00     0.030 A 
HETATM    4  C   UNL     1      39.611 -12.665   3.969  1.00  0.00     0.063 A 
HETATM    5  N   UNL     1      38.960 -12.047   2.938  1.00  0.00    -0.277 N 
HETATM    6  H   UNL     1      38.404 -11.200   2.982  1.00  0.00     0.189 HD
HETATM    7  N   UNL     1      39.077 -12.668   1.753  1.00  0.00    -0.168 NA
HETATM    8  C   UNL     1      39.854 -13.741   2.025  1.00  0.00     0.156 A 
HETATM    9  C   UNL     1      39.703 -12.351   5.327  1.00  0.00     0.034 A 
HETATM   10  C   UNL     1      40.438 -13.231   6.134  1.00  0.00     0.032 A 
ENDROOT
BRANCH   1  11
HETATM   11  N   UNL     1      41.703 -15.234   6.520  1.00  0.00    -0.327 N 
HETATM   12  C   UNL     1      43.050 -15.266   6.839  1.00  0.00     0.226 C 
HETATM   13  O   UNL     1      43.851 -14.349   6.673  1.00  0.00    -0.273 OA
HETATM   14  H   UNL     1      41.111 -15.907   6.990  1.00  0.00     0.169 HD
BRANCH  12  15
HETATM   15  C   UNL     1      43.493 -16.610   7.392  1.00  0.00     0.141 C 
BRANCH  15  16
HETATM   16  C   UNL     1      43.729 -17.691   6.369  1.00  0.00    -0.049 A 
HETATM   17  C   UNL     1      43.475 -19.031   6.694  1.00  0.00     0.008 A 
HETATM   18  C   UNL     1      43.563 -20.030   5.720  1.00  0.00     0.007 A 
HETATM   19  C   UNL     1      43.890 -19.710   4.397  1.00  0.00    -0.059 A 
HETATM   20  C   UNL     1      44.170 -18.376   4.078  1.00  0.00     0.007 A 
HETATM   21  C   UNL     1      44.088 -17.377   5.053  1.00  0.00     0.008 A 
BRANCH  19  22
HETATM   22  C   UNL     1      43.926 -20.779   3.333  1.00  0.00     0.034 C 
HETATM   23  C   UNL     1      43.426 -20.278   1.983  1.00  0.00     0.010 C 
ENDBRANCH  19  22
ENDBRANCH  15  16
ENDBRANCH  12  15
ENDBRANCH   1  11
BRANCH   8  24
HETATM   24  C   UNL     1      40.207 -14.712   0.979  1.00  0.00     0.270 C 
HETATM   25  N   UNL     1      41.046 -14.216   0.017  1.00  0.00    -0.365 N 
HETATM   26  H   UNL     1      41.341 -13.249   0.082  1.00  0.00     0.159 HD
HETATM   27  H   UNL     1      41.325 -14.804  -0.751  1.00  0.00     0.159 HD
HETATM   28  O   UNL     1      39.797 -15.866   0.927  1.00  0.00    -0.266 OA
ENDBRANCH   8  24
TORSDOF 5
ENDMDL
MODEL 5
REMARK VINA RESULT:      -8.4      1.781      2.346
REMARK  5 active torsions:
REMARK  status: ('A' for Active; 'I' for Inactive)
REMARK    1  A    between atoms: C_2  and  C_3 
REMARK    2  A    between atoms: C_6  and  C_7 
REMARK    3  A    between atoms: C_7  and  C_8 
REMARK       I    between atoms: C_8  and  N_9 
REMARK    4  A    between atoms: N_9  and  C_10 
REMARK    5  A    between atoms: C_17  and  C_18 
REMARK       I    between atoms: C_18  and  N_19 
ROOT
HETATM    1  C   UNL     1      39.866 -12.119   1.507  1.00  0.00     0.035 A 
HETATM    2  C   UNL     1      39.903 -12.850   0.310  1.00  0.00     0.046 A 
HETATM    3  C   UNL     1      38.911 -12.633  -0.671  1.00  0.00     0.030 A 
HETATM    4  C   UNL     1      37.934 -11.674  -0.435  1.00  0.00     0.063 A 
HETATM    5  N   UNL     1      37.130 -11.699  -1.539  1.00  0.00    -0.277 N 
HETATM    6  H   UNL     1      36.309 -11.129  -1.714  1.00  0.00     0.189 HD
HETATM    7  N   UNL     1      37.483 -12.603  -2.468  1.00  0.00    -0.168 NA
HETATM    8  C   UNL     1      38.584 -13.190  -1.943  1.00  0.00     0.156 A 
HETATM    9  C   UNL     1      37.881 -10.911   0.733  1.00  0.00     0.034 A 
HETATM   10  C   UNL     1      38.862 -11.163   1.702  1.00  0.00     0.032 A 
ENDROOT
BRANCH   1  11
HETATM   11  N   UNL     1      40.745 -12.363   2.584  1.00  0.00    -0.327 N 
HETATM   12  C   UNL     1      42.059 -11.939   2.693  1.00  0.00     0.226 C 
HETATM   13  O   UNL     1      42.569 -11.009   2.075  1.00  0.00    -0.273 OA
HETATM   14  H   UNL     1      40.378 -12.905   3.356  1.00  0.00     0.169 HD
BRANCH  12  15
HETATM   15  C   UNL     1      42.875 -12.793   3.650  1.00  0.00     0.141 C 
BRANCH  15  16
HETATM   16  C   UNL     1      43.005 -14.247   3.279  1.00  0.00    -0.049 A 
HETATM   17  C   UNL     1      42.697 -15.241   4.218  1.00  0.00     0.008 A 
HETATM   18  C   UNL     1      42.686 -16.590   3.853  1.00  0.00     0.007 A 
HETATM   19  C   UNL     1      42.968 -16.974   2.536  1.00  0.00    -0.059 A 
HETATM   20  C   UNL     1      43.304 -15.984   1.605  1.00  0.00     0.007 A 
HETATM   21  C   UNL     1      43.320 -14.635   1.971  1.00  0.00     0.008 A 
BRANCH  19  22
HETATM   22  C   UNL     1      42.899 -18.424   2.126  1.00  0.00     0.034 C 
HETATM   23  C   UNL     1      43.894 -19.296   2.882  1.00  0.00     0.010 C 
ENDBRANCH  19  22
ENDBRANCH  15  16
ENDBRANCH  12  15
ENDBRANCH   1  11
BRANCH   8  24
HETATM   24  C   UNL     1      39.279 -14.275  -2.652  1.00  0.00     0.270 C 
HETATM   25  N   UNL     1      38.550 -15.429  -2.760  1.00  0.00    -0.365 N 
HETATM   26  H   UNL     1      37.626 -15.460  -2.347  1.00  0.00     0.159 HD
HETATM   27  H   UNL     1      38.954 -16.232  -3.213  1.00  0.00     0.159 HD
HETATM   28  O   UNL     1      40.414 -14.198  -3.108  1.00  0.00    -0.266 OA
ENDBRANCH   8  24
TORSDOF 5
ENDMDL
MODEL 6
REMARK VINA RESULT:      -8.2      1.868      3.038
REMARK  5 active torsions:
REMARK  status: ('A' for Active; 'I' for Inactive)
REMARK    1  A    between atoms: C_2  and  C_3 
REMARK    2  A    between atoms: C_6  and  C_7 
REMARK    3  A    between atoms: C_7  and  C_8 
REMARK       I    between atoms: C_8  and  N_9 
REMARK    4  A    between atoms: N_9  and  C_10 
REMARK    5  A    between atoms: C_17  and  C_18 
REMARK       I    between atoms: C_18  and  N_19 
ROOT
HETATM    1  C   UNL     1      39.794 -14.113  -0.881  1.00  0.00     0.035 A 
HETATM    2  C   UNL     1      39.182 -12.870  -0.662  1.00  0.00     0.046 A 
HETATM    3  C   UNL     1      38.155 -12.437  -1.528  1.00  0.00     0.030 A 
HETATM    4  C   UNL     1      37.755 -13.271  -2.564  1.00  0.00     0.063 A 
HETATM    5  N   UNL     1      36.769 -12.588  -3.219  1.00  0.00    -0.277 N 
HETATM    6  H   UNL     1      36.245 -12.893  -4.032  1.00  0.00     0.189 HD
HETATM    7  N   UNL     1      36.503 -11.372  -2.714  1.00  0.00    -0.168 NA
HETATM    8  C   UNL     1      37.354 -11.263  -1.667  1.00  0.00     0.156 A 
HETATM    9  C   UNL     1      38.324 -14.525  -2.796  1.00  0.00     0.034 A 
HETATM   10  C   UNL     1      39.359 -14.922  -1.938  1.00  0.00     0.032 A 
ENDROOT
BRANCH   1  11
HETATM   11  N   UNL     1      40.907 -14.563  -0.138  1.00  0.00    -0.327 N 
HETATM   12  C   UNL     1      40.884 -15.143   1.119  1.00  0.00     0.226 C 
HETATM   13  O   UNL     1      39.915 -15.682   1.645  1.00  0.00    -0.273 OA
HETATM   14  H   UNL     1      41.816 -14.451  -0.569  1.00  0.00     0.169 HD
BRANCH  12  15
HETATM   15  C   UNL     1      42.208 -15.005   1.854  1.00  0.00     0.141 C 
BRANCH  15  16
HETATM   16  C   UNL     1      42.641 -16.209   2.649  1.00  0.00    -0.049 A 
HETATM   17  C   UNL     1      43.022 -17.385   1.989  1.00  0.00     0.008 A 
HETATM   18  C   UNL     1      43.550 -18.465   2.702  1.00  0.00     0.007 A 
HETATM   19  C   UNL     1      43.724 -18.387   4.089  1.00  0.00    -0.059 A 
HETATM   20  C   UNL     1      43.318 -17.223   4.753  1.00  0.00     0.007 A 
HETATM   21  C   UNL     1      42.785 -16.145   4.041  1.00  0.00     0.008 A 
BRANCH  19  22
HETATM   22  C   UNL     1      44.349 -19.529   4.852  1.00  0.00     0.034 C 
HETATM   23  C   UNL     1      43.915 -20.892   4.327  1.00  0.00     0.010 C 
ENDBRANCH  19  22
ENDBRANCH  15  16
ENDBRANCH  12  15
ENDBRANCH   1  11
BRANCH   8  24
HETATM   24  C   UNL     1      37.400 -10.045  -0.845  1.00  0.00     0.270 C 
HETATM   25  N   UNL     1      36.389  -9.954   0.074  1.00  0.00    -0.365 N 
HETATM   26  H   UNL     1      35.699 -10.694   0.112  1.00  0.00     0.159 HD
HETATM   27  H   UNL     1      36.329  -9.143   0.668  1.00  0.00     0.159 HD
HETATM   28  O   UNL     1      38.241  -9.160  -0.951  1.00  0.00    -0.266 OA
ENDBRANCH   8  24
TORSDOF 5
ENDMDL
MODEL 7
REMARK VINA RESULT:      -8.0      6.636      9.185
REMARK  5 active torsions:
REMARK  status: ('A' for Active; 'I' for Inactive)
REMARK    1  A    between atoms: C_2  and  C_3 
REMARK    2  A    between atoms: C_6  and  C_7 
REMARK    3  A    between atoms: C_7  and  C_8 
REMARK       I    between atoms: C_8  and  N_9 
REMARK    4  A    between atoms: N_9  and  C_10 
REMARK    5  A    between atoms: C_17  and  C_18 
REMARK       I    between atoms: C_18  and  N_19 
ROOT
HETATM    1  C   UNL     1      43.474 -13.203   6.527  1.00  0.00     0.035 A 
HETATM    2  C   UNL     1      42.404 -12.968   5.650  1.00  0.00     0.046 A 
HETATM    3  C   UNL     1      41.874 -14.037   4.895  1.00  0.00     0.030 A 
HETATM    4  C   UNL     1      42.411 -15.307   5.062  1.00  0.00     0.063 A 
HETATM    5  N   UNL     1      41.710 -16.111   4.209  1.00  0.00    -0.277 N 
HETATM    6  H   UNL     1      41.833 -17.108   4.063  1.00  0.00     0.189 HD
HETATM    7  N   UNL     1      40.775 -15.475   3.484  1.00  0.00    -0.168 NA
HETATM    8  C   UNL     1      40.866 -14.190   3.896  1.00  0.00     0.156 A 
HETATM    9  C   UNL     1      43.459 -15.581   5.944  1.00  0.00     0.034 A 
HETATM   10  C   UNL     1      43.984 -14.499   6.664  1.00  0.00     0.032 A 
ENDROOT
BRANCH   1  11
HETATM   11  N   UNL     1      44.137 -12.169   7.223  1.00  0.00    -0.327 N 
HETATM   12  C   UNL     1      45.146 -11.356   6.734  1.00  0.00     0.226 C 
HETATM   13  O   UNL     1      45.391 -11.146   5.550  1.00  0.00    -0.273 OA
HETATM   14  H   UNL     1      43.845 -12.005   8.178  1.00  0.00     0.169 HD
BRANCH  12  15
HETATM   15  C   UNL     1      46.003 -10.755   7.837  1.00  0.00     0.141 C 
BRANCH  15  16
HETATM   16  C   UNL     1      45.273  -9.894   8.835  1.00  0.00    -0.049 A 
HETATM   17  C   UNL     1      44.637  -8.718   8.414  1.00  0.00     0.008 A 
HETATM   18  C   UNL     1      43.848  -7.978   9.298  1.00  0.00     0.007 A 
HETATM   19  C   UNL     1      43.664  -8.405  10.619  1.00  0.00    -0.059 A 
HETATM   20  C   UNL     1      44.320  -9.565  11.047  1.00  0.00     0.007 A 
HETATM   21  C   UNL     1      45.115 -10.303  10.165  1.00  0.00     0.008 A 
BRANCH  19  22
HETATM   22  C   UNL     1      42.764  -7.640  11.557  1.00  0.00     0.034 C 
HETATM   23  C   UNL     1      43.122  -7.860  13.022  1.00  0.00     0.010 C 
ENDBRANCH  19  22
ENDBRANCH  15  16
ENDBRANCH  12  15
ENDBRANCH   1  11
BRANCH   8  24
HETATM   24  C   UNL     1      40.011 -13.142   3.318  1.00  0.00     0.270 C 
HETATM   25  N   UNL     1      38.811 -13.599   2.843  1.00  0.00    -0.365 N 
HETATM   26  H   UNL     1      38.610 -14.590   2.906  1.00  0.00     0.159 HD
HETATM   27  H   UNL     1      38.169 -12.955   2.411  1.00  0.00     0.159 HD
HETATM   28  O   UNL     1      40.315 -11.958   3.236  1.00  0.00    -0.266 OA
ENDBRANCH   8  24
TORSDOF 5
ENDMDL
MODEL 8
REMARK VINA RESULT:      -7.9      2.056      2.890
REMARK  5 active torsions:
REMARK  status: ('A' for Active; 'I' for Inactive)
REMARK    1  A    between atoms: C_2  and  C_3 
REMARK    2  A    between atoms: C_6  and  C_7 
REMARK    3  A    between atoms: C_7  and  C_8 
REMARK       I    between atoms: C_8  and  N_9 
REMARK    4  A    between atoms: N_9  and  C_10 
REMARK    5  A    between atoms: C_17  and  C_18 
REMARK       I    between atoms: C_18  and  N_19 
ROOT
HETATM    1  C   UNL     1      40.624 -13.864  -0.152  1.00  0.00     0.035 A 
HETATM    2  C   UNL     1      40.646 -12.496  -0.462  1.00  0.00     0.046 A 
HETATM    3  C   UNL     1      39.784 -11.992  -1.460  1.00  0.00     0.030 A 
HETATM    4  C   UNL     1      38.910 -12.866  -2.093  1.00  0.00     0.063 A 
HETATM    5  N   UNL     1      38.224 -12.102  -2.995  1.00  0.00    -0.277 N 
HETATM    6  H   UNL     1      37.501 -12.409  -3.637  1.00  0.00     0.189 HD
HETATM    7  N   UNL     1      38.588 -10.809  -3.021  1.00  0.00    -0.168 NA
HETATM    8  C   UNL     1      39.554 -10.726  -2.077  1.00  0.00     0.156 A 
HETATM    9  C   UNL     1      38.842 -14.228  -1.793  1.00  0.00     0.034 A 
HETATM   10  C   UNL     1      39.726 -14.709  -0.817  1.00  0.00     0.032 A 
ENDROOT
BRANCH   1  11
HETATM   11  N   UNL     1      41.536 -14.464   0.742  1.00  0.00    -0.327 N 
HETATM   12  C   UNL     1      41.424 -14.530   2.120  1.00  0.00     0.226 C 
HETATM   13  O   UNL     1      40.386 -14.407   2.764  1.00  0.00    -0.273 OA
HETATM   14  H   UNL     1      42.358 -14.892   0.333  1.00  0.00     0.169 HD
BRANCH  12  15
HETATM   15  C   UNL     1      42.764 -14.724   2.811  1.00  0.00     0.141 C 
BRANCH  15  16
HETATM   16  C   UNL     1      43.184 -16.154   3.031  1.00  0.00    -0.049 A 
HETATM   17  C   UNL     1      43.602 -16.575   4.301  1.00  0.00     0.008 A 
HETATM   18  C   UNL     1      43.870 -17.923   4.554  1.00  0.00     0.007 A 
HETATM   19  C   UNL     1      43.710 -18.882   3.547  1.00  0.00    -0.059 A 
HETATM   20  C   UNL     1      43.319 -18.459   2.271  1.00  0.00     0.007 A 
HETATM   21  C   UNL     1      43.057 -17.110   2.016  1.00  0.00     0.008 A 
BRANCH  19  22
HETATM   22  C   UNL     1      43.941 -20.346   3.835  1.00  0.00     0.034 C 
HETATM   23  C   UNL     1      44.094 -20.633   5.324  1.00  0.00     0.010 C 
ENDBRANCH  19  22
ENDBRANCH  15  16
ENDBRANCH  12  15
ENDBRANCH   1  11
BRANCH   8  24
HETATM   24  C   UNL     1      40.244  -9.457  -1.803  1.00  0.00     0.270 C 
HETATM   25  N   UNL     1      40.922  -8.947  -2.877  1.00  0.00    -0.365 N 
HETATM   26  H   UNL     1      40.915  -9.466  -3.747  1.00  0.00     0.159 HD
HETATM   27  H   UNL     1      41.441  -8.090  -2.776  1.00  0.00     0.159 HD
HETATM   28  O   UNL     1      40.248  -8.882  -0.720  1.00  0.00    -0.266 OA
ENDBRANCH   8  24
TORSDOF 5
ENDMDL
MODEL 9
REMARK VINA RESULT:      -7.7      5.806      8.456
REMARK  5 active torsions:
REMARK  status: ('A' for Active; 'I' for Inactive)
REMARK    1  A    between atoms: C_2  and  C_3 
REMARK    2  A    between atoms: C_6  and  C_7 
REMARK    3  A    between atoms: C_7  and  C_8 
REMARK       I    between atoms: C_8  and  N_9 
REMARK    4  A    between atoms: N_9  and  C_10 
REMARK    5  A    between atoms: C_17  and  C_18 
REMARK       I    between atoms: C_18  and  N_19 
ROOT
HETATM    1  C   UNL     1      42.023 -11.223   6.013  1.00  0.00     0.035 A 
HETATM    2  C   UNL     1      43.133 -10.912   6.813  1.00  0.00     0.046 A 
HETATM    3  C   UNL     1      43.267  -9.611   7.344  1.00  0.00     0.030 A 
HETATM    4  C   UNL     1      42.274  -8.675   7.082  1.00  0.00     0.063 A 
HETATM    5  N   UNL     1      42.680  -7.532   7.712  1.00  0.00    -0.277 N 
HETATM    6  H   UNL     1      42.200  -6.639   7.735  1.00  0.00     0.189 HD
HETATM    7  N   UNL     1      43.861  -7.633   8.346  1.00  0.00    -0.168 NA
HETATM    8  C   UNL     1      44.237  -8.914   8.126  1.00  0.00     0.156 A 
HETATM    9  C   UNL     1      41.144  -8.957   6.312  1.00  0.00     0.034 A 
HETATM   10  C   UNL     1      41.047 -10.248   5.775  1.00  0.00     0.032 A 
ENDROOT
BRANCH   1  11
HETATM   11  N   UNL     1      41.879 -12.459   5.346  1.00  0.00    -0.327 N 
HETATM   12  C   UNL     1      42.434 -12.812   4.127  1.00  0.00     0.226 C 
HETATM   13  O   UNL     1      43.403 -12.279   3.596  1.00  0.00    -0.273 OA
HETATM   14  H   UNL     1      41.312 -13.160   5.806  1.00  0.00     0.169 HD
BRANCH  12  15
HETATM   15  C   UNL     1      41.676 -13.937   3.440  1.00  0.00     0.141 C 
BRANCH  15  16
HETATM   16  C   UNL     1      42.406 -15.251   3.341  1.00  0.00    -0.049 A 
HETATM   17  C   UNL     1      42.696 -15.981   4.502  1.00  0.00     0.008 A 
HETATM   18  C   UNL     1      43.255 -17.260   4.419  1.00  0.00     0.007 A 
HETATM   19  C   UNL     1      43.521 -17.843   3.175  1.00  0.00    -0.059 A 
HETATM   20  C   UNL     1      43.257 -17.103   2.016  1.00  0.00     0.007 A 
HETATM   21  C   UNL     1      42.703 -15.822   2.098  1.00  0.00     0.008 A 
BRANCH  19  22
HETATM   22  C   UNL     1      44.068 -19.246   3.083  1.00  0.00     0.034 C 
HETATM   23  C   UNL     1      43.354 -20.085   2.029  1.00  0.00     0.010 C 
ENDBRANCH  19  22
ENDBRANCH  15  16
ENDBRANCH  12  15
ENDBRANCH   1  11
BRANCH   8  24
HETATM   24  C   UNL     1      45.512  -9.433   8.643  1.00  0.00     0.270 C 
HETATM   25  N   UNL     1      46.528  -9.434   7.725  1.00  0.00    -0.365 N 
HETATM   26  H   UNL     1      46.335  -9.104   6.786  1.00  0.00     0.159 HD
HETATM   27  H   UNL     1      47.433  -9.790   7.985  1.00  0.00     0.159 HD
HETATM   28  O   UNL     1      45.687  -9.850   9.781  1.00  0.00    -0.266 OA
ENDBRANCH   8  24
TORSDOF 5
ENDMDL
MODEL 10
REMARK VINA RESULT:      -7.4     14.275     16.082
REMARK  5 active torsions:
REMARK  status: ('A' for Active; 'I' for Inactive)
REMARK    1  A    between atoms: C_2  and  C_3 
REMARK    2  A    between atoms: C_6  and  C_7 
REMARK    3  A    between atoms: C_7  and  C_8 
REMARK       I    between atoms: C_8  and  N_9 
REMARK    4  A    between atoms: N_9  and  C_10 
REMARK    5  A    between atoms: C_17  and  C_18 
REMARK       I    between atoms: C_18  and  N_19 
ROOT
HETATM    1  C   UNL     1      45.290 -28.755  -1.633  1.00  0.00     0.035 A 
HETATM    2  C   UNL     1      45.009 -30.077  -2.012  1.00  0.00     0.046 A 
HETATM    3  C   UNL     1      44.735 -30.370  -3.365  1.00  0.00     0.030 A 
HETATM    4  C   UNL     1      44.779 -29.341  -4.297  1.00  0.00     0.063 A 
HETATM    5  N   UNL     1      44.469 -29.923  -5.494  1.00  0.00    -0.277 N 
HETATM    6  H   UNL     1      44.406 -29.470  -6.400  1.00  0.00     0.189 HD
HETATM    7  N   UNL     1      44.207 -31.238  -5.424  1.00  0.00    -0.168 NA
HETATM    8  C   UNL     1      44.366 -31.530  -4.112  1.00  0.00     0.156 A 
HETATM    9  C   UNL     1      45.080 -28.020  -3.960  1.00  0.00     0.034 A 
HETATM   10  C   UNL     1      45.324 -27.749  -2.606  1.00  0.00     0.032 A 
ENDROOT
BRANCH   1  11
HETATM   11  N   UNL     1      45.453 -28.361  -0.288  1.00  0.00    -0.327 N 
HETATM   12  C   UNL     1      46.647 -28.243   0.402  1.00  0.00     0.226 C 
HETATM   13  O   UNL     1      47.759 -28.113  -0.101  1.00  0.00    -0.273 OA
HETATM   14  H   UNL     1      44.609 -28.140   0.226  1.00  0.00     0.169 HD
BRANCH  12  15
HETATM   15  C   UNL     1      46.469 -28.345   1.908  1.00  0.00     0.141 C 
BRANCH  15  16
HETATM   16  C   UNL     1      47.465 -29.219   2.626  1.00  0.00    -0.049 A 
HETATM   17  C   UNL     1      48.530 -28.638   3.328  1.00  0.00     0.008 A 
HETATM   18  C   UNL     1      49.386 -29.423   4.105  1.00  0.00     0.007 A 
HETATM   19  C   UNL     1      49.186 -30.805   4.211  1.00  0.00    -0.059 A 
HETATM   20  C   UNL     1      48.140 -31.390   3.488  1.00  0.00     0.007 A 
HETATM   21  C   UNL     1      47.287 -30.606   2.706  1.00  0.00     0.008 A 
BRANCH  19  22
HETATM   22  C   UNL     1      50.073 -31.645   5.097  1.00  0.00     0.034 C 
HETATM   23  C   UNL     1      51.459 -31.040   5.282  1.00  0.00     0.010 C 
ENDBRANCH  19  22
ENDBRANCH  15  16
ENDBRANCH  12  15
ENDBRANCH   1  11
BRANCH   8  24
HETATM   24  C   UNL     1      44.142 -32.890  -3.602  1.00  0.00     0.270 C 
HETATM   25  N   UNL     1      44.705 -33.874  -4.369  1.00  0.00    -0.365 N 
HETATM   26  H   UNL     1      45.204 -33.609  -5.210  1.00  0.00     0.159 HD
HETATM   27  H   UNL     1      44.587 -34.839  -4.107  1.00  0.00     0.159 HD
HETATM   28  O   UNL     1      43.503 -33.163  -2.592  1.00  0.00    -0.266 OA
ENDBRANCH   8  24
TORSDOF 5
ENDMDL
