MODEL 1
REMARK VINA RESULT:      -8.1      0.000      0.000
REMARK  7 active torsions:
REMARK  status: ('A' for Active; 'I' for Inactive)
REMARK    1  A    between atoms: C_2  and  C_3 
REMARK    2  A    between atoms: C_3  and  N_4 
REMARK    3  A    between atoms: C_7  and  C_8 
REMARK    4  A    between atoms: C_8  and  N_9 
REMARK       I    between atoms: N_9  and  C_10 
REMARK       I    between atoms: C_10  and  N_11 
REMARK    5  A    between atoms: N_11  and  C_12 
REMARK    6  A    between atoms: C_15  and  N_16 
REMARK       I    between atoms: N_16  and  C_17 
REMARK    7  A    between atoms: C_17  and  C_18 
ROOT
HETATM    1  N   UNL     1      43.459 -14.304   5.863  1.00  0.00    -0.342 N 
HETATM    2  C   UNL     1      43.619 -15.647   6.037  1.00  0.00     0.320 C 
HETATM    3  N   UNL     1      42.998 -16.469   5.146  1.00  0.00    -0.309 N 
HETATM    4  O   UNL     1      44.273 -16.124   6.961  1.00  0.00    -0.247 OA
HETATM    5  H   UNL     1      42.596 -14.096   5.374  1.00  0.00     0.164 HD
HETATM    6  H   UNL     1      42.955 -17.425   5.485  1.00  0.00     0.170 HD
ENDROOT
BRANCH   3   7
HETATM    7  C   UNL     1      42.385 -16.219   3.905  1.00  0.00     0.036 A 
HETATM    8  C   UNL     1      43.083 -16.078   2.706  1.00  0.00     0.032 A 
HETATM    9  C   UNL     1      42.410 -15.764   1.519  1.00  0.00     0.032 A 
HETATM   10  C   UNL     1      41.026 -15.599   1.509  1.00  0.00     0.035 A 
HETATM   11  C   UNL     1      40.318 -15.817   2.696  1.00  0.00     0.032 A 
HETATM   12  C   UNL     1      40.991 -16.137   3.880  1.00  0.00     0.032 A 
BRANCH  10  13
HETATM   13  N   UNL     1      40.290 -15.196   0.383  1.00  0.00    -0.321 N 
HETATM   14  C   UNL     1      40.214 -13.936  -0.187  1.00  0.00     0.279 C 
HETATM   15  O   UNL     1      40.876 -12.961   0.157  1.00  0.00    -0.265 OA
HETATM   16  H   UNL     1      39.674 -15.883  -0.043  1.00  0.00     0.169 HD
BRANCH  14  17
HETATM   17  C   UNL     1      39.229 -13.866  -1.252  1.00  0.00     0.142 A 
HETATM   18  O   UNL     1      38.283 -12.872  -1.228  1.00  0.00    -0.317 OA
HETATM   19  C   UNL     1      37.520 -13.019  -2.342  1.00  0.00     0.143 A 
HETATM   20  C   UNL     1      37.951 -14.092  -3.085  1.00  0.00     0.027 A 
HETATM   21  C   UNL     1      39.050 -14.642  -2.381  1.00  0.00     0.045 A 
ENDBRANCH  14  17
ENDBRANCH  10  13
ENDBRANCH   3   7
BRANCH   1  22
HETATM   22  C   UNL     1      43.837 -13.292   6.836  1.00  0.00     0.130 C 
BRANCH  22  23
HETATM   23  C   UNL     1      44.011 -11.847   6.342  1.00  0.00     0.031 C 
HETATM   24  C   UNL     1      43.307 -10.800   7.194  1.00  0.00     0.241 C 
HETATM   25  N   UNL     1      44.365 -10.260   8.153  1.00  0.00    -0.071 N 
HETATM   26  H   UNL     1      44.456  -9.261   7.925  1.00  0.00     0.279 HD
HETATM   27  C   UNL     1      45.673 -10.927   7.802  1.00  0.00     0.235 C 
HETATM   28  C   UNL     1      45.471 -11.404   6.378  1.00  0.00     0.035 C 
BRANCH  25  29
HETATM   29  C   UNL     1      43.955 -10.366   9.597  1.00  0.00     0.234 C 
BRANCH  29  30
HETATM   30  C   UNL     1      44.533  -9.232  10.441  1.00  0.00     0.023 C 
HETATM   31  C   UNL     1      43.709  -8.914  11.681  1.00  0.00     0.007 C 
ENDBRANCH  29  30
ENDBRANCH  25  29
ENDBRANCH  22  23
ENDBRANCH   1  22
TORSDOF 7
ENDMDL
MODEL 2
REMARK VINA RESULT:      -8.0      1.392      2.730
REMARK  7 active torsions:
REMARK  status: ('A' for Active; 'I' for Inactive)
REMARK    1  A    between atoms: C_2  and  C_3 
REMARK    2  A    between atoms: C_3  and  N_4 
REMARK    3  A    between atoms: C_7  and  C_8 
REMARK    4  A    between atoms: C_8  and  N_9 
REMARK       I    between atoms: N_9  and  C_10 
REMARK       I    between atoms: C_10  and  N_11 
REMARK    5  A    between atoms: N_11  and  C_12 
REMARK    6  A    between atoms: C_15  and  N_16 
REMARK       I    between atoms: N_16  and  C_17 
REMARK    7  A    between atoms: C_17  and  C_18 
ROOT
HETATM    1  N   UNL     1      43.321 -14.451   5.917  1.00  0.00    -0.342 N 
HETATM    2  C   UNL     1      43.632 -15.774   5.809  1.00  0.00     0.320 C 
HETATM    3  N   UNL     1      42.987 -16.490   4.847  1.00  0.00    -0.309 N 
HETATM    4  O   UNL     1      44.442 -16.328   6.549  1.00  0.00    -0.247 OA
HETATM    5  H   UNL     1      42.387 -14.262   5.571  1.00  0.00     0.164 HD
HETATM    6  H   UNL     1      43.081 -17.489   4.997  1.00  0.00     0.170 HD
ENDROOT
BRANCH   3   7
HETATM    7  C   UNL     1      42.200 -16.095   3.750  1.00  0.00     0.036 A 
HETATM    8  C   UNL     1      40.805 -16.109   3.747  1.00  0.00     0.032 A 
HETATM    9  C   UNL     1      40.088 -15.765   2.594  1.00  0.00     0.032 A 
HETATM   10  C   UNL     1      40.755 -15.389   1.429  1.00  0.00     0.035 A 
HETATM   11  C   UNL     1      42.150 -15.300   1.456  1.00  0.00     0.032 A 
HETATM   12  C   UNL     1      42.866 -15.638   2.611  1.00  0.00     0.032 A 
BRANCH  10  13
HETATM   13  N   UNL     1      40.114 -15.117   0.209  1.00  0.00    -0.321 N 
HETATM   14  C   UNL     1      39.766 -13.886  -0.322  1.00  0.00     0.279 C 
HETATM   15  O   UNL     1      40.062 -12.797   0.161  1.00  0.00    -0.265 OA
HETATM   16  H   UNL     1      39.792 -15.912  -0.336  1.00  0.00     0.169 HD
BRANCH  14  17
HETATM   17  C   UNL     1      38.975 -14.007  -1.534  1.00  0.00     0.142 A 
HETATM   18  O   UNL     1      37.887 -13.188  -1.710  1.00  0.00    -0.317 OA
HETATM   19  C   UNL     1      37.356 -13.485  -2.924  1.00  0.00     0.143 A 
HETATM   20  C   UNL     1      38.075 -14.485  -3.535  1.00  0.00     0.027 A 
HETATM   21  C   UNL     1      39.116 -14.825  -2.638  1.00  0.00     0.045 A 
ENDBRANCH  14  17
ENDBRANCH  10  13
ENDBRANCH   3   7
BRANCH   1  22
HETATM   22  C   UNL     1      43.718 -13.594   7.021  1.00  0.00     0.130 C 
BRANCH  22  23
HETATM   23  C   UNL     1      44.558 -12.347   6.701  1.00  0.00     0.031 C 
HETATM   24  C   UNL     1      44.168 -11.638   5.410  1.00  0.00     0.241 C 
HETATM   25  N   UNL     1      43.229 -10.506   5.823  1.00  0.00    -0.071 N 
HETATM   26  H   UNL     1      43.707  -9.639   5.543  1.00  0.00     0.279 HD
HETATM   27  C   UNL     1      43.147 -10.514   7.330  1.00  0.00     0.235 C 
HETATM   28  C   UNL     1      44.395 -11.261   7.760  1.00  0.00     0.035 C 
BRANCH  25  29
HETATM   29  C   UNL     1      41.906 -10.552   5.106  1.00  0.00     0.234 C 
BRANCH  29  30
HETATM   30  C   UNL     1      41.768 -11.801   4.238  1.00  0.00     0.023 C 
HETATM   31  C   UNL     1      40.496 -12.592   4.506  1.00  0.00     0.007 C 
ENDBRANCH  29  30
ENDBRANCH  25  29
ENDBRANCH  22  23
ENDBRANCH   1  22
TORSDOF 7
ENDMDL
MODEL 3
REMARK VINA RESULT:      -7.9      3.093      8.802
REMARK  7 active torsions:
REMARK  status: ('A' for Active; 'I' for Inactive)
REMARK    1  A    between atoms: C_2  and  C_3 
REMARK    2  A    between atoms: C_3  and  N_4 
REMARK    3  A    between atoms: C_7  and  C_8 
REMARK    4  A    between atoms: C_8  and  N_9 
REMARK       I    between atoms: N_9  and  C_10 
REMARK       I    between atoms: C_10  and  N_11 
REMARK    5  A    between atoms: N_11  and  C_12 
REMARK    6  A    between atoms: C_15  and  N_16 
REMARK       I    between atoms: N_16  and  C_17 
REMARK    7  A    between atoms: C_17  and  C_18 
ROOT
HETATM    1  N   UNL     1      41.749 -16.733   2.800  1.00  0.00    -0.342 N 
HETATM    2  C   UNL     1      40.648 -16.038   2.395  1.00  0.00     0.320 C 
HETATM    3  N   UNL     1      40.276 -14.966   3.148  1.00  0.00    -0.309 N 
HETATM    4  O   UNL     1      39.989 -16.355   1.407  1.00  0.00    -0.247 OA
HETATM    5  H   UNL     1      41.901 -16.635   3.798  1.00  0.00     0.164 HD
HETATM    6  H   UNL     1      39.330 -14.668   2.934  1.00  0.00     0.170 HD
ENDROOT
BRANCH   3   7
HETATM    7  C   UNL     1      40.937 -14.259   4.169  1.00  0.00     0.036 A 
HETATM    8  C   UNL     1      40.965 -14.663   5.504  1.00  0.00     0.032 A 
HETATM    9  C   UNL     1      41.587 -13.872   6.478  1.00  0.00     0.032 A 
HETATM   10  C   UNL     1      42.203 -12.671   6.130  1.00  0.00     0.035 A 
HETATM   11  C   UNL     1      42.242 -12.305   4.781  1.00  0.00     0.032 A 
HETATM   12  C   UNL     1      41.626 -13.099   3.807  1.00  0.00     0.032 A 
BRANCH  10  13
HETATM   13  N   UNL     1      42.768 -11.780   7.058  1.00  0.00    -0.321 N 
HETATM   14  C   UNL     1      44.102 -11.631   7.402  1.00  0.00     0.279 C 
HETATM   15  O   UNL     1      45.042 -12.205   6.860  1.00  0.00    -0.265 OA
HETATM   16  H   UNL     1      42.130 -11.213   7.610  1.00  0.00     0.169 HD
BRANCH  14  17
HETATM   17  C   UNL     1      44.290 -10.717   8.514  1.00  0.00     0.142 A 
HETATM   18  O   UNL     1      45.441 -10.791   9.257  1.00  0.00    -0.317 OA
HETATM   19  C   UNL     1      45.373  -9.815  10.200  1.00  0.00     0.143 A 
HETATM   20  C   UNL     1      44.197  -9.113  10.084  1.00  0.00     0.027 A 
HETATM   21  C   UNL     1      43.495  -9.696   9.001  1.00  0.00     0.045 A 
ENDBRANCH  14  17
ENDBRANCH  10  13
ENDBRANCH   3   7
BRANCH   1  22
HETATM   22  C   UNL     1      42.151 -18.028   2.275  1.00  0.00     0.130 C 
BRANCH  22  23
HETATM   23  C   UNL     1      43.634 -18.419   2.378  1.00  0.00     0.031 C 
HETATM   24  C   UNL     1      44.287 -18.070   3.709  1.00  0.00     0.241 C 
HETATM   25  N   UNL     1      44.224 -19.342   4.552  1.00  0.00    -0.071 N 
HETATM   26  H   UNL     1      45.204 -19.599   4.731  1.00  0.00     0.279 HD
HETATM   27  C   UNL     1      43.620 -20.424   3.690  1.00  0.00     0.235 C 
HETATM   28  C   UNL     1      43.835 -19.927   2.274  1.00  0.00     0.035 C 
BRANCH  25  29
HETATM   29  C   UNL     1      43.554 -19.130   5.883  1.00  0.00     0.234 C 
BRANCH  29  30
HETATM   30  C   UNL     1      43.097 -17.685   6.070  1.00  0.00     0.023 C 
HETATM   31  C   UNL     1      43.776 -16.976   7.234  1.00  0.00     0.007 C 
ENDBRANCH  29  30
ENDBRANCH  25  29
ENDBRANCH  22  23
ENDBRANCH   1  22
TORSDOF 7
ENDMDL
MODEL 4
REMARK VINA RESULT:      -7.7      4.087     11.508
REMARK  7 active torsions:
REMARK  status: ('A' for Active; 'I' for Inactive)
REMARK    1  A    between atoms: C_2  and  C_3 
REMARK    2  A    between atoms: C_3  and  N_4 
REMARK    3  A    between atoms: C_7  and  C_8 
REMARK    4  A    between atoms: C_8  and  N_9 
REMARK       I    between atoms: N_9  and  C_10 
REMARK       I    between atoms: C_10  and  N_11 
REMARK    5  A    between atoms: N_11  and  C_12 
REMARK    6  A    between atoms: C_15  and  N_16 
REMARK       I    between atoms: N_16  and  C_17 
REMARK    7  A    between atoms: C_17  and  C_18 
ROOT
HETATM    1  N   UNL     1      43.599 -12.634   7.383  1.00  0.00    -0.342 N 
HETATM    2  C   UNL     1      44.179 -11.700   6.577  1.00  0.00     0.320 C 
HETATM    3  N   UNL     1      44.306 -10.439   7.076  1.00  0.00    -0.309 N 
HETATM    4  O   UNL     1      44.562 -11.952   5.437  1.00  0.00    -0.247 OA
HETATM    5  H   UNL     1      42.977 -12.204   8.058  1.00  0.00     0.164 HD
HETATM    6  H   UNL     1      44.506  -9.765   6.344  1.00  0.00     0.170 HD
ENDROOT
BRANCH   3   7
HETATM    7  C   UNL     1      44.165  -9.924   8.376  1.00  0.00     0.036 A 
HETATM    8  C   UNL     1      45.116 -10.082   9.385  1.00  0.00     0.032 A 
HETATM    9  C   UNL     1      44.876  -9.597  10.677  1.00  0.00     0.032 A 
HETATM   10  C   UNL     1      43.686  -8.935  10.978  1.00  0.00     0.035 A 
HETATM   11  C   UNL     1      42.768  -8.710   9.948  1.00  0.00     0.032 A 
HETATM   12  C   UNL     1      43.011  -9.188   8.656  1.00  0.00     0.032 A 
BRANCH  10  13
HETATM   13  N   UNL     1      43.333  -8.501  12.266  1.00  0.00    -0.321 N 
HETATM   14  C   UNL     1      42.438  -9.079  13.152  1.00  0.00     0.279 C 
HETATM   15  O   UNL     1      41.866 -10.152  12.982  1.00  0.00    -0.265 OA
HETATM   16  H   UNL     1      43.718  -7.615  12.582  1.00  0.00     0.169 HD
BRANCH  14  17
HETATM   17  C   UNL     1      42.215  -8.260  14.330  1.00  0.00     0.142 A 
HETATM   18  O   UNL     1      41.265  -8.642  15.244  1.00  0.00    -0.317 OA
HETATM   19  C   UNL     1      41.286  -7.729  16.249  1.00  0.00     0.143 A 
HETATM   20  C   UNL     1      42.229  -6.760  16.001  1.00  0.00     0.027 A 
HETATM   21  C   UNL     1      42.826  -7.098  14.762  1.00  0.00     0.045 A 
ENDBRANCH  14  17
ENDBRANCH  10  13
ENDBRANCH   3   7
BRANCH   1  22
HETATM   22  C   UNL     1      43.163 -13.950   6.945  1.00  0.00     0.130 C 
BRANCH  22  23
HETATM   23  C   UNL     1      41.903 -14.037   6.068  1.00  0.00     0.031 C 
HETATM   24  C   UNL     1      42.177 -14.314   4.596  1.00  0.00     0.241 C 
HETATM   25  N   UNL     1      42.016 -15.822   4.417  1.00  0.00    -0.071 N 
HETATM   26  H   UNL     1      41.235 -15.937   3.758  1.00  0.00     0.279 HD
HETATM   27  C   UNL     1      41.578 -16.390   5.745  1.00  0.00     0.235 C 
HETATM   28  C   UNL     1      41.000 -15.196   6.480  1.00  0.00     0.035 C 
BRANCH  25  29
HETATM   29  C   UNL     1      43.230 -16.472   3.808  1.00  0.00     0.234 C 
BRANCH  29  30
HETATM   30  C   UNL     1      42.935 -17.058   2.429  1.00  0.00     0.023 C 
HETATM   31  C   UNL     1      43.163 -18.561   2.344  1.00  0.00     0.007 C 
ENDBRANCH  29  30
ENDBRANCH  25  29
ENDBRANCH  22  23
ENDBRANCH   1  22
TORSDOF 7
ENDMDL
MODEL 5
REMARK VINA RESULT:      -7.6      2.463      5.205
REMARK  7 active torsions:
REMARK  status: ('A' for Active; 'I' for Inactive)
REMARK    1  A    between atoms: C_2  and  C_3 
REMARK    2  A    between atoms: C_3  and  N_4 
REMARK    3  A    between atoms: C_7  and  C_8 
REMARK    4  A    between atoms: C_8  and  N_9 
REMARK       I    between atoms: N_9  and  C_10 
REMARK       I    between atoms: C_10  and  N_11 
REMARK    5  A    between atoms: N_11  and  C_12 
REMARK    6  A    between atoms: C_15  and  N_16 
REMARK       I    between atoms: N_16  and  C_17 
REMARK    7  A    between atoms: C_17  and  C_18 
ROOT
HETATM    1  N   UNL     1      42.901 -13.959   6.609  1.00  0.00    -0.342 N 
HETATM    2  C   UNL     1      43.410 -12.698   6.711  1.00  0.00     0.320 C 
HETATM    3  N   UNL     1      43.275 -11.883   5.627  1.00  0.00    -0.309 N 
HETATM    4  O   UNL     1      43.987 -12.293   7.717  1.00  0.00    -0.247 OA
HETATM    5  H   UNL     1      42.866 -14.266   5.644  1.00  0.00     0.164 HD
HETATM    6  H   UNL     1      43.887 -11.075   5.688  1.00  0.00     0.170 HD
ENDROOT
BRANCH   3   7
HETATM    7  C   UNL     1      42.499 -11.991   4.460  1.00  0.00     0.036 A 
HETATM    8  C   UNL     1      41.107 -11.899   4.439  1.00  0.00     0.032 A 
HETATM    9  C   UNL     1      40.396 -12.083   3.246  1.00  0.00     0.032 A 
HETATM   10  C   UNL     1      41.066 -12.350   2.053  1.00  0.00     0.035 A 
HETATM   11  C   UNL     1      42.464 -12.365   2.061  1.00  0.00     0.032 A 
HETATM   12  C   UNL     1      43.175 -12.174   3.251  1.00  0.00     0.032 A 
BRANCH  10  13
HETATM   13  N   UNL     1      40.423 -12.634   0.837  1.00  0.00    -0.321 N 
HETATM   14  C   UNL     1      40.028 -13.867   0.344  1.00  0.00     0.279 C 
HETATM   15  O   UNL     1      40.092 -14.929   0.956  1.00  0.00    -0.265 OA
HETATM   16  H   UNL     1      40.283 -11.863   0.191  1.00  0.00     0.169 HD
BRANCH  14  17
HETATM   17  C   UNL     1      39.533 -13.787  -1.019  1.00  0.00     0.142 A 
HETATM   18  O   UNL     1      39.530 -12.575  -1.663  1.00  0.00    -0.317 OA
HETATM   19  C   UNL     1      39.053 -12.789  -2.917  1.00  0.00     0.143 A 
HETATM   20  C   UNL     1      38.743 -14.116  -3.096  1.00  0.00     0.027 A 
HETATM   21  C   UNL     1      39.048 -14.760  -1.872  1.00  0.00     0.045 A 
ENDBRANCH  14  17
ENDBRANCH  10  13
ENDBRANCH   3   7
BRANCH   1  22
HETATM   22  C   UNL     1      43.158 -15.034   7.553  1.00  0.00     0.130 C 
BRANCH  22  23
HETATM   23  C   UNL     1      42.474 -16.388   7.307  1.00  0.00     0.031 C 
HETATM   24  C   UNL     1      41.538 -16.413   6.107  1.00  0.00     0.241 C 
HETATM   25  N   UNL     1      42.357 -16.981   4.950  1.00  0.00    -0.071 N 
HETATM   26  H   UNL     1      41.883 -17.853   4.681  1.00  0.00     0.279 HD
HETATM   27  C   UNL     1      43.714 -17.351   5.497  1.00  0.00     0.235 C 
HETATM   28  C   UNL     1      43.482 -17.488   6.989  1.00  0.00     0.035 C 
BRANCH  25  29
HETATM   29  C   UNL     1      42.373 -16.077   3.746  1.00  0.00     0.234 C 
BRANCH  29  30
HETATM   30  C   UNL     1      43.091 -16.717   2.559  1.00  0.00     0.023 C 
HETATM   31  C   UNL     1      43.498 -15.720   1.483  1.00  0.00     0.007 C 
ENDBRANCH  29  30
ENDBRANCH  25  29
ENDBRANCH  22  23
ENDBRANCH   1  22
TORSDOF 7
ENDMDL
MODEL 6
REMARK VINA RESULT:      -7.5      2.771      3.853
REMARK  7 active torsions:
REMARK  status: ('A' for Active; 'I' for Inactive)
REMARK    1  A    between atoms: C_2  and  C_3 
REMARK    2  A    between atoms: C_3  and  N_4 
REMARK    3  A    between atoms: C_7  and  C_8 
REMARK    4  A    between atoms: C_8  and  N_9 
REMARK       I    between atoms: N_9  and  C_10 
REMARK       I    between atoms: C_10  and  N_11 
REMARK    5  A    between atoms: N_11  and  C_12 
REMARK    6  A    between atoms: C_15  and  N_16 
REMARK       I    between atoms: N_16  and  C_17 
REMARK    7  A    between atoms: C_17  and  C_18 
ROOT
HETATM    1  N   UNL     1      43.519 -16.429   4.844  1.00  0.00    -0.342 N 
HETATM    2  C   UNL     1      43.654 -17.484   3.991  1.00  0.00     0.320 C 
HETATM    3  N   UNL     1      42.818 -17.527   2.917  1.00  0.00    -0.309 N 
HETATM    4  O   UNL     1      44.474 -18.381   4.168  1.00  0.00    -0.247 OA
HETATM    5  H   UNL     1      42.579 -16.050   4.816  1.00  0.00     0.164 HD
HETATM    6  H   UNL     1      42.809 -18.446   2.486  1.00  0.00     0.170 HD
ENDROOT
BRANCH   3   7
HETATM    7  C   UNL     1      41.958 -16.567   2.354  1.00  0.00     0.036 A 
HETATM    8  C   UNL     1      40.631 -16.385   2.744  1.00  0.00     0.032 A 
HETATM    9  C   UNL     1      39.815 -15.452   2.092  1.00  0.00     0.032 A 
HETATM   10  C   UNL     1      40.317 -14.677   1.048  1.00  0.00     0.035 A 
HETATM   11  C   UNL     1      41.667 -14.805   0.709  1.00  0.00     0.032 A 
HETATM   12  C   UNL     1      42.484 -15.732   1.365  1.00  0.00     0.032 A 
BRANCH  10  13
HETATM   13  N   UNL     1      39.540 -13.787   0.287  1.00  0.00    -0.321 N 
HETATM   14  C   UNL     1      39.086 -13.940  -1.013  1.00  0.00     0.279 C 
HETATM   15  O   UNL     1      39.213 -14.954  -1.694  1.00  0.00    -0.265 OA
HETATM   16  H   UNL     1      39.333 -12.881   0.696  1.00  0.00     0.169 HD
BRANCH  14  17
HETATM   17  C   UNL     1      38.443 -12.742  -1.522  1.00  0.00     0.142 A 
HETATM   18  O   UNL     1      37.886 -11.851  -0.638  1.00  0.00    -0.317 OA
HETATM   19  C   UNL     1      37.389 -10.820  -1.369  1.00  0.00     0.143 A 
HETATM   20  C   UNL     1      37.608 -11.029  -2.710  1.00  0.00     0.027 A 
HETATM   21  C   UNL     1      38.283 -12.269  -2.810  1.00  0.00     0.045 A 
ENDBRANCH  14  17
ENDBRANCH  10  13
ENDBRANCH   3   7
BRANCH   1  22
HETATM   22  C   UNL     1      44.144 -16.338   6.153  1.00  0.00     0.130 C 
BRANCH  22  23
HETATM   23  C   UNL     1      43.305 -15.781   7.315  1.00  0.00     0.031 C 
HETATM   24  C   UNL     1      43.383 -14.269   7.482  1.00  0.00     0.241 C 
HETATM   25  N   UNL     1      42.164 -13.706   6.755  1.00  0.00    -0.071 N 
HETATM   26  H   UNL     1      41.607 -13.235   7.481  1.00  0.00     0.279 HD
HETATM   27  C   UNL     1      41.358 -14.878   6.251  1.00  0.00     0.235 C 
HETATM   28  C   UNL     1      41.814 -16.035   7.116  1.00  0.00     0.035 C 
BRANCH  25  29
HETATM   29  C   UNL     1      42.526 -12.678   5.716  1.00  0.00     0.234 C 
BRANCH  29  30
HETATM   30  C   UNL     1      42.258 -13.178   4.299  1.00  0.00     0.023 C 
HETATM   31  C   UNL     1      43.266 -12.675   3.274  1.00  0.00     0.007 C 
ENDBRANCH  29  30
ENDBRANCH  25  29
ENDBRANCH  22  23
ENDBRANCH   1  22
TORSDOF 7
ENDMDL
MODEL 7
REMARK VINA RESULT:      -7.4      4.022      6.557
REMARK  7 active torsions:
REMARK  status: ('A' for Active; 'I' for Inactive)
REMARK    1  A    between atoms: C_2  and  C_3 
REMARK    2  A    between atoms: C_3  and  N_4 
REMARK    3  A    between atoms: C_7  and  C_8 
REMARK    4  A    between atoms: C_8  and  N_9 
REMARK       I    between atoms: N_9  and  C_10 
REMARK       I    between atoms: C_10  and  N_11 
REMARK    5  A    between atoms: N_11  and  C_12 
REMARK    6  A    between atoms: C_15  and  N_16 
REMARK       I    between atoms: N_16  and  C_17 
REMARK    7  A    between atoms: C_17  and  C_18 
ROOT
HETATM    1  N   UNL     1      40.550  -9.836   8.651  1.00  0.00    -0.342 N 
HETATM    2  C   UNL     1      39.677  -9.568   7.638  1.00  0.00     0.320 C 
HETATM    3  N   UNL     1      39.839 -10.261   6.477  1.00  0.00    -0.309 N 
HETATM    4  O   UNL     1      38.786  -8.728   7.734  1.00  0.00    -0.247 OA
HETATM    5  H   UNL     1      41.431 -10.190   8.295  1.00  0.00     0.164 HD
HETATM    6  H   UNL     1      39.329  -9.833   5.711  1.00  0.00     0.170 HD
ENDROOT
BRANCH   3   7
HETATM    7  C   UNL     1      40.603 -11.398   6.158  1.00  0.00     0.036 A 
HETATM    8  C   UNL     1      41.976 -11.370   5.916  1.00  0.00     0.032 A 
HETATM    9  C   UNL     1      42.660 -12.533   5.539  1.00  0.00     0.032 A 
HETATM   10  C   UNL     1      41.983 -13.745   5.410  1.00  0.00     0.035 A 
HETATM   11  C   UNL     1      40.622 -13.788   5.728  1.00  0.00     0.032 A 
HETATM   12  C   UNL     1      39.941 -12.627   6.111  1.00  0.00     0.032 A 
BRANCH  10  13
HETATM   13  N   UNL     1      42.577 -14.932   4.950  1.00  0.00    -0.321 N 
HETATM   14  C   UNL     1      42.869 -15.297   3.646  1.00  0.00     0.279 C 
HETATM   15  O   UNL     1      42.738 -14.574   2.662  1.00  0.00    -0.265 OA
HETATM   16  H   UNL     1      42.761 -15.658   5.636  1.00  0.00     0.169 HD
BRANCH  14  17
HETATM   17  C   UNL     1      43.339 -16.667   3.544  1.00  0.00     0.142 A 
HETATM   18  O   UNL     1      43.994 -17.234   4.609  1.00  0.00    -0.317 OA
HETATM   19  C   UNL     1      44.291 -18.513   4.261  1.00  0.00     0.143 A 
HETATM   20  C   UNL     1      43.845 -18.783   2.989  1.00  0.00     0.027 A 
HETATM   21  C   UNL     1      43.235 -17.593   2.524  1.00  0.00     0.045 A 
ENDBRANCH  14  17
ENDBRANCH  10  13
ENDBRANCH   3   7
BRANCH   1  22
HETATM   22  C   UNL     1      40.687  -9.039   9.859  1.00  0.00     0.130 C 
BRANCH  22  23
HETATM   23  C   UNL     1      39.700  -9.298  11.009  1.00  0.00     0.031 C 
HETATM   24  C   UNL     1      40.295 -10.048  12.193  1.00  0.00     0.241 C 
HETATM   25  N   UNL     1      40.697  -8.979  13.206  1.00  0.00    -0.071 N 
HETATM   26  H   UNL     1      40.126  -9.164  14.041  1.00  0.00     0.279 HD
HETATM   27  C   UNL     1      40.267  -7.644  12.648  1.00  0.00     0.235 C 
HETATM   28  C   UNL     1      39.199  -7.999  11.633  1.00  0.00     0.035 C 
BRANCH  25  29
HETATM   29  C   UNL     1      42.144  -9.071  13.611  1.00  0.00     0.234 C 
BRANCH  29  30
HETATM   30  C   UNL     1      43.021  -8.098  12.826  1.00  0.00     0.023 C 
HETATM   31  C   UNL     1      43.853  -8.766  11.741  1.00  0.00     0.007 C 
ENDBRANCH  29  30
ENDBRANCH  25  29
ENDBRANCH  22  23
ENDBRANCH   1  22
TORSDOF 7
ENDMDL
MODEL 8
REMARK VINA RESULT:      -7.3      4.398      5.639
REMARK  7 active torsions:
REMARK  status: ('A' for Active; 'I' for Inactive)
REMARK    1  A    between atoms: C_2  and  C_3 
REMARK    2  A    between atoms: C_3  and  N_4 
REMARK    3  A    between atoms: C_7  and  C_8 
REMARK    4  A    between atoms: C_8  and  N_9 
REMARK       I    between atoms: N_9  and  C_10 
REMARK       I    between atoms: C_10  and  N_11 
REMARK    5  A    between atoms: N_11  and  C_12 
REMARK    6  A    between atoms: C_15  and  N_16 
REMARK       I    between atoms: N_16  and  C_17 
REMARK    7  A    between atoms: C_17  and  C_18 
ROOT
HETATM    1  N   UNL     1      42.252 -10.631   6.931  1.00  0.00    -0.342 N 
HETATM    2  C   UNL     1      40.895 -10.764   6.967  1.00  0.00     0.320 C 
HETATM    3  N   UNL     1      40.358 -11.842   6.330  1.00  0.00    -0.309 N 
HETATM    4  O   UNL     1      40.163  -9.952   7.527  1.00  0.00    -0.247 OA
HETATM    5  H   UNL     1      42.646 -11.089   6.117  1.00  0.00     0.164 HD
HETATM    6  H   UNL     1      39.359 -11.733   6.189  1.00  0.00     0.170 HD
ENDROOT
BRANCH   3   7
HETATM    7  C   UNL     1      40.938 -13.013   5.811  1.00  0.00     0.036 A 
HETATM    8  C   UNL     1      41.893 -13.024   4.794  1.00  0.00     0.032 A 
HETATM    9  C   UNL     1      42.378 -14.234   4.281  1.00  0.00     0.032 A 
HETATM   10  C   UNL     1      41.924 -15.452   4.785  1.00  0.00     0.035 A 
HETATM   11  C   UNL     1      41.026 -15.439   5.856  1.00  0.00     0.032 A 
HETATM   12  C   UNL     1      40.547 -14.230   6.373  1.00  0.00     0.032 A 
BRANCH  10  13
HETATM   13  N   UNL     1      42.293 -16.704   4.265  1.00  0.00    -0.321 N 
HETATM   14  C   UNL     1      43.508 -17.358   4.382  1.00  0.00     0.279 C 
HETATM   15  O   UNL     1      44.455 -16.977   5.064  1.00  0.00    -0.265 OA
HETATM   16  H   UNL     1      41.622 -17.176   3.665  1.00  0.00     0.169 HD
BRANCH  14  17
HETATM   17  C   UNL     1      43.569 -18.566   3.578  1.00  0.00     0.142 A 
HETATM   18  O   UNL     1      43.910 -19.754   4.176  1.00  0.00    -0.317 OA
HETATM   19  C   UNL     1      43.858 -20.714   3.216  1.00  0.00     0.143 A 
HETATM   20  C   UNL     1      43.495 -20.169   2.007  1.00  0.00     0.027 A 
HETATM   21  C   UNL     1      43.313 -18.784   2.238  1.00  0.00     0.045 A 
ENDBRANCH  14  17
ENDBRANCH  10  13
ENDBRANCH   3   7
BRANCH   1  22
HETATM   22  C   UNL     1      42.978  -9.439   7.337  1.00  0.00     0.130 C 
BRANCH  22  23
HETATM   23  C   UNL     1      44.292  -9.625   8.112  1.00  0.00     0.031 C 
HETATM   24  C   UNL     1      44.586  -8.529   9.129  1.00  0.00     0.241 C 
HETATM   25  N   UNL     1      44.092  -9.062  10.472  1.00  0.00    -0.071 N 
HETATM   26  H   UNL     1      44.928  -9.119  11.067  1.00  0.00     0.279 HD
HETATM   27  C   UNL     1      43.599 -10.471  10.245  1.00  0.00     0.235 C 
HETATM   28  C   UNL     1      44.281 -10.894   8.959  1.00  0.00     0.035 C 
BRANCH  25  29
HETATM   29  C   UNL     1      43.112  -8.138  11.144  1.00  0.00     0.234 C 
BRANCH  29  30
HETATM   30  C   UNL     1      43.400  -7.985  12.636  1.00  0.00     0.023 C 
HETATM   31  C   UNL     1      42.425  -8.742  13.526  1.00  0.00     0.007 C 
ENDBRANCH  29  30
ENDBRANCH  25  29
ENDBRANCH  22  23
ENDBRANCH   1  22
TORSDOF 7
ENDMDL
MODEL 9
REMARK VINA RESULT:      -7.3      4.201      6.948
REMARK  7 active torsions:
REMARK  status: ('A' for Active; 'I' for Inactive)
REMARK    1  A    between atoms: C_2  and  C_3 
REMARK    2  A    between atoms: C_3  and  N_4 
REMARK    3  A    between atoms: C_7  and  C_8 
REMARK    4  A    between atoms: C_8  and  N_9 
REMARK       I    between atoms: N_9  and  C_10 
REMARK       I    between atoms: C_10  and  N_11 
REMARK    5  A    between atoms: N_11  and  C_12 
REMARK    6  A    between atoms: C_15  and  N_16 
REMARK       I    between atoms: N_16  and  C_17 
REMARK    7  A    between atoms: C_17  and  C_18 
ROOT
HETATM    1  N   UNL     1      42.476 -10.053  10.015  1.00  0.00    -0.342 N 
HETATM    2  C   UNL     1      42.717  -9.097   9.074  1.00  0.00     0.320 C 
HETATM    3  N   UNL     1      43.152  -9.519   7.854  1.00  0.00    -0.309 N 
HETATM    4  O   UNL     1      42.576  -7.897   9.295  1.00  0.00    -0.247 OA
HETATM    5  H   UNL     1      43.027 -10.887   9.844  1.00  0.00     0.164 HD
HETATM    6  H   UNL     1      43.542  -8.756   7.311  1.00  0.00     0.170 HD
ENDROOT
BRANCH   3   7
HETATM    7  C   UNL     1      43.196 -10.793   7.260  1.00  0.00     0.036 A 
HETATM    8  C   UNL     1      44.237 -11.704   7.447  1.00  0.00     0.032 A 
HETATM    9  C   UNL     1      44.244 -12.930   6.770  1.00  0.00     0.032 A 
HETATM   10  C   UNL     1      43.206 -13.270   5.905  1.00  0.00     0.035 A 
HETATM   11  C   UNL     1      42.126 -12.391   5.778  1.00  0.00     0.032 A 
HETATM   12  C   UNL     1      42.115 -11.169   6.460  1.00  0.00     0.032 A 
BRANCH  10  13
HETATM   13  N   UNL     1      43.185 -14.437   5.122  1.00  0.00    -0.321 N 
HETATM   14  C   UNL     1      42.823 -15.718   5.502  1.00  0.00     0.279 C 
HETATM   15  O   UNL     1      42.353 -16.028   6.594  1.00  0.00    -0.265 OA
HETATM   16  H   UNL     1      43.544 -14.370   4.174  1.00  0.00     0.169 HD
BRANCH  14  17
HETATM   17  C   UNL     1      43.077 -16.700   4.463  1.00  0.00     0.142 A 
HETATM   18  O   UNL     1      43.908 -17.759   4.728  1.00  0.00    -0.317 OA
HETATM   19  C   UNL     1      43.945 -18.529   3.609  1.00  0.00     0.143 A 
HETATM   20  C   UNL     1      43.157 -17.985   2.623  1.00  0.00     0.027 A 
HETATM   21  C   UNL     1      42.601 -16.803   3.170  1.00  0.00     0.045 A 
ENDBRANCH  14  17
ENDBRANCH  10  13
ENDBRANCH   3   7
BRANCH   1  22
HETATM   22  C   UNL     1      42.244  -9.788  11.426  1.00  0.00     0.130 C 
BRANCH  22  23
HETATM   23  C   UNL     1      40.846 -10.080  11.994  1.00  0.00     0.031 C 
HETATM   24  C   UNL     1      40.622  -9.569  13.411  1.00  0.00     0.241 C 
HETATM   25  N   UNL     1      39.928  -8.217  13.263  1.00  0.00    -0.071 N 
HETATM   26  H   UNL     1      39.011  -8.330  13.715  1.00  0.00     0.279 HD
HETATM   27  C   UNL     1      39.685  -7.993  11.790  1.00  0.00     0.235 C 
HETATM   28  C   UNL     1      39.748  -9.385  11.194  1.00  0.00     0.035 C 
BRANCH  25  29
HETATM   29  C   UNL     1      40.655  -7.106  13.972  1.00  0.00     0.234 C 
BRANCH  29  30
HETATM   30  C   UNL     1      41.932  -6.698  13.239  1.00  0.00     0.023 C 
HETATM   31  C   UNL     1      43.207  -7.082  13.976  1.00  0.00     0.007 C 
ENDBRANCH  29  30
ENDBRANCH  25  29
ENDBRANCH  22  23
ENDBRANCH   1  22
TORSDOF 7
ENDMDL
MODEL 10
REMARK VINA RESULT:      -7.2      3.997      7.851
REMARK  7 active torsions:
REMARK  status: ('A' for Active; 'I' for Inactive)
REMARK    1  A    between atoms: C_2  and  C_3 
REMARK    2  A    between atoms: C_3  and  N_4 
REMARK    3  A    between atoms: C_7  and  C_8 
REMARK    4  A    between atoms: C_8  and  N_9 
REMARK       I    between atoms: N_9  and  C_10 
REMARK       I    between atoms: C_10  and  N_11 
REMARK    5  A    between atoms: N_11  and  C_12 
REMARK    6  A    between atoms: C_15  and  N_16 
REMARK       I    between atoms: N_16  and  C_17 
REMARK    7  A    between atoms: C_17  and  C_18 
ROOT
HETATM    1  N   UNL     1      40.935 -10.222   2.359  1.00  0.00    -0.342 N 
HETATM    2  C   UNL     1      41.433  -9.848   3.571  1.00  0.00     0.320 C 
HETATM    3  N   UNL     1      41.935 -10.831   4.370  1.00  0.00    -0.309 N 
HETATM    4  O   UNL     1      41.424  -8.683   3.962  1.00  0.00    -0.247 OA
HETATM    5  H   UNL     1      40.623 -11.187   2.370  1.00  0.00     0.164 HD
HETATM    6  H   UNL     1      42.045 -10.515   5.328  1.00  0.00     0.170 HD
ENDROOT
BRANCH   3   7
HETATM    7  C   UNL     1      42.266 -12.173   4.113  1.00  0.00     0.036 A 
HETATM    8  C   UNL     1      43.182 -12.577   3.141  1.00  0.00     0.032 A 
HETATM    9  C   UNL     1      43.412 -13.937   2.897  1.00  0.00     0.032 A 
HETATM   10  C   UNL     1      42.740 -14.914   3.628  1.00  0.00     0.035 A 
HETATM   11  C   UNL     1      41.880 -14.509   4.654  1.00  0.00     0.032 A 
HETATM   12  C   UNL     1      41.655 -13.150   4.903  1.00  0.00     0.032 A 
BRANCH  10  13
HETATM   13  N   UNL     1      42.848 -16.293   3.383  1.00  0.00    -0.321 N 
HETATM   14  C   UNL     1      43.636 -17.223   4.041  1.00  0.00     0.279 C 
HETATM   15  O   UNL     1      44.314 -16.998   5.039  1.00  0.00    -0.265 OA
HETATM   16  H   UNL     1      42.347 -16.666   2.581  1.00  0.00     0.169 HD
BRANCH  14  17
HETATM   17  C   UNL     1      43.602 -18.529   3.406  1.00  0.00     0.142 A 
HETATM   18  O   UNL     1      44.017 -19.630   4.112  1.00  0.00    -0.317 OA
HETATM   19  C   UNL     1      43.853 -20.709   3.304  1.00  0.00     0.143 A 
HETATM   20  C   UNL     1      43.344 -20.327   2.086  1.00  0.00     0.027 A 
HETATM   21  C   UNL     1      43.186 -18.921   2.148  1.00  0.00     0.045 A 
ENDBRANCH  14  17
ENDBRANCH  10  13
ENDBRANCH   3   7
BRANCH   1  22
HETATM   22  C   UNL     1      40.150  -9.366   1.485  1.00  0.00     0.130 C 
BRANCH  22  23
HETATM   23  C   UNL     1      39.023 -10.013   0.665  1.00  0.00     0.031 C 
HETATM   24  C   UNL     1      39.409 -11.317  -0.020  1.00  0.00     0.241 C 
HETATM   25  N   UNL     1      38.937 -12.433   0.909  1.00  0.00    -0.071 N 
HETATM   26  H   UNL     1      38.239 -12.961   0.369  1.00  0.00     0.279 HD
HETATM   27  C   UNL     1      38.220 -11.782   2.067  1.00  0.00     0.235 C 
HETATM   28  C   UNL     1      37.839 -10.414   1.539  1.00  0.00     0.035 C 
BRANCH  25  29
HETATM   29  C   UNL     1      40.040 -13.385   1.287  1.00  0.00     0.234 C 
BRANCH  29  30
HETATM   30  C   UNL     1      39.960 -14.694   0.505  1.00  0.00     0.023 C 
HETATM   31  C   UNL     1      39.954 -15.933   1.389  1.00  0.00     0.007 C 
ENDBRANCH  29  30
ENDBRANCH  25  29
ENDBRANCH  22  23
ENDBRANCH   1  22
TORSDOF 7
ENDMDL
