MODEL 1
REMARK VINA RESULT:      -8.2      0.000      0.000
REMARK  5 active torsions:
REMARK  status: ('A' for Active; 'I' for Inactive)
REMARK    1  A    between atoms: C_9  and  C_10 
REMARK       I    between atoms: C_10  and  N_11 
REMARK    2  A    between atoms: N_11  and  C_12 
REMARK    3  A    between atoms: C_12  and  C_13 
REMARK    4  A    between atoms: C_12  and  C_16 
REMARK    5  A    between atoms: C_19  and  O_20 
ROOT
HETATM    1  C   UNL     1      42.855 -15.081   3.193  1.00  0.00     0.273 C 
HETATM    2  N   UNL     1      41.563 -14.687   3.437  1.00  0.00    -0.346 N 
HETATM    3  O   UNL     1      43.571 -14.583   2.329  1.00  0.00    -0.266 OA
HETATM    4  H   UNL     1      41.095 -15.169   4.198  1.00  0.00     0.163 HD
ENDROOT
BRANCH   2   5
HETATM    5  C   UNL     1      40.911 -13.597   2.759  1.00  0.00     0.122 C 
BRANCH   5   6
HETATM    6  C   UNL     1      39.880 -14.073   1.757  1.00  0.00     0.013 A 
HETATM    7  C   UNL     1      39.859 -13.530   0.345  1.00  0.00     0.007 A 
HETATM    8  C   UNL     1      40.194 -14.977   0.583  1.00  0.00     0.007 A 
ENDBRANCH   5   6
BRANCH   5   9
HETATM    9  C   UNL     1      40.271 -12.675   3.786  1.00  0.00    -0.035 A 
HETATM   10  C   UNL     1      40.258 -13.039   5.140  1.00  0.00     0.012 A 
HETATM   11  C   UNL     1      39.649 -12.217   6.091  1.00  0.00     0.037 A 
HETATM   12  C   UNL     1      39.032 -11.023   5.712  1.00  0.00     0.068 A 
HETATM   13  C   UNL     1      39.033 -10.653   4.368  1.00  0.00     0.037 A 
HETATM   14  C   UNL     1      39.646 -11.474   3.413  1.00  0.00     0.012 A 
BRANCH  12  15
HETATM   15  O   UNL     1      38.470 -10.317   6.741  1.00  0.00    -0.356 OA
HETATM   16  C   UNL     1      39.363  -9.731   7.679  1.00  0.00     0.210 C 
ENDBRANCH  12  15
ENDBRANCH   5   9
ENDBRANCH   2   5
BRANCH   1  17
HETATM   17  C   UNL     1      43.296 -16.164   4.088  1.00  0.00     0.157 A 
HETATM   18  C   UNL     1      43.473 -17.542   3.762  1.00  0.00     0.029 A 
HETATM   19  C   UNL     1      43.317 -18.342   2.612  1.00  0.00     0.023 A 
HETATM   20  C   UNL     1      43.915 -18.138   4.937  1.00  0.00     0.063 A 
HETATM   21  C   UNL     1      43.607 -19.716   2.680  1.00  0.00    -0.061 A 
HETATM   22  C   UNL     1      43.454 -20.586   1.466  1.00  0.00     0.048 C 
HETATM   23  C   UNL     1      44.054 -20.275   3.884  1.00  0.00     0.009 A 
HETATM   24  C   UNL     1      44.217 -19.498   5.037  1.00  0.00     0.032 A 
HETATM   25  N   UNL     1      43.968 -17.127   5.855  1.00  0.00    -0.277 N 
HETATM   26  H   UNL     1      44.253 -17.198   6.825  1.00  0.00     0.189 HD
HETATM   27  N   UNL     1      43.600 -15.924   5.384  1.00  0.00    -0.168 NA
ENDBRANCH   1  17
TORSDOF 5
ENDMDL
MODEL 2
REMARK VINA RESULT:      -8.1      2.870      3.302
REMARK  5 active torsions:
REMARK  status: ('A' for Active; 'I' for Inactive)
REMARK    1  A    between atoms: C_9  and  C_10 
REMARK       I    between atoms: C_10  and  N_11 
REMARK    2  A    between atoms: N_11  and  C_12 
REMARK    3  A    between atoms: C_12  and  C_13 
REMARK    4  A    between atoms: C_12  and  C_16 
REMARK    5  A    between atoms: C_19  and  O_20 
ROOT
HETATM    1  C   UNL     1      43.145 -15.444   4.378  1.00  0.00     0.273 C 
HETATM    2  N   UNL     1      42.700 -14.454   5.218  1.00  0.00    -0.346 N 
HETATM    3  O   UNL     1      43.333 -15.288   3.175  1.00  0.00    -0.266 OA
HETATM    4  H   UNL     1      42.613 -14.716   6.194  1.00  0.00     0.163 HD
ENDROOT
BRANCH   2   5
HETATM    5  C   UNL     1      42.464 -13.094   4.807  1.00  0.00     0.122 C 
BRANCH   5   6
HETATM    6  C   UNL     1      40.997 -12.806   4.577  1.00  0.00     0.013 A 
HETATM    7  C   UNL     1      40.538 -12.015   3.372  1.00  0.00     0.007 A 
HETATM    8  C   UNL     1      40.162 -13.465   3.499  1.00  0.00     0.007 A 
ENDBRANCH   5   6
BRANCH   5   9
HETATM    9  C   UNL     1      43.038 -12.146   5.849  1.00  0.00    -0.035 A 
HETATM   10  C   UNL     1      44.293 -12.407   6.417  1.00  0.00     0.012 A 
HETATM   11  C   UNL     1      44.820 -11.562   7.397  1.00  0.00     0.037 A 
HETATM   12  C   UNL     1      44.105 -10.447   7.837  1.00  0.00     0.068 A 
HETATM   13  C   UNL     1      42.853 -10.179   7.283  1.00  0.00     0.037 A 
HETATM   14  C   UNL     1      42.324 -11.023   6.300  1.00  0.00     0.012 A 
BRANCH  12  15
HETATM   15  O   UNL     1      44.733  -9.708   8.801  1.00  0.00    -0.356 OA
HETATM   16  C   UNL     1      45.890  -8.984   8.403  1.00  0.00     0.210 C 
ENDBRANCH  12  15
ENDBRANCH   5   9
ENDBRANCH   2   5
BRANCH   1  17
HETATM   17  C   UNL     1      43.383 -16.718   5.079  1.00  0.00     0.157 A 
HETATM   18  C   UNL     1      43.542 -18.011   4.499  1.00  0.00     0.029 A 
HETATM   19  C   UNL     1      43.532 -18.549   3.196  1.00  0.00     0.023 A 
HETATM   20  C   UNL     1      43.760 -18.865   5.573  1.00  0.00     0.063 A 
HETATM   21  C   UNL     1      43.739 -19.927   3.014  1.00  0.00    -0.061 A 
HETATM   22  C   UNL     1      43.740 -20.520   1.634  1.00  0.00     0.048 C 
HETATM   23  C   UNL     1      43.960 -20.751   4.125  1.00  0.00     0.009 A 
HETATM   24  C   UNL     1      43.974 -20.238   5.428  1.00  0.00     0.032 A 
HETATM   25  N   UNL     1      43.716 -18.067   6.682  1.00  0.00    -0.277 N 
HETATM   26  H   UNL     1      43.837 -18.354   7.647  1.00  0.00     0.189 HD
HETATM   27  N   UNL     1      43.487 -16.768   6.427  1.00  0.00    -0.168 NA
ENDBRANCH   1  17
TORSDOF 5
ENDMDL
MODEL 3
REMARK VINA RESULT:      -7.9      2.448      4.460
REMARK  5 active torsions:
REMARK  status: ('A' for Active; 'I' for Inactive)
REMARK    1  A    between atoms: C_9  and  C_10 
REMARK       I    between atoms: C_10  and  N_11 
REMARK    2  A    between atoms: N_11  and  C_12 
REMARK    3  A    between atoms: C_12  and  C_13 
REMARK    4  A    between atoms: C_12  and  C_16 
REMARK    5  A    between atoms: C_19  and  O_20 
ROOT
HETATM    1  C   UNL     1      43.006 -14.888   3.228  1.00  0.00     0.273 C 
HETATM    2  N   UNL     1      41.862 -14.224   3.596  1.00  0.00    -0.346 N 
HETATM    3  O   UNL     1      43.681 -14.596   2.245  1.00  0.00    -0.266 OA
HETATM    4  H   UNL     1      41.418 -14.557   4.445  1.00  0.00     0.163 HD
ENDROOT
BRANCH   2   5
HETATM    5  C   UNL     1      41.352 -13.060   2.919  1.00  0.00     0.122 C 
BRANCH   5   6
HETATM    6  C   UNL     1      42.355 -11.927   2.881  1.00  0.00     0.013 A 
HETATM    7  C   UNL     1      41.947 -10.513   3.228  1.00  0.00     0.007 A 
HETATM    8  C   UNL     1      42.915 -11.248   4.114  1.00  0.00     0.007 A 
ENDBRANCH   5   6
BRANCH   5   9
HETATM    9  C   UNL     1      40.926 -13.443   1.510  1.00  0.00    -0.035 A 
HETATM   10  C   UNL     1      41.145 -12.555   0.448  1.00  0.00     0.012 A 
HETATM   11  C   UNL     1      40.733 -12.880  -0.847  1.00  0.00     0.037 A 
HETATM   12  C   UNL     1      40.086 -14.090  -1.107  1.00  0.00     0.068 A 
HETATM   13  C   UNL     1      39.857 -14.978  -0.058  1.00  0.00     0.037 A 
HETATM   14  C   UNL     1      40.272 -14.656   1.240  1.00  0.00     0.012 A 
BRANCH  12  15
HETATM   15  O   UNL     1      39.731 -14.279  -2.415  1.00  0.00    -0.356 OA
HETATM   16  C   UNL     1      38.654 -15.172  -2.665  1.00  0.00     0.210 C 
ENDBRANCH  12  15
ENDBRANCH   5   9
ENDBRANCH   2   5
BRANCH   1  17
HETATM   17  C   UNL     1      43.342 -15.990   4.146  1.00  0.00     0.157 A 
HETATM   18  C   UNL     1      43.487 -17.372   3.826  1.00  0.00     0.029 A 
HETATM   19  C   UNL     1      43.377 -18.164   2.665  1.00  0.00     0.023 A 
HETATM   20  C   UNL     1      43.824 -17.988   5.025  1.00  0.00     0.063 A 
HETATM   21  C   UNL     1      43.608 -19.548   2.746  1.00  0.00    -0.061 A 
HETATM   22  C   UNL     1      43.504 -20.410   1.520  1.00  0.00     0.048 C 
HETATM   23  C   UNL     1      43.951 -20.127   3.974  1.00  0.00     0.009 A 
HETATM   24  C   UNL     1      44.065 -19.359   5.140  1.00  0.00     0.032 A 
HETATM   25  N   UNL     1      43.855 -16.982   5.950  1.00  0.00    -0.277 N 
HETATM   26  H   UNL     1      44.070 -17.065   6.937  1.00  0.00     0.189 HD
HETATM   27  N   UNL     1      43.566 -15.764   5.461  1.00  0.00    -0.168 NA
ENDBRANCH   1  17
TORSDOF 5
ENDMDL
MODEL 4
REMARK VINA RESULT:      -7.9      4.037      8.008
REMARK  5 active torsions:
REMARK  status: ('A' for Active; 'I' for Inactive)
REMARK    1  A    between atoms: C_9  and  C_10 
REMARK       I    between atoms: C_10  and  N_11 
REMARK    2  A    between atoms: N_11  and  C_12 
REMARK    3  A    between atoms: C_12  and  C_13 
REMARK    4  A    between atoms: C_12  and  C_16 
REMARK    5  A    between atoms: C_19  and  O_20 
ROOT
HETATM    1  C   UNL     1      42.969 -12.439   5.969  1.00  0.00     0.273 C 
HETATM    2  N   UNL     1      43.237 -13.677   5.441  1.00  0.00    -0.346 N 
HETATM    3  O   UNL     1      41.835 -12.010   6.167  1.00  0.00    -0.266 OA
HETATM    4  H   UNL     1      44.220 -13.911   5.354  1.00  0.00     0.163 HD
ENDROOT
BRANCH   2   5
HETATM    5  C   UNL     1      42.228 -14.652   5.118  1.00  0.00     0.122 C 
BRANCH   5   6
HETATM    6  C   UNL     1      41.603 -14.410   3.761  1.00  0.00     0.013 A 
HETATM    7  C   UNL     1      40.472 -15.280   3.258  1.00  0.00     0.007 A 
HETATM    8  C   UNL     1      40.220 -13.828   3.556  1.00  0.00     0.007 A 
ENDBRANCH   5   6
BRANCH   5   9
HETATM    9  C   UNL     1      42.833 -16.045   5.187  1.00  0.00    -0.035 A 
HETATM   10  C   UNL     1      43.506 -16.571   4.075  1.00  0.00     0.012 A 
HETATM   11  C   UNL     1      44.042 -17.861   4.113  1.00  0.00     0.037 A 
HETATM   12  C   UNL     1      43.910 -18.655   5.253  1.00  0.00     0.068 A 
HETATM   13  C   UNL     1      43.238 -18.146   6.363  1.00  0.00     0.037 A 
HETATM   14  C   UNL     1      42.703 -16.853   6.329  1.00  0.00     0.012 A 
BRANCH  12  15
HETATM   15  O   UNL     1      44.476 -19.897   5.154  1.00  0.00    -0.356 OA
HETATM   16  C   UNL     1      43.931 -20.774   4.176  1.00  0.00     0.210 C 
ENDBRANCH  12  15
ENDBRANCH   5   9
ENDBRANCH   2   5
BRANCH   1  17
HETATM   17  C   UNL     1      44.191 -11.679   6.283  1.00  0.00     0.157 A 
HETATM   18  C   UNL     1      44.499 -10.993   7.495  1.00  0.00     0.029 A 
HETATM   19  C   UNL     1      43.856 -10.773   8.730  1.00  0.00     0.023 A 
HETATM   20  C   UNL     1      45.766 -10.458   7.296  1.00  0.00     0.063 A 
HETATM   21  C   UNL     1      44.505 -10.020   9.724  1.00  0.00    -0.061 A 
HETATM   22  C   UNL     1      43.842  -9.779  11.050  1.00  0.00     0.048 C 
HETATM   23  C   UNL     1      45.784  -9.503   9.483  1.00  0.00     0.009 A 
HETATM   24  C   UNL     1      46.441  -9.710   8.264  1.00  0.00     0.032 A 
HETATM   25  N   UNL     1      46.122 -10.835   6.031  1.00  0.00    -0.277 N 
HETATM   26  H   UNL     1      46.988 -10.623   5.551  1.00  0.00     0.189 HD
HETATM   27  N   UNL     1      45.198 -11.569   5.387  1.00  0.00    -0.168 NA
ENDBRANCH   1  17
TORSDOF 5
ENDMDL
MODEL 5
REMARK VINA RESULT:      -7.8      3.254      6.842
REMARK  5 active torsions:
REMARK  status: ('A' for Active; 'I' for Inactive)
REMARK    1  A    between atoms: C_9  and  C_10 
REMARK       I    between atoms: C_10  and  N_11 
REMARK    2  A    between atoms: N_11  and  C_12 
REMARK    3  A    between atoms: C_12  and  C_13 
REMARK    4  A    between atoms: C_12  and  C_16 
REMARK    5  A    between atoms: C_19  and  O_20 
ROOT
HETATM    1  C   UNL     1      40.292 -14.828   1.178  1.00  0.00     0.273 C 
HETATM    2  N   UNL     1      41.604 -15.196   1.347  1.00  0.00    -0.346 N 
HETATM    3  O   UNL     1      39.447 -14.878   2.067  1.00  0.00    -0.266 OA
HETATM    4  H   UNL     1      42.198 -15.079   0.533  1.00  0.00     0.163 HD
ENDROOT
BRANCH   2   5
HETATM    5  C   UNL     1      42.167 -15.620   2.602  1.00  0.00     0.122 C 
BRANCH   5   6
HETATM    6  C   UNL     1      43.254 -16.658   2.426  1.00  0.00     0.013 A 
HETATM    7  C   UNL     1      43.638 -17.585   3.559  1.00  0.00     0.007 A 
HETATM    8  C   UNL     1      42.996 -18.147   2.321  1.00  0.00     0.007 A 
ENDBRANCH   5   6
BRANCH   5   9
HETATM    9  C   UNL     1      42.701 -14.409   3.350  1.00  0.00    -0.035 A 
HETATM   10  C   UNL     1      42.679 -14.386   4.752  1.00  0.00     0.012 A 
HETATM   11  C   UNL     1      43.139 -13.269   5.452  1.00  0.00     0.037 A 
HETATM   12  C   UNL     1      43.622 -12.149   4.773  1.00  0.00     0.068 A 
HETATM   13  C   UNL     1      43.645 -12.157   3.379  1.00  0.00     0.037 A 
HETATM   14  C   UNL     1      43.186 -13.277   2.674  1.00  0.00     0.012 A 
BRANCH  12  15
HETATM   15  O   UNL     1      44.036 -11.125   5.579  1.00  0.00    -0.356 OA
HETATM   16  C   UNL     1      45.114 -11.400   6.464  1.00  0.00     0.210 C 
ENDBRANCH  12  15
ENDBRANCH   5   9
ENDBRANCH   2   5
BRANCH   1  17
HETATM   17  C   UNL     1      40.007 -14.355  -0.187  1.00  0.00     0.157 A 
HETATM   18  C   UNL     1      40.345 -13.092  -0.757  1.00  0.00     0.029 A 
HETATM   19  C   UNL     1      40.995 -11.920  -0.318  1.00  0.00     0.023 A 
HETATM   20  C   UNL     1      39.878 -13.147  -2.064  1.00  0.00     0.063 A 
HETATM   21  C   UNL     1      41.152 -10.842  -1.205  1.00  0.00    -0.061 A 
HETATM   22  C   UNL     1      41.848  -9.587  -0.761  1.00  0.00     0.048 C 
HETATM   23  C   UNL     1      40.670 -10.942  -2.516  1.00  0.00     0.009 A 
HETATM   24  C   UNL     1      40.021 -12.095  -2.973  1.00  0.00     0.032 A 
HETATM   25  N   UNL     1      39.308 -14.383  -2.191  1.00  0.00    -0.277 N 
HETATM   26  H   UNL     1      38.866 -14.770  -3.016  1.00  0.00     0.189 HD
HETATM   27  N   UNL     1      39.363 -15.140  -1.082  1.00  0.00    -0.168 NA
ENDBRANCH   1  17
TORSDOF 5
ENDMDL
MODEL 6
REMARK VINA RESULT:      -7.8      3.111      6.487
REMARK  5 active torsions:
REMARK  status: ('A' for Active; 'I' for Inactive)
REMARK    1  A    between atoms: C_9  and  C_10 
REMARK       I    between atoms: C_10  and  N_11 
REMARK    2  A    between atoms: N_11  and  C_12 
REMARK    3  A    between atoms: C_12  and  C_13 
REMARK    4  A    between atoms: C_12  and  C_16 
REMARK    5  A    between atoms: C_19  and  O_20 
ROOT
HETATM    1  C   UNL     1      40.802 -14.173   1.897  1.00  0.00     0.273 C 
HETATM    2  N   UNL     1      42.058 -14.349   2.421  1.00  0.00    -0.346 N 
HETATM    3  O   UNL     1      39.809 -14.789   2.273  1.00  0.00    -0.266 OA
HETATM    4  H   UNL     1      42.782 -13.755   2.032  1.00  0.00     0.163 HD
ENDROOT
BRANCH   2   5
HETATM    5  C   UNL     1      42.355 -15.226   3.524  1.00  0.00     0.122 C 
BRANCH   5   6
HETATM    6  C   UNL     1      43.384 -16.276   3.167  1.00  0.00     0.013 A 
HETATM    7  C   UNL     1      43.277 -17.687   3.704  1.00  0.00     0.007 A 
HETATM    8  C   UNL     1      43.121 -17.437   2.230  1.00  0.00     0.007 A 
ENDBRANCH   5   6
BRANCH   5   9
HETATM    9  C   UNL     1      42.825 -14.401   4.712  1.00  0.00    -0.035 A 
HETATM   10  C   UNL     1      43.102 -13.036   4.550  1.00  0.00     0.012 A 
HETATM   11  C   UNL     1      43.562 -12.272   5.625  1.00  0.00     0.037 A 
HETATM   12  C   UNL     1      43.764 -12.851   6.879  1.00  0.00     0.068 A 
HETATM   13  C   UNL     1      43.497 -14.208   7.051  1.00  0.00     0.037 A 
HETATM   14  C   UNL     1      43.033 -14.977   5.976  1.00  0.00     0.012 A 
BRANCH  12  15
HETATM   15  O   UNL     1      44.221 -11.992   7.840  1.00  0.00    -0.356 OA
HETATM   16  C   UNL     1      45.337 -11.180   7.497  1.00  0.00     0.210 C 
ENDBRANCH  12  15
ENDBRANCH   5   9
ENDBRANCH   2   5
BRANCH   1  17
HETATM   17  C   UNL     1      40.770 -13.154   0.833  1.00  0.00     0.157 A 
HETATM   18  C   UNL     1      40.198 -13.275  -0.468  1.00  0.00     0.029 A 
HETATM   19  C   UNL     1      39.524 -14.280  -1.193  1.00  0.00     0.023 A 
HETATM   20  C   UNL     1      40.412 -12.043  -1.074  1.00  0.00     0.063 A 
HETATM   21  C   UNL     1      39.088 -14.015  -2.502  1.00  0.00    -0.061 A 
HETATM   22  C   UNL     1      38.362 -15.067  -3.290  1.00  0.00     0.048 C 
HETATM   23  C   UNL     1      39.320 -12.756  -3.072  1.00  0.00     0.009 A 
HETATM   24  C   UNL     1      39.988 -11.745  -2.371  1.00  0.00     0.032 A 
HETATM   25  N   UNL     1      41.073 -11.294  -0.142  1.00  0.00    -0.277 N 
HETATM   26  H   UNL     1      41.389 -10.336  -0.240  1.00  0.00     0.189 HD
HETATM   27  N   UNL     1      41.311 -11.928   1.019  1.00  0.00    -0.168 NA
ENDBRANCH   1  17
TORSDOF 5
ENDMDL
MODEL 7
REMARK VINA RESULT:      -7.8      2.529      7.675
REMARK  5 active torsions:
REMARK  status: ('A' for Active; 'I' for Inactive)
REMARK    1  A    between atoms: C_9  and  C_10 
REMARK       I    between atoms: C_10  and  N_11 
REMARK    2  A    between atoms: N_11  and  C_12 
REMARK    3  A    between atoms: C_12  and  C_13 
REMARK    4  A    between atoms: C_12  and  C_16 
REMARK    5  A    between atoms: C_19  and  O_20 
ROOT
HETATM    1  C   UNL     1      41.423 -13.982   1.652  1.00  0.00     0.273 C 
HETATM    2  N   UNL     1      41.293 -14.905   2.659  1.00  0.00    -0.346 N 
HETATM    3  O   UNL     1      42.191 -13.025   1.695  1.00  0.00    -0.266 OA
HETATM    4  H   UNL     1      40.638 -15.658   2.480  1.00  0.00     0.163 HD
ENDROOT
BRANCH   2   5
HETATM    5  C   UNL     1      42.089 -14.906   3.859  1.00  0.00     0.122 C 
BRANCH   5   6
HETATM    6  C   UNL     1      41.276 -14.573   5.092  1.00  0.00     0.013 A 
HETATM    7  C   UNL     1      41.708 -13.473   6.037  1.00  0.00     0.007 A 
HETATM    8  C   UNL     1      40.440 -13.319   5.244  1.00  0.00     0.007 A 
ENDBRANCH   5   6
BRANCH   5   9
HETATM    9  C   UNL     1      42.765 -16.259   4.015  1.00  0.00    -0.035 A 
HETATM   10  C   UNL     1      43.231 -16.667   5.273  1.00  0.00     0.012 A 
HETATM   11  C   UNL     1      43.880 -17.895   5.426  1.00  0.00     0.037 A 
HETATM   12  C   UNL     1      44.087 -18.734   4.330  1.00  0.00     0.068 A 
HETATM   13  C   UNL     1      43.634 -18.337   3.074  1.00  0.00     0.037 A 
HETATM   14  C   UNL     1      42.981 -17.108   2.918  1.00  0.00     0.012 A 
BRANCH  12  15
HETATM   15  O   UNL     1      44.739 -19.902   4.619  1.00  0.00    -0.356 OA
HETATM   16  C   UNL     1      44.013 -20.877   5.356  1.00  0.00     0.210 C 
ENDBRANCH  12  15
ENDBRANCH   5   9
ENDBRANCH   2   5
BRANCH   1  17
HETATM   17  C   UNL     1      40.545 -14.268   0.504  1.00  0.00     0.157 A 
HETATM   18  C   UNL     1      40.335 -13.458  -0.651  1.00  0.00     0.029 A 
HETATM   19  C   UNL     1      40.803 -12.212  -1.118  1.00  0.00     0.023 A 
HETATM   20  C   UNL     1      39.441 -14.173  -1.437  1.00  0.00     0.063 A 
HETATM   21  C   UNL     1      40.356 -11.725  -2.358  1.00  0.00    -0.061 A 
HETATM   22  C   UNL     1      40.847 -10.405  -2.879  1.00  0.00     0.048 C 
HETATM   23  C   UNL     1      39.457 -12.482  -3.121  1.00  0.00     0.009 A 
HETATM   24  C   UNL     1      38.980 -13.721  -2.676  1.00  0.00     0.032 A 
HETATM   25  N   UNL     1      39.177 -15.315  -0.734  1.00  0.00    -0.277 N 
HETATM   26  H   UNL     1      38.564 -16.074  -1.008  1.00  0.00     0.189 HD
HETATM   27  N   UNL     1      39.820 -15.408   0.442  1.00  0.00    -0.168 NA
ENDBRANCH   1  17
TORSDOF 5
ENDMDL
MODEL 8
REMARK VINA RESULT:      -7.6      2.650      7.571
REMARK  5 active torsions:
REMARK  status: ('A' for Active; 'I' for Inactive)
REMARK    1  A    between atoms: C_9  and  C_10 
REMARK       I    between atoms: C_10  and  N_11 
REMARK    2  A    between atoms: N_11  and  C_12 
REMARK    3  A    between atoms: C_12  and  C_13 
REMARK    4  A    between atoms: C_12  and  C_16 
REMARK    5  A    between atoms: C_19  and  O_20 
ROOT
HETATM    1  C   UNL     1      40.700 -13.719   2.277  1.00  0.00     0.273 C 
HETATM    2  N   UNL     1      41.907 -13.999   2.866  1.00  0.00    -0.346 N 
HETATM    3  O   UNL     1      39.623 -14.141   2.687  1.00  0.00    -0.266 OA
HETATM    4  H   UNL     1      42.715 -13.563   2.435  1.00  0.00     0.163 HD
ENDROOT
BRANCH   2   5
HETATM    5  C   UNL     1      42.055 -14.762   4.078  1.00  0.00     0.122 C 
BRANCH   5   6
HETATM    6  C   UNL     1      40.752 -14.902   4.836  1.00  0.00     0.013 A 
HETATM    7  C   UNL     1      40.667 -15.738   6.094  1.00  0.00     0.007 A 
HETATM    8  C   UNL     1      40.475 -14.248   6.174  1.00  0.00     0.007 A 
ENDBRANCH   5   6
BRANCH   5   9
HETATM    9  C   UNL     1      42.627 -16.131   3.746  1.00  0.00    -0.035 A 
HETATM   10  C   UNL     1      42.191 -16.812   2.600  1.00  0.00     0.012 A 
HETATM   11  C   UNL     1      42.687 -18.083   2.297  1.00  0.00     0.037 A 
HETATM   12  C   UNL     1      43.618 -18.704   3.131  1.00  0.00     0.068 A 
HETATM   13  C   UNL     1      44.055 -18.039   4.276  1.00  0.00     0.037 A 
HETATM   14  C   UNL     1      43.562 -16.765   4.581  1.00  0.00     0.012 A 
BRANCH  12  15
HETATM   15  O   UNL     1      44.015 -19.947   2.721  1.00  0.00    -0.356 OA
HETATM   16  C   UNL     1      43.953 -20.991   3.683  1.00  0.00     0.210 C 
ENDBRANCH  12  15
ENDBRANCH   5   9
ENDBRANCH   2   5
BRANCH   1  17
HETATM   17  C   UNL     1      40.834 -12.847   1.097  1.00  0.00     0.157 A 
HETATM   18  C   UNL     1      40.376 -13.106  -0.229  1.00  0.00     0.029 A 
HETATM   19  C   UNL     1      39.706 -14.157  -0.887  1.00  0.00     0.023 A 
HETATM   20  C   UNL     1      40.726 -11.977  -0.959  1.00  0.00     0.063 A 
HETATM   21  C   UNL     1      39.410 -14.042  -2.256  1.00  0.00    -0.061 A 
HETATM   22  C   UNL     1      38.690 -15.146  -2.974  1.00  0.00     0.048 C 
HETATM   23  C   UNL     1      39.777 -12.883  -2.952  1.00  0.00     0.009 A 
HETATM   24  C   UNL     1      40.444 -11.827  -2.320  1.00  0.00     0.032 A 
HETATM   25  N   UNL     1      41.349 -11.150  -0.067  1.00  0.00    -0.277 N 
HETATM   26  H   UNL     1      41.736 -10.231  -0.252  1.00  0.00     0.189 HD
HETATM   27  N   UNL     1      41.437 -11.639   1.182  1.00  0.00    -0.168 NA
ENDBRANCH   1  17
TORSDOF 5
ENDMDL
MODEL 9
REMARK VINA RESULT:      -7.6      2.559      7.187
REMARK  5 active torsions:
REMARK  status: ('A' for Active; 'I' for Inactive)
REMARK    1  A    between atoms: C_9  and  C_10 
REMARK       I    between atoms: C_10  and  N_11 
REMARK    2  A    between atoms: N_11  and  C_12 
REMARK    3  A    between atoms: C_12  and  C_13 
REMARK    4  A    between atoms: C_12  and  C_16 
REMARK    5  A    between atoms: C_19  and  O_20 
ROOT
HETATM    1  C   UNL     1      43.017 -12.795   4.284  1.00  0.00     0.273 C 
HETATM    2  N   UNL     1      42.429 -14.030   4.396  1.00  0.00    -0.346 N 
HETATM    3  O   UNL     1      43.895 -12.383   5.037  1.00  0.00    -0.266 OA
HETATM    4  H   UNL     1      41.734 -14.249   3.690  1.00  0.00     0.163 HD
ENDROOT
BRANCH   2   5
HETATM    5  C   UNL     1      42.816 -15.022   5.365  1.00  0.00     0.122 C 
BRANCH   5   6
HETATM    6  C   UNL     1      41.709 -15.332   6.349  1.00  0.00     0.013 A 
HETATM    7  C   UNL     1      40.402 -14.570   6.317  1.00  0.00     0.007 A 
HETATM    8  C   UNL     1      40.419 -16.036   5.980  1.00  0.00     0.007 A 
ENDBRANCH   5   6
BRANCH   5   9
HETATM    9  C   UNL     1      43.259 -16.286   4.644  1.00  0.00    -0.035 A 
HETATM   10  C   UNL     1      42.984 -16.444   3.278  1.00  0.00     0.012 A 
HETATM   11  C   UNL     1      43.358 -17.612   2.608  1.00  0.00     0.037 A 
HETATM   12  C   UNL     1      44.004 -18.648   3.286  1.00  0.00     0.068 A 
HETATM   13  C   UNL     1      44.277 -18.505   4.645  1.00  0.00     0.037 A 
HETATM   14  C   UNL     1      43.906 -17.334   5.318  1.00  0.00     0.012 A 
BRANCH  12  15
HETATM   15  O   UNL     1      44.309 -19.735   2.513  1.00  0.00    -0.356 OA
HETATM   16  C   UNL     1      43.233 -20.350   1.818  1.00  0.00     0.210 C 
ENDBRANCH  12  15
ENDBRANCH   5   9
ENDBRANCH   2   5
BRANCH   1  17
HETATM   17  C   UNL     1      42.486 -12.015   3.153  1.00  0.00     0.157 A 
HETATM   18  C   UNL     1      41.707 -12.494   2.058  1.00  0.00     0.029 A 
HETATM   19  C   UNL     1      41.193 -13.740   1.644  1.00  0.00     0.023 A 
HETATM   20  C   UNL     1      41.444 -11.372   1.282  1.00  0.00     0.063 A 
HETATM   21  C   UNL     1      40.435 -13.819   0.464  1.00  0.00    -0.061 A 
HETATM   22  C   UNL     1      39.873 -15.135   0.008  1.00  0.00     0.048 C 
HETATM   23  C   UNL     1      40.191 -12.661  -0.286  1.00  0.00     0.009 A 
HETATM   24  C   UNL     1      40.691 -11.414   0.106  1.00  0.00     0.032 A 
HETATM   25  N   UNL     1      42.059 -10.336   1.928  1.00  0.00    -0.277 N 
HETATM   26  H   UNL     1      42.074  -9.363   1.645  1.00  0.00     0.189 HD
HETATM   27  N   UNL     1      42.700 -10.682   3.057  1.00  0.00    -0.168 NA
ENDBRANCH   1  17
TORSDOF 5
ENDMDL
MODEL 10
REMARK VINA RESULT:      -7.4      4.523      6.554
REMARK  5 active torsions:
REMARK  status: ('A' for Active; 'I' for Inactive)
REMARK    1  A    between atoms: C_9  and  C_10 
REMARK       I    between atoms: C_10  and  N_11 
REMARK    2  A    between atoms: N_11  and  C_12 
REMARK    3  A    between atoms: C_12  and  C_13 
REMARK    4  A    between atoms: C_12  and  C_16 
REMARK    5  A    between atoms: C_19  and  O_20 
ROOT
HETATM    1  C   UNL     1      43.830 -12.310   6.719  1.00  0.00     0.273 C 
HETATM    2  N   UNL     1      43.385 -11.549   7.772  1.00  0.00    -0.346 N 
HETATM    3  O   UNL     1      45.011 -12.412   6.399  1.00  0.00    -0.266 OA
HETATM    4  H   UNL     1      42.385 -11.575   7.938  1.00  0.00     0.163 HD
ENDROOT
BRANCH   2   5
HETATM    5  C   UNL     1      44.252 -10.833   8.672  1.00  0.00     0.122 C 
BRANCH   5   6
HETATM    6  C   UNL     1      44.900  -9.632   8.018  1.00  0.00     0.013 A 
HETATM    7  C   UNL     1      45.606  -8.580   8.845  1.00  0.00     0.007 A 
HETATM    8  C   UNL     1      46.397  -9.437   7.896  1.00  0.00     0.007 A 
ENDBRANCH   5   6
BRANCH   5   9
HETATM    9  C   UNL     1      43.464 -10.411   9.902  1.00  0.00    -0.035 A 
HETATM   10  C   UNL     1      43.881 -10.825  11.175  1.00  0.00     0.012 A 
HETATM   11  C   UNL     1      43.151 -10.469  12.312  1.00  0.00     0.037 A 
HETATM   12  C   UNL     1      41.988  -9.704  12.204  1.00  0.00     0.068 A 
HETATM   13  C   UNL     1      41.561  -9.291  10.943  1.00  0.00     0.037 A 
HETATM   14  C   UNL     1      42.292  -9.644   9.802  1.00  0.00     0.012 A 
BRANCH  12  15
HETATM   15  O   UNL     1      41.369  -9.432  13.393  1.00  0.00    -0.356 OA
HETATM   16  C   UNL     1      42.074  -8.604  14.309  1.00  0.00     0.210 C 
ENDBRANCH  12  15
ENDBRANCH   5   9
ENDBRANCH   2   5
BRANCH   1  17
HETATM   17  C   UNL     1      42.735 -13.001   6.017  1.00  0.00     0.157 A 
HETATM   18  C   UNL     1      42.700 -14.362   5.591  1.00  0.00     0.029 A 
HETATM   19  C   UNL     1      43.574 -15.466   5.644  1.00  0.00     0.023 A 
HETATM   20  C   UNL     1      41.452 -14.524   5.002  1.00  0.00     0.063 A 
HETATM   21  C   UNL     1      43.168 -16.697   5.101  1.00  0.00    -0.061 A 
HETATM   22  C   UNL     1      44.080 -17.889   5.153  1.00  0.00     0.048 C 
HETATM   23  C   UNL     1      41.899 -16.818   4.520  1.00  0.00     0.009 A 
HETATM   24  C   UNL     1      41.015 -15.734   4.457  1.00  0.00     0.032 A 
HETATM   25  N   UNL     1      40.845 -13.303   5.101  1.00  0.00    -0.277 N 
HETATM   26  H   UNL     1      39.918 -13.053   4.777  1.00  0.00     0.189 HD
HETATM   27  N   UNL     1      41.587 -12.358   5.704  1.00  0.00    -0.168 NA
ENDBRANCH   1  17
TORSDOF 5
ENDMDL
