MODEL 1
REMARK VINA RESULT:      -8.1      0.000      0.000
REMARK  4 active torsions:
REMARK  status: ('A' for Active; 'I' for Inactive)
REMARK    1  A    between atoms: N_2  and  C_3 
REMARK    2  A    between atoms: C_5  and  C_6 
REMARK    3  A    between atoms: C_6  and  C_7 
REMARK    4  A    between atoms: C_13  and  O_14 
ROOT
HETATM    1  C   UNL     1      43.508 -16.819   4.826  1.00  0.00     0.113 A 
HETATM    2  N   UNL     1      42.553 -15.918   4.523  1.00  0.00    -0.223 NA
HETATM    3  C   UNL     1      41.787 -16.120   3.418  1.00  0.00     0.106 A 
HETATM    4  N   UNL     1      41.938 -17.177   2.604  1.00  0.00    -0.347 N 
HETATM    5  H   UNL     1      41.355 -17.284   1.778  1.00  0.00     0.167 HD
HETATM    6  C   UNL     1      42.866 -18.080   2.912  1.00  0.00     0.020 A 
HETATM    7  C   UNL     1      43.668 -17.930   4.030  1.00  0.00     0.005 A 
HETATM    8  C   UNL     1      44.630 -19.070   4.137  1.00  0.00     0.044 C 
HETATM    9  C   UNL     1      43.982 -20.102   3.195  1.00  0.00     0.011 C 
HETATM   10  C   UNL     1      43.200 -19.311   2.134  1.00  0.00     0.058 C 
ENDROOT
BRANCH   3  11
HETATM   11  C   UNL     1      40.759 -15.077   3.076  1.00  0.00     0.085 C 
BRANCH  11  12
HETATM   12  C   UNL     1      40.976 -14.482   1.681  1.00  0.00     0.021 C 
HETATM   13  C   UNL     1      40.945 -12.954   1.660  1.00  0.00     0.181 C 
HETATM   14  O   UNL     1      41.342 -12.473   0.377  1.00  0.00    -0.347 OA
HETATM   15  C   UNL     1      40.629 -12.971  -0.685  1.00  0.00     0.108 A 
HETATM   16  C   UNL     1      39.918 -14.184  -0.571  1.00  0.00    -0.021 A 
HETATM   17  C   UNL     1      40.652 -12.284  -1.909  1.00  0.00     0.102 A 
HETATM   18  C   UNL     1      39.888 -14.961   0.717  1.00  0.00     0.048 C 
HETATM   19  C   UNL     1      39.194 -14.673  -1.668  1.00  0.00     0.010 A 
HETATM   20  C   UNL     1      39.199 -13.984  -2.875  1.00  0.00     0.003 A 
HETATM   21  C   UNL     1      39.928 -12.803  -2.992  1.00  0.00     0.039 A 
BRANCH  17  22
HETATM   22  O   UNL     1      41.297 -11.121  -2.231  1.00  0.00    -0.353 OA
HETATM   23  C   UNL     1      40.567 -10.068  -2.838  1.00  0.00     0.210 C 
ENDBRANCH  17  22
ENDBRANCH  11  12
ENDBRANCH   3  11
BRANCH   1  24
HETATM   24  N   UNL     1      44.271 -16.681   5.980  1.00  0.00    -0.281 NA
HETATM   25  C   UNL     1      43.612 -17.012   7.235  1.00  0.00     0.114 C 
HETATM   26  H   UNL     1      44.735 -15.777   6.027  1.00  0.00     0.128 HD
ENDBRANCH   1  24
TORSDOF 4
ENDMDL
MODEL 2
REMARK VINA RESULT:      -8.0      1.202      1.380
REMARK  4 active torsions:
REMARK  status: ('A' for Active; 'I' for Inactive)
REMARK    1  A    between atoms: N_2  and  C_3 
REMARK    2  A    between atoms: C_5  and  C_6 
REMARK    3  A    between atoms: C_6  and  C_7 
REMARK    4  A    between atoms: C_13  and  O_14 
ROOT
HETATM    1  C   UNL     1      41.936 -16.408   5.409  1.00  0.00     0.113 A 
HETATM    2  N   UNL     1      40.975 -15.884   4.623  1.00  0.00    -0.223 NA
HETATM    3  C   UNL     1      40.997 -16.154   3.291  1.00  0.00     0.106 A 
HETATM    4  N   UNL     1      41.938 -16.919   2.714  1.00  0.00    -0.347 N 
HETATM    5  H   UNL     1      41.928 -17.085   1.710  1.00  0.00     0.167 HD
HETATM    6  C   UNL     1      42.875 -17.456   3.490  1.00  0.00     0.020 A 
HETATM    7  C   UNL     1      42.897 -17.222   4.855  1.00  0.00     0.005 A 
HETATM    8  C   UNL     1      44.054 -17.926   5.487  1.00  0.00     0.044 C 
HETATM    9  C   UNL     1      44.426 -18.941   4.388  1.00  0.00     0.011 C 
HETATM   10  C   UNL     1      44.011 -18.319   3.045  1.00  0.00     0.058 C 
ENDROOT
BRANCH   3  11
HETATM   11  C   UNL     1      39.942 -15.520   2.429  1.00  0.00     0.085 C 
BRANCH  11  12
HETATM   12  C   UNL     1      40.535 -14.551   1.400  1.00  0.00     0.021 C 
HETATM   13  C   UNL     1      40.265 -13.082   1.723  1.00  0.00     0.181 C 
HETATM   14  O   UNL     1      41.005 -12.242   0.838  1.00  0.00    -0.347 OA
HETATM   15  C   UNL     1      40.801 -12.473  -0.499  1.00  0.00     0.108 A 
HETATM   16  C   UNL     1      40.303 -13.713  -0.950  1.00  0.00    -0.021 A 
HETATM   17  C   UNL     1      41.140 -11.475  -1.427  1.00  0.00     0.102 A 
HETATM   18  C   UNL     1      39.949 -14.814   0.011  1.00  0.00     0.048 C 
HETATM   19  C   UNL     1      40.100 -13.927  -2.321  1.00  0.00     0.010 A 
HETATM   20  C   UNL     1      40.417 -12.933  -3.240  1.00  0.00     0.003 A 
HETATM   21  C   UNL     1      40.938 -11.721  -2.793  1.00  0.00     0.039 A 
BRANCH  17  22
HETATM   22  O   UNL     1      41.660 -10.230  -1.200  1.00  0.00    -0.353 OA
HETATM   23  C   UNL     1      40.829  -9.092  -1.363  1.00  0.00     0.210 C 
ENDBRANCH  17  22
ENDBRANCH  11  12
ENDBRANCH   3  11
BRANCH   1  24
HETATM   24  N   UNL     1      41.914 -16.204   6.785  1.00  0.00    -0.281 NA
HETATM   25  C   UNL     1      42.640 -15.044   7.279  1.00  0.00     0.114 C 
HETATM   26  H   UNL     1      42.156 -17.046   7.302  1.00  0.00     0.128 HD
ENDBRANCH   1  24
TORSDOF 4
ENDMDL
MODEL 3
REMARK VINA RESULT:      -8.0      1.169      2.466
REMARK  4 active torsions:
REMARK  status: ('A' for Active; 'I' for Inactive)
REMARK    1  A    between atoms: N_2  and  C_3 
REMARK    2  A    between atoms: C_5  and  C_6 
REMARK    3  A    between atoms: C_6  and  C_7 
REMARK    4  A    between atoms: C_13  and  O_14 
ROOT
HETATM    1  C   UNL     1      42.983 -17.576   3.568  1.00  0.00     0.113 A 
HETATM    2  N   UNL     1      42.040 -17.034   2.773  1.00  0.00    -0.223 NA
HETATM    3  C   UNL     1      41.091 -16.235   3.332  1.00  0.00     0.106 A 
HETATM    4  N   UNL     1      41.044 -15.961   4.646  1.00  0.00    -0.347 N 
HETATM    5  H   UNL     1      40.308 -15.372   5.027  1.00  0.00     0.167 HD
HETATM    6  C   UNL     1      41.987 -16.478   5.430  1.00  0.00     0.020 A 
HETATM    7  C   UNL     1      42.982 -17.291   4.914  1.00  0.00     0.005 A 
HETATM    8  C   UNL     1      43.900 -17.746   6.003  1.00  0.00     0.044 C 
HETATM    9  C   UNL     1      43.563 -16.741   7.121  1.00  0.00     0.011 C 
HETATM   10  C   UNL     1      42.104 -16.307   6.909  1.00  0.00     0.058 C 
ENDROOT
BRANCH   3  11
HETATM   11  C   UNL     1      40.023 -15.680   2.432  1.00  0.00     0.085 C 
BRANCH  11  12
HETATM   12  C   UNL     1      40.583 -14.691   1.404  1.00  0.00     0.021 C 
HETATM   13  C   UNL     1      40.351 -13.228   1.778  1.00  0.00     0.181 C 
HETATM   14  O   UNL     1      41.063 -12.375   0.883  1.00  0.00    -0.347 OA
HETATM   15  C   UNL     1      40.794 -12.566  -0.449  1.00  0.00     0.108 A 
HETATM   16  C   UNL     1      40.256 -13.786  -0.909  1.00  0.00    -0.021 A 
HETATM   17  C   UNL     1      41.106 -11.547  -1.365  1.00  0.00     0.102 A 
HETATM   18  C   UNL     1      39.930 -14.908   0.037  1.00  0.00     0.048 C 
HETATM   19  C   UNL     1      39.988 -13.959  -2.275  1.00  0.00     0.010 A 
HETATM   20  C   UNL     1      40.278 -12.944  -3.180  1.00  0.00     0.003 A 
HETATM   21  C   UNL     1      40.837 -11.753  -2.725  1.00  0.00     0.039 A 
BRANCH  17  22
HETATM   22  O   UNL     1      41.655 -10.316  -1.128  1.00  0.00    -0.353 OA
HETATM   23  C   UNL     1      41.428  -9.267  -2.054  1.00  0.00     0.210 C 
ENDBRANCH  17  22
ENDBRANCH  11  12
ENDBRANCH   3  11
BRANCH   1  24
HETATM   24  N   UNL     1      44.005 -18.349   3.027  1.00  0.00    -0.281 NA
HETATM   25  C   UNL     1      43.629 -19.667   2.538  1.00  0.00     0.114 C 
HETATM   26  H   UNL     1      44.818 -18.393   3.637  1.00  0.00     0.128 HD
ENDBRANCH   1  24
TORSDOF 4
ENDMDL
MODEL 4
REMARK VINA RESULT:      -7.7      5.160      7.452
REMARK  4 active torsions:
REMARK  status: ('A' for Active; 'I' for Inactive)
REMARK    1  A    between atoms: N_2  and  C_3 
REMARK    2  A    between atoms: C_5  and  C_6 
REMARK    3  A    between atoms: C_6  and  C_7 
REMARK    4  A    between atoms: C_13  and  O_14 
ROOT
HETATM    1  C   UNL     1      42.618 -16.197   5.475  1.00  0.00     0.113 A 
HETATM    2  N   UNL     1      42.127 -14.956   5.660  1.00  0.00    -0.223 NA
HETATM    3  C   UNL     1      42.006 -14.131   4.586  1.00  0.00     0.106 A 
HETATM    4  N   UNL     1      42.357 -14.492   3.341  1.00  0.00    -0.347 N 
HETATM    5  H   UNL     1      42.265 -13.839   2.566  1.00  0.00     0.167 HD
HETATM    6  C   UNL     1      42.822 -15.724   3.151  1.00  0.00     0.020 A 
HETATM    7  C   UNL     1      42.958 -16.609   4.207  1.00  0.00     0.005 A 
HETATM    8  C   UNL     1      43.511 -17.913   3.727  1.00  0.00     0.044 C 
HETATM    9  C   UNL     1      43.256 -17.808   2.210  1.00  0.00     0.011 C 
HETATM   10  C   UNL     1      43.277 -16.312   1.856  1.00  0.00     0.058 C 
ENDROOT
BRANCH   3  11
HETATM   11  C   UNL     1      41.500 -12.736   4.826  1.00  0.00     0.085 C 
BRANCH  11  12
HETATM   12  C   UNL     1      42.228 -12.043   5.983  1.00  0.00     0.021 C 
HETATM   13  C   UNL     1      41.784 -10.598   6.202  1.00  0.00     0.181 C 
HETATM   14  O   UNL     1      42.358 -10.086   7.404  1.00  0.00    -0.347 OA
HETATM   15  C   UNL     1      43.725 -10.173   7.486  1.00  0.00     0.108 A 
HETATM   16  C   UNL     1      44.437 -11.103   6.700  1.00  0.00    -0.021 A 
HETATM   17  C   UNL     1      44.410  -9.358   8.401  1.00  0.00     0.102 A 
HETATM   18  C   UNL     1      43.737 -12.009   5.726  1.00  0.00     0.048 C 
HETATM   19  C   UNL     1      45.834 -11.174   6.799  1.00  0.00     0.010 A 
HETATM   20  C   UNL     1      46.517 -10.354   7.690  1.00  0.00     0.003 A 
HETATM   21  C   UNL     1      45.806  -9.459   8.486  1.00  0.00     0.039 A 
BRANCH  17  22
HETATM   22  O   UNL     1      43.908  -8.424   9.266  1.00  0.00    -0.353 OA
HETATM   23  C   UNL     1      43.738  -8.765  10.632  1.00  0.00     0.210 C 
ENDBRANCH  17  22
ENDBRANCH  11  12
ENDBRANCH   3  11
BRANCH   1  24
HETATM   24  N   UNL     1      42.701 -17.091   6.537  1.00  0.00    -0.281 NA
HETATM   25  C   UNL     1      43.840 -16.929   7.430  1.00  0.00     0.114 C 
HETATM   26  H   UNL     1      42.595 -18.056   6.236  1.00  0.00     0.128 HD
ENDBRANCH   1  24
TORSDOF 4
ENDMDL
MODEL 5
REMARK VINA RESULT:      -7.6      3.268      7.886
REMARK  4 active torsions:
REMARK  status: ('A' for Active; 'I' for Inactive)
REMARK    1  A    between atoms: N_2  and  C_3 
REMARK    2  A    between atoms: C_5  and  C_6 
REMARK    3  A    between atoms: C_6  and  C_7 
REMARK    4  A    between atoms: C_13  and  O_14 
ROOT
HETATM    1  C   UNL     1      38.586 -12.132  -0.649  1.00  0.00     0.113 A 
HETATM    2  N   UNL     1      39.645 -12.065   0.181  1.00  0.00    -0.223 NA
HETATM    3  C   UNL     1      40.574 -13.058   0.140  1.00  0.00     0.106 A 
HETATM    4  N   UNL     1      40.486 -14.110  -0.688  1.00  0.00    -0.347 N 
HETATM    5  H   UNL     1      41.195 -14.840  -0.677  1.00  0.00     0.167 HD
HETATM    6  C   UNL     1      39.453 -14.168  -1.524  1.00  0.00     0.020 A 
HETATM    7  C   UNL     1      38.482 -13.182  -1.533  1.00  0.00     0.005 A 
HETATM    8  C   UNL     1      37.432 -13.492  -2.550  1.00  0.00     0.044 C 
HETATM    9  C   UNL     1      38.154 -14.541  -3.418  1.00  0.00     0.011 C 
HETATM   10  C   UNL     1      39.166 -15.255  -2.509  1.00  0.00     0.058 C 
ENDROOT
BRANCH   3  11
HETATM   11  C   UNL     1      41.721 -12.984   1.109  1.00  0.00     0.085 C 
BRANCH  11  12
HETATM   12  C   UNL     1      41.702 -14.133   2.123  1.00  0.00     0.021 C 
HETATM   13  C   UNL     1      41.992 -13.684   3.555  1.00  0.00     0.181 C 
HETATM   14  O   UNL     1      41.767 -14.763   4.461  1.00  0.00    -0.347 OA
HETATM   15  C   UNL     1      42.454 -15.918   4.184  1.00  0.00     0.108 A 
HETATM   16  C   UNL     1      42.941 -16.173   2.884  1.00  0.00    -0.021 A 
HETATM   17  C   UNL     1      42.630 -16.873   5.198  1.00  0.00     0.102 A 
HETATM   18  C   UNL     1      42.754 -15.185   1.766  1.00  0.00     0.048 C 
HETATM   19  C   UNL     1      43.643 -17.359   2.623  1.00  0.00     0.010 A 
HETATM   20  C   UNL     1      43.834 -18.297   3.631  1.00  0.00     0.003 A 
HETATM   21  C   UNL     1      43.325 -18.054   4.905  1.00  0.00     0.039 A 
BRANCH  17  22
HETATM   22  O   UNL     1      42.213 -16.830   6.501  1.00  0.00    -0.353 OA
HETATM   23  C   UNL     1      42.858 -15.950   7.406  1.00  0.00     0.210 C 
ENDBRANCH  17  22
ENDBRANCH  11  12
ENDBRANCH   3  11
BRANCH   1  24
HETATM   24  N   UNL     1      37.646 -11.108  -0.681  1.00  0.00    -0.281 NA
HETATM   25  C   UNL     1      36.996 -10.787   0.582  1.00  0.00     0.114 C 
HETATM   26  H   UNL     1      36.969 -11.230  -1.430  1.00  0.00     0.128 HD
ENDBRANCH   1  24
TORSDOF 4
ENDMDL
MODEL 6
REMARK VINA RESULT:      -7.5      2.675      3.953
REMARK  4 active torsions:
REMARK  status: ('A' for Active; 'I' for Inactive)
REMARK    1  A    between atoms: N_2  and  C_3 
REMARK    2  A    between atoms: C_5  and  C_6 
REMARK    3  A    between atoms: C_6  and  C_7 
REMARK    4  A    between atoms: C_13  and  O_14 
ROOT
HETATM    1  C   UNL     1      43.940 -17.447   4.774  1.00  0.00     0.113 A 
HETATM    2  N   UNL     1      43.614 -16.428   3.954  1.00  0.00    -0.223 NA
HETATM    3  C   UNL     1      43.343 -16.698   2.649  1.00  0.00     0.106 A 
HETATM    4  N   UNL     1      43.387 -17.936   2.131  1.00  0.00    -0.347 N 
HETATM    5  H   UNL     1      43.193 -18.093   1.145  1.00  0.00     0.167 HD
HETATM    6  C   UNL     1      43.688 -18.946   2.943  1.00  0.00     0.020 A 
HETATM    7  C   UNL     1      43.965 -18.732   4.282  1.00  0.00     0.005 A 
HETATM    8  C   UNL     1      44.283 -20.024   4.963  1.00  0.00     0.044 C 
HETATM    9  C   UNL     1      43.723 -21.043   3.951  1.00  0.00     0.011 C 
HETATM   10  C   UNL     1      43.803 -20.387   2.563  1.00  0.00     0.058 C 
ENDROOT
BRANCH   3  11
HETATM   11  C   UNL     1      43.027 -15.539   1.744  1.00  0.00     0.085 C 
BRANCH  11  12
HETATM   12  C   UNL     1      42.167 -14.476   2.437  1.00  0.00     0.021 C 
HETATM   13  C   UNL     1      40.997 -13.991   1.583  1.00  0.00     0.181 C 
HETATM   14  O   UNL     1      40.138 -13.155   2.359  1.00  0.00    -0.347 OA
HETATM   15  C   UNL     1      40.749 -12.088   2.968  1.00  0.00     0.108 A 
HETATM   16  C   UNL     1      42.139 -12.092   3.207  1.00  0.00    -0.021 A 
HETATM   17  C   UNL     1      39.967 -11.004   3.398  1.00  0.00     0.102 A 
HETATM   18  C   UNL     1      43.007 -13.244   2.781  1.00  0.00     0.048 C 
HETATM   19  C   UNL     1      42.744 -10.990   3.828  1.00  0.00     0.010 A 
HETATM   20  C   UNL     1      41.973  -9.907   4.238  1.00  0.00     0.003 A 
HETATM   21  C   UNL     1      40.597  -9.921   4.027  1.00  0.00     0.039 A 
BRANCH  17  22
HETATM   22  O   UNL     1      38.615 -10.822   3.290  1.00  0.00    -0.353 OA
HETATM   23  C   UNL     1      38.079 -10.315   2.080  1.00  0.00     0.210 C 
ENDBRANCH  17  22
ENDBRANCH  11  12
ENDBRANCH   3  11
BRANCH   1  24
HETATM   24  N   UNL     1      44.166 -17.221   6.127  1.00  0.00    -0.281 NA
HETATM   25  C   UNL     1      43.002 -16.869   6.927  1.00  0.00     0.114 C 
HETATM   26  H   UNL     1      44.938 -16.579   6.286  1.00  0.00     0.128 HD
ENDBRANCH   1  24
TORSDOF 4
ENDMDL
MODEL 7
REMARK VINA RESULT:      -7.4      5.170      8.136
REMARK  4 active torsions:
REMARK  status: ('A' for Active; 'I' for Inactive)
REMARK    1  A    between atoms: N_2  and  C_3 
REMARK    2  A    between atoms: C_5  and  C_6 
REMARK    3  A    between atoms: C_6  and  C_7 
REMARK    4  A    between atoms: C_13  and  O_14 
ROOT
HETATM    1  C   UNL     1      42.070 -14.537   1.612  1.00  0.00     0.113 A 
HETATM    2  N   UNL     1      42.375 -13.278   1.982  1.00  0.00    -0.223 NA
HETATM    3  C   UNL     1      43.001 -13.078   3.172  1.00  0.00     0.106 A 
HETATM    4  N   UNL     1      43.330 -14.078   4.006  1.00  0.00    -0.347 N 
HETATM    5  H   UNL     1      43.783 -13.884   4.896  1.00  0.00     0.167 HD
HETATM    6  C   UNL     1      43.048 -15.324   3.634  1.00  0.00     0.020 A 
HETATM    7  C   UNL     1      42.420 -15.588   2.429  1.00  0.00     0.005 A 
HETATM    8  C   UNL     1      42.210 -17.059   2.261  1.00  0.00     0.044 C 
HETATM    9  C   UNL     1      43.188 -17.624   3.310  1.00  0.00     0.011 C 
HETATM   10  C   UNL     1      43.317 -16.567   4.418  1.00  0.00     0.058 C 
ENDROOT
BRANCH   3  11
HETATM   11  C   UNL     1      43.289 -11.661   3.584  1.00  0.00     0.085 C 
BRANCH  11  12
HETATM   12  C   UNL     1      43.203 -11.466   5.101  1.00  0.00     0.021 C 
HETATM   13  C   UNL     1      42.319 -10.290   5.514  1.00  0.00     0.181 C 
HETATM   14  O   UNL     1      42.132 -10.289   6.928  1.00  0.00    -0.347 OA
HETATM   15  C   UNL     1      43.284 -10.294   7.674  1.00  0.00     0.108 A 
HETATM   16  C   UNL     1      44.501 -10.743   7.119  1.00  0.00    -0.021 A 
HETATM   17  C   UNL     1      43.233  -9.889   9.018  1.00  0.00     0.102 A 
HETATM   18  C   UNL     1      44.591 -11.205   5.691  1.00  0.00     0.048 C 
HETATM   19  C   UNL     1      45.667 -10.737   7.898  1.00  0.00     0.010 A 
HETATM   20  C   UNL     1      45.622 -10.319   9.223  1.00  0.00     0.003 A 
HETATM   21  C   UNL     1      44.413  -9.904   9.775  1.00  0.00     0.039 A 
BRANCH  17  22
HETATM   22  O   UNL     1      42.160  -9.452   9.744  1.00  0.00    -0.353 OA
HETATM   23  C   UNL     1      42.147  -9.648  11.148  1.00  0.00     0.210 C 
ENDBRANCH  17  22
ENDBRANCH  11  12
ENDBRANCH   3  11
BRANCH   1  24
HETATM   24  N   UNL     1      41.484 -14.789   0.376  1.00  0.00    -0.281 NA
HETATM   25  C   UNL     1      40.085 -14.412   0.235  1.00  0.00     0.114 C 
HETATM   26  H   UNL     1      41.650 -15.741   0.060  1.00  0.00     0.128 HD
ENDBRANCH   1  24
TORSDOF 4
ENDMDL
MODEL 8
REMARK VINA RESULT:      -7.3      5.893      8.542
REMARK  4 active torsions:
REMARK  status: ('A' for Active; 'I' for Inactive)
REMARK    1  A    between atoms: N_2  and  C_3 
REMARK    2  A    between atoms: C_5  and  C_6 
REMARK    3  A    between atoms: C_6  and  C_7 
REMARK    4  A    between atoms: C_13  and  O_14 
ROOT
HETATM    1  C   UNL     1      41.286 -14.416   4.637  1.00  0.00     0.113 A 
HETATM    2  N   UNL     1      41.673 -13.165   4.953  1.00  0.00    -0.223 NA
HETATM    3  C   UNL     1      42.672 -12.586   4.235  1.00  0.00     0.106 A 
HETATM    4  N   UNL     1      43.299 -13.204   3.221  1.00  0.00    -0.347 N 
HETATM    5  H   UNL     1      44.053 -12.742   2.718  1.00  0.00     0.167 HD
HETATM    6  C   UNL     1      42.905 -14.431   2.892  1.00  0.00     0.020 A 
HETATM    7  C   UNL     1      41.887 -15.066   3.583  1.00  0.00     0.005 A 
HETATM    8  C   UNL     1      41.650 -16.432   3.025  1.00  0.00     0.044 C 
HETATM    9  C   UNL     1      42.353 -16.325   1.658  1.00  0.00     0.011 C 
HETATM   10  C   UNL     1      43.478 -15.290   1.813  1.00  0.00     0.058 C 
ENDROOT
BRANCH   3  11
HETATM   11  C   UNL     1      43.118 -11.208   4.637  1.00  0.00     0.085 C 
BRANCH  11  12
HETATM   12  C   UNL     1      43.001 -10.975   6.147  1.00  0.00     0.021 C 
HETATM   13  C   UNL     1      42.170  -9.745   6.510  1.00  0.00     0.181 C 
HETATM   14  O   UNL     1      41.945  -9.704   7.919  1.00  0.00    -0.347 OA
HETATM   15  C   UNL     1      43.075  -9.753   8.696  1.00  0.00     0.108 A 
HETATM   16  C   UNL     1      44.281 -10.278   8.185  1.00  0.00    -0.021 A 
HETATM   17  C   UNL     1      43.010  -9.317  10.029  1.00  0.00     0.102 A 
HETATM   18  C   UNL     1      44.385 -10.775   6.769  1.00  0.00     0.048 C 
HETATM   19  C   UNL     1      45.424 -10.315   8.996  1.00  0.00     0.010 A 
HETATM   20  C   UNL     1      45.366  -9.866  10.310  1.00  0.00     0.003 A 
HETATM   21  C   UNL     1      44.166  -9.377  10.820  1.00  0.00     0.039 A 
BRANCH  17  22
HETATM   22  O   UNL     1      41.942  -8.808  10.717  1.00  0.00    -0.353 OA
HETATM   23  C   UNL     1      41.687  -7.414  10.669  1.00  0.00     0.210 C 
ENDBRANCH  17  22
ENDBRANCH  11  12
ENDBRANCH   3  11
BRANCH   1  24
HETATM   24  N   UNL     1      40.228 -15.020   5.308  1.00  0.00    -0.281 NA
HETATM   25  C   UNL     1      40.557 -15.705   6.550  1.00  0.00     0.114 C 
HETATM   26  H   UNL     1      39.668 -15.606   4.694  1.00  0.00     0.128 HD
ENDBRANCH   1  24
TORSDOF 4
ENDMDL
MODEL 9
REMARK VINA RESULT:      -7.2      1.740      2.266
REMARK  4 active torsions:
REMARK  status: ('A' for Active; 'I' for Inactive)
REMARK    1  A    between atoms: N_2  and  C_3 
REMARK    2  A    between atoms: C_5  and  C_6 
REMARK    3  A    between atoms: C_6  and  C_7 
REMARK    4  A    between atoms: C_13  and  O_14 
ROOT
HETATM    1  C   UNL     1      42.998 -14.178   6.227  1.00  0.00     0.113 A 
HETATM    2  N   UNL     1      41.971 -13.622   5.554  1.00  0.00    -0.223 NA
HETATM    3  C   UNL     1      41.453 -14.283   4.485  1.00  0.00     0.106 A 
HETATM    4  N   UNL     1      41.919 -15.468   4.060  1.00  0.00    -0.347 N 
HETATM    5  H   UNL     1      41.514 -15.923   3.245  1.00  0.00     0.167 HD
HETATM    6  C   UNL     1      42.918 -16.030   4.735  1.00  0.00     0.020 A 
HETATM    7  C   UNL     1      43.478 -15.407   5.837  1.00  0.00     0.005 A 
HETATM    8  C   UNL     1      44.586 -16.238   6.400  1.00  0.00     0.044 C 
HETATM    9  C   UNL     1      44.293 -17.607   5.754  1.00  0.00     0.011 C 
HETATM   10  C   UNL     1      43.584 -17.329   4.419  1.00  0.00     0.058 C 
ENDROOT
BRANCH   3  11
HETATM   11  C   UNL     1      40.339 -13.620   3.723  1.00  0.00     0.085 C 
BRANCH  11  12
HETATM   12  C   UNL     1      40.709 -13.362   2.258  1.00  0.00     0.021 C 
HETATM   13  C   UNL     1      40.552 -11.900   1.841  1.00  0.00     0.181 C 
HETATM   14  O   UNL     1      41.094 -11.703   0.536  1.00  0.00    -0.347 OA
HETATM   15  C   UNL     1      40.591 -12.526  -0.440  1.00  0.00     0.108 A 
HETATM   16  C   UNL     1      39.976 -13.750  -0.106  1.00  0.00    -0.021 A 
HETATM   17  C   UNL     1      40.737 -12.160  -1.788  1.00  0.00     0.102 A 
HETATM   18  C   UNL     1      39.821 -14.188   1.325  1.00  0.00     0.048 C 
HETATM   19  C   UNL     1      39.467 -14.575  -1.119  1.00  0.00     0.010 A 
HETATM   20  C   UNL     1      39.593 -14.205  -2.453  1.00  0.00     0.003 A 
HETATM   21  C   UNL     1      40.228 -13.009  -2.781  1.00  0.00     0.039 A 
BRANCH  17  22
HETATM   22  O   UNL     1      41.322 -11.042  -2.318  1.00  0.00    -0.353 OA
HETATM   23  C   UNL     1      40.951 -10.615  -3.618  1.00  0.00     0.210 C 
ENDBRANCH  17  22
ENDBRANCH  11  12
ENDBRANCH   3  11
BRANCH   1  24
HETATM   24  N   UNL     1      43.516 -13.563   7.362  1.00  0.00    -0.281 NA
HETATM   25  C   UNL     1      44.117 -12.251   7.169  1.00  0.00     0.114 C 
HETATM   26  H   UNL     1      44.127 -14.181   7.889  1.00  0.00     0.128 HD
ENDBRANCH   1  24
TORSDOF 4
ENDMDL
MODEL 10
REMARK VINA RESULT:      -7.1      3.095      7.732
REMARK  4 active torsions:
REMARK  status: ('A' for Active; 'I' for Inactive)
REMARK    1  A    between atoms: N_2  and  C_3 
REMARK    2  A    between atoms: C_5  and  C_6 
REMARK    3  A    between atoms: C_6  and  C_7 
REMARK    4  A    between atoms: C_13  and  O_14 
ROOT
HETATM    1  C   UNL     1      39.292 -11.879   0.993  1.00  0.00     0.113 A 
HETATM    2  N   UNL     1      39.356 -13.181   1.337  1.00  0.00    -0.223 NA
HETATM    3  C   UNL     1      40.068 -14.033   0.553  1.00  0.00     0.106 A 
HETATM    4  N   UNL     1      40.714 -13.642  -0.557  1.00  0.00    -0.347 N 
HETATM    5  H   UNL     1      41.223 -14.314  -1.126  1.00  0.00     0.167 HD
HETATM    6  C   UNL     1      40.671 -12.354  -0.889  1.00  0.00     0.020 A 
HETATM    7  C   UNL     1      39.968 -11.440  -0.123  1.00  0.00     0.005 A 
HETATM    8  C   UNL     1      40.070 -10.072  -0.719  1.00  0.00     0.044 C 
HETATM    9  C   UNL     1      41.274 -10.244  -1.665  1.00  0.00     0.011 C 
HETATM   10  C   UNL     1      41.305 -11.723  -2.085  1.00  0.00     0.058 C 
ENDROOT
BRANCH   3  11
HETATM   11  C   UNL     1      40.085 -15.487   0.933  1.00  0.00     0.085 C 
BRANCH  11  12
HETATM   12  C   UNL     1      40.776 -15.730   2.279  1.00  0.00     0.021 C 
HETATM   13  C   UNL     1      41.487 -14.494   2.829  1.00  0.00     0.181 C 
HETATM   14  O   UNL     1      41.937 -14.739   4.161  1.00  0.00    -0.347 OA
HETATM   15  C   UNL     1      42.732 -15.847   4.319  1.00  0.00     0.108 A 
HETATM   16  C   UNL     1      42.705 -16.895   3.375  1.00  0.00    -0.021 A 
HETATM   17  C   UNL     1      43.543 -15.952   5.460  1.00  0.00     0.102 A 
HETATM   18  C   UNL     1      41.833 -16.830   2.151  1.00  0.00     0.048 C 
HETATM   19  C   UNL     1      43.528 -18.017   3.555  1.00  0.00     0.010 A 
HETATM   20  C   UNL     1      44.346 -18.113   4.674  1.00  0.00     0.003 A 
HETATM   21  C   UNL     1      44.347 -17.090   5.619  1.00  0.00     0.039 A 
BRANCH  17  22
HETATM   22  O   UNL     1      43.689 -15.070   6.496  1.00  0.00    -0.353 OA
HETATM   23  C   UNL     1      43.001 -15.310   7.712  1.00  0.00     0.210 C 
ENDBRANCH  17  22
ENDBRANCH  11  12
ENDBRANCH   3  11
BRANCH   1  24
HETATM   24  N   UNL     1      38.624 -10.965   1.800  1.00  0.00    -0.281 NA
HETATM   25  C   UNL     1      38.933 -11.013   3.222  1.00  0.00     0.114 C 
HETATM   26  H   UNL     1      37.621 -10.966   1.634  1.00  0.00     0.128 HD
ENDBRANCH   1  24
TORSDOF 4
ENDMDL
