MODEL 1
REMARK VINA RESULT:      -9.1      0.000      0.000
REMARK  6 active torsions:
REMARK  status: ('A' for Active; 'I' for Inactive)
REMARK    1  A    between atoms: C_5  and  C_6 
REMARK    2  A    between atoms: C_6  and  C_7 
REMARK       I    between atoms: C_7  and  N_8 
REMARK    3  A    between atoms: N_8  and  N_9 
REMARK       I    between atoms: N_9  and  C_10 
REMARK    4  A    between atoms: C_10  and  C_11 
REMARK    5  A    between atoms: C_15  and  C_16 
REMARK    6  A    between atoms: C_19  and  O_20 
ROOT
HETATM    1  N   UNL     1      43.544 -11.602   8.511  1.00  0.00    -0.262 N 
HETATM    2  C   UNL     1      43.596 -11.766   7.143  1.00  0.00     0.288 C 
HETATM    3  O   UNL     1      43.763 -10.820   6.377  1.00  0.00    -0.264 OA
HETATM    4  H   UNL     1      43.287 -12.352   9.149  1.00  0.00     0.190 HD
ENDROOT
BRANCH   2   5
HETATM    5  C   UNL     1      43.434 -13.120   6.689  1.00  0.00     0.121 A 
HETATM    6  N   UNL     1      43.153 -14.148   7.543  1.00  0.00    -0.272 N 
HETATM    7  H   UNL     1      43.031 -14.089   8.550  1.00  0.00     0.189 HD
HETATM    8  N   UNL     1      43.024 -15.342   6.945  1.00  0.00    -0.174 NA
HETATM    9  C   UNL     1      43.248 -15.098   5.644  1.00  0.00     0.089 A 
HETATM   10  C   UNL     1      43.502 -13.712   5.443  1.00  0.00     0.071 A 
BRANCH   9  11
HETATM   11  C   UNL     1      43.206 -16.157   4.632  1.00  0.00    -0.005 A 
HETATM   12  C   UNL     1      43.884 -17.366   4.833  1.00  0.00     0.016 A 
HETATM   13  C   UNL     1      43.822 -18.386   3.879  1.00  0.00     0.037 A 
HETATM   14  C   UNL     1      43.084 -18.220   2.705  1.00  0.00     0.068 A 
HETATM   15  C   UNL     1      42.418 -17.016   2.487  1.00  0.00     0.037 A 
HETATM   16  C   UNL     1      42.479 -15.993   3.444  1.00  0.00     0.016 A 
BRANCH  14  17
HETATM   17  O   UNL     1      43.097 -19.295   1.861  1.00  0.00    -0.356 OA
HETATM   18  C   UNL     1      43.799 -20.450   2.303  1.00  0.00     0.210 C 
ENDBRANCH  14  17
ENDBRANCH   9  11
ENDBRANCH   2   5
BRANCH   1  19
HETATM   19  N   UNL     1      43.533 -10.314   9.054  1.00  0.00    -0.267 N 
HETATM   20  C   UNL     1      43.937 -10.175  10.366  1.00  0.00     0.240 C 
HETATM   21  O   UNL     1      44.367 -11.125  11.020  1.00  0.00    -0.272 OA
HETATM   22  H   UNL     1      43.099  -9.575   8.503  1.00  0.00     0.190 HD
BRANCH  20  23
HETATM   23  C   UNL     1      43.835  -8.768  10.915  1.00  0.00     0.143 C 
BRANCH  23  24
HETATM   24  C   UNL     1      43.134  -8.631  12.248  1.00  0.00    -0.049 A 
HETATM   25  C   UNL     1      42.079  -9.459  12.652  1.00  0.00     0.008 A 
HETATM   26  C   UNL     1      41.456  -9.268  13.889  1.00  0.00     0.007 A 
HETATM   27  C   UNL     1      41.858  -8.233  14.739  1.00  0.00    -0.062 A 
HETATM   28  C   UNL     1      41.204  -8.043  16.075  1.00  0.00     0.048 C 
HETATM   29  C   UNL     1      42.912  -7.406  14.343  1.00  0.00     0.007 A 
HETATM   30  C   UNL     1      43.539  -7.599  13.109  1.00  0.00     0.008 A 
ENDBRANCH  23  24
ENDBRANCH  20  23
ENDBRANCH   1  19
TORSDOF 6
ENDMDL
MODEL 2
REMARK VINA RESULT:      -8.8      1.437      1.674
REMARK  6 active torsions:
REMARK  status: ('A' for Active; 'I' for Inactive)
REMARK    1  A    between atoms: C_5  and  C_6 
REMARK    2  A    between atoms: C_6  and  C_7 
REMARK       I    between atoms: C_7  and  N_8 
REMARK    3  A    between atoms: N_8  and  N_9 
REMARK       I    between atoms: N_9  and  C_10 
REMARK    4  A    between atoms: C_10  and  C_11 
REMARK    5  A    between atoms: C_15  and  C_16 
REMARK    6  A    between atoms: C_19  and  O_20 
ROOT
HETATM    1  N   UNL     1      43.327 -11.709   7.478  1.00  0.00    -0.262 N 
HETATM    2  C   UNL     1      42.576 -11.634   6.324  1.00  0.00     0.288 C 
HETATM    3  O   UNL     1      42.128 -10.569   5.903  1.00  0.00    -0.264 OA
HETATM    4  H   UNL     1      43.601 -12.592   7.903  1.00  0.00     0.190 HD
ENDROOT
BRANCH   2   5
HETATM    5  C   UNL     1      42.356 -12.890   5.662  1.00  0.00     0.121 A 
HETATM    6  N   UNL     1      41.116 -13.296   5.258  1.00  0.00    -0.272 N 
HETATM    7  H   UNL     1      40.242 -12.791   5.370  1.00  0.00     0.189 HD
HETATM    8  N   UNL     1      41.099 -14.490   4.646  1.00  0.00    -0.174 NA
HETATM    9  C   UNL     1      42.378 -14.900   4.663  1.00  0.00     0.089 A 
HETATM   10  C   UNL     1      43.198 -13.919   5.287  1.00  0.00     0.071 A 
BRANCH   9  11
HETATM   11  C   UNL     1      42.794 -16.183   4.088  1.00  0.00    -0.005 A 
HETATM   12  C   UNL     1      43.463 -17.133   4.870  1.00  0.00     0.016 A 
HETATM   13  C   UNL     1      43.837 -18.367   4.328  1.00  0.00     0.037 A 
HETATM   14  C   UNL     1      43.553 -18.675   2.995  1.00  0.00     0.068 A 
HETATM   15  C   UNL     1      42.902 -17.731   2.204  1.00  0.00     0.037 A 
HETATM   16  C   UNL     1      42.526 -16.494   2.747  1.00  0.00     0.016 A 
BRANCH  14  17
HETATM   17  O   UNL     1      43.963 -19.916   2.593  1.00  0.00    -0.356 OA
HETATM   18  C   UNL     1      43.910 -20.955   3.562  1.00  0.00     0.210 C 
ENDBRANCH  14  17
ENDBRANCH   9  11
ENDBRANCH   2   5
BRANCH   1  19
HETATM   19  N   UNL     1      43.472 -10.577   8.285  1.00  0.00    -0.267 N 
HETATM   20  C   UNL     1      44.708 -10.358   8.856  1.00  0.00     0.240 C 
HETATM   21  O   UNL     1      45.676 -11.079   8.611  1.00  0.00    -0.272 OA
HETATM   22  H   UNL     1      42.628 -10.056   8.519  1.00  0.00     0.190 HD
BRANCH  20  23
HETATM   23  C   UNL     1      44.780  -9.155   9.773  1.00  0.00     0.143 C 
BRANCH  23  24
HETATM   24  C   UNL     1      43.829  -9.168  10.948  1.00  0.00    -0.049 A 
HETATM   25  C   UNL     1      43.528 -10.321  11.685  1.00  0.00     0.008 A 
HETATM   26  C   UNL     1      42.622 -10.273  12.749  1.00  0.00     0.007 A 
HETATM   27  C   UNL     1      41.980  -9.077  13.086  1.00  0.00    -0.062 A 
HETATM   28  C   UNL     1      41.025  -9.021  14.242  1.00  0.00     0.048 C 
HETATM   29  C   UNL     1      42.278  -7.923  12.357  1.00  0.00     0.007 A 
HETATM   30  C   UNL     1      43.187  -7.969  11.298  1.00  0.00     0.008 A 
ENDBRANCH  23  24
ENDBRANCH  20  23
ENDBRANCH   1  19
TORSDOF 6
ENDMDL
MODEL 3
REMARK VINA RESULT:      -8.4      2.228     10.980
REMARK  6 active torsions:
REMARK  status: ('A' for Active; 'I' for Inactive)
REMARK    1  A    between atoms: C_5  and  C_6 
REMARK    2  A    between atoms: C_6  and  C_7 
REMARK       I    between atoms: C_7  and  N_8 
REMARK    3  A    between atoms: N_8  and  N_9 
REMARK       I    between atoms: N_9  and  C_10 
REMARK    4  A    between atoms: C_10  and  C_11 
REMARK    5  A    between atoms: C_15  and  C_16 
REMARK    6  A    between atoms: C_19  and  O_20 
ROOT
HETATM    1  N   UNL     1      43.559 -11.660   6.203  1.00  0.00    -0.262 N 
HETATM    2  C   UNL     1      44.739 -11.173   6.723  1.00  0.00     0.288 C 
HETATM    3  O   UNL     1      45.780 -11.148   6.069  1.00  0.00    -0.264 OA
HETATM    4  H   UNL     1      42.722 -11.799   6.766  1.00  0.00     0.190 HD
ENDROOT
BRANCH   2   5
HETATM    5  C   UNL     1      44.656 -10.706   8.079  1.00  0.00     0.121 A 
HETATM    6  N   UNL     1      45.767 -10.455   8.834  1.00  0.00    -0.272 N 
HETATM    7  H   UNL     1      46.736 -10.562   8.549  1.00  0.00     0.189 HD
HETATM    8  N   UNL     1      45.502 -10.014  10.073  1.00  0.00    -0.174 NA
HETATM    9  C   UNL     1      44.161  -9.991  10.149  1.00  0.00     0.089 A 
HETATM   10  C   UNL     1      43.595 -10.413   8.913  1.00  0.00     0.071 A 
BRANCH   9  11
HETATM   11  C   UNL     1      43.454  -9.567  11.360  1.00  0.00    -0.005 A 
HETATM   12  C   UNL     1      42.414 -10.341  11.889  1.00  0.00     0.016 A 
HETATM   13  C   UNL     1      41.757  -9.949  13.060  1.00  0.00     0.037 A 
HETATM   14  C   UNL     1      42.123  -8.776  13.723  1.00  0.00     0.068 A 
HETATM   15  C   UNL     1      43.146  -7.990  13.197  1.00  0.00     0.037 A 
HETATM   16  C   UNL     1      43.806  -8.383  12.025  1.00  0.00     0.016 A 
BRANCH  14  17
HETATM   17  O   UNL     1      41.410  -8.512  14.859  1.00  0.00    -0.356 OA
HETATM   18  C   UNL     1      41.647  -7.258  15.489  1.00  0.00     0.210 C 
ENDBRANCH  14  17
ENDBRANCH   9  11
ENDBRANCH   2   5
BRANCH   1  19
HETATM   19  N   UNL     1      43.558 -12.282   4.951  1.00  0.00    -0.267 N 
HETATM   20  C   UNL     1      42.598 -13.246   4.722  1.00  0.00     0.240 C 
HETATM   21  O   UNL     1      41.722 -13.503   5.549  1.00  0.00    -0.272 OA
HETATM   22  H   UNL     1      44.343 -12.092   4.331  1.00  0.00     0.190 HD
BRANCH  20  23
HETATM   23  C   UNL     1      42.693 -13.929   3.375  1.00  0.00     0.143 C 
BRANCH  23  24
HETATM   24  C   UNL     1      43.011 -15.407   3.408  1.00  0.00    -0.049 A 
HETATM   25  C   UNL     1      43.512 -16.062   4.541  1.00  0.00     0.008 A 
HETATM   26  C   UNL     1      43.807 -17.429   4.503  1.00  0.00     0.007 A 
HETATM   27  C   UNL     1      43.631 -18.164   3.328  1.00  0.00    -0.062 A 
HETATM   28  C   UNL     1      43.926 -19.635   3.294  1.00  0.00     0.048 C 
HETATM   29  C   UNL     1      43.128 -17.518   2.195  1.00  0.00     0.007 A 
HETATM   30  C   UNL     1      42.828 -16.154   2.234  1.00  0.00     0.008 A 
ENDBRANCH  23  24
ENDBRANCH  20  23
ENDBRANCH   1  19
TORSDOF 6
ENDMDL
MODEL 4
REMARK VINA RESULT:      -8.3      2.356     11.390
REMARK  6 active torsions:
REMARK  status: ('A' for Active; 'I' for Inactive)
REMARK    1  A    between atoms: C_5  and  C_6 
REMARK    2  A    between atoms: C_6  and  C_7 
REMARK       I    between atoms: C_7  and  N_8 
REMARK    3  A    between atoms: N_8  and  N_9 
REMARK       I    between atoms: N_9  and  C_10 
REMARK    4  A    between atoms: C_10  and  C_11 
REMARK    5  A    between atoms: C_15  and  C_16 
REMARK    6  A    between atoms: C_19  and  O_20 
ROOT
HETATM    1  N   UNL     1      43.004 -10.909   7.588  1.00  0.00    -0.262 N 
HETATM    2  C   UNL     1      43.930 -10.217   8.340  1.00  0.00     0.288 C 
HETATM    3  O   UNL     1      44.957  -9.753   7.847  1.00  0.00    -0.264 OA
HETATM    4  H   UNL     1      42.214 -11.401   8.000  1.00  0.00     0.190 HD
ENDROOT
BRANCH   2   5
HETATM    5  C   UNL     1      43.604 -10.087   9.733  1.00  0.00     0.121 A 
HETATM    6  N   UNL     1      43.610 -11.152  10.587  1.00  0.00    -0.272 N 
HETATM    7  H   UNL     1      43.833 -12.117  10.358  1.00  0.00     0.189 HD
HETATM    8  N   UNL     1      43.293 -10.845  11.854  1.00  0.00    -0.174 NA
HETATM    9  C   UNL     1      43.047  -9.525  11.834  1.00  0.00     0.089 A 
HETATM   10  C   UNL     1      43.238  -9.012  10.521  1.00  0.00     0.071 A 
BRANCH   9  11
HETATM   11  C   UNL     1      42.655  -8.785  13.037  1.00  0.00    -0.005 A 
HETATM   12  C   UNL     1      41.582  -9.220  13.826  1.00  0.00     0.016 A 
HETATM   13  C   UNL     1      41.225  -8.528  14.988  1.00  0.00     0.037 A 
HETATM   14  C   UNL     1      41.929  -7.389  15.383  1.00  0.00     0.068 A 
HETATM   15  C   UNL     1      42.988  -6.939  14.598  1.00  0.00     0.037 A 
HETATM   16  C   UNL     1      43.347  -7.632  13.434  1.00  0.00     0.016 A 
BRANCH  14  17
HETATM   17  O   UNL     1      41.486  -6.813  16.541  1.00  0.00    -0.356 OA
HETATM   18  C   UNL     1      40.185  -6.240  16.516  1.00  0.00     0.210 C 
ENDBRANCH  14  17
ENDBRANCH   9  11
ENDBRANCH   2   5
BRANCH   1  19
HETATM   19  N   UNL     1      43.292 -11.230   6.259  1.00  0.00    -0.267 N 
HETATM   20  C   UNL     1      42.320 -11.899   5.543  1.00  0.00     0.240 C 
HETATM   21  O   UNL     1      41.210 -12.141   6.019  1.00  0.00    -0.272 OA
HETATM   22  H   UNL     1      44.245 -11.080   5.934  1.00  0.00     0.190 HD
BRANCH  20  23
HETATM   23  C   UNL     1      42.720 -12.279   4.133  1.00  0.00     0.143 C 
BRANCH  23  24
HETATM   24  C   UNL     1      42.890 -13.759   3.874  1.00  0.00    -0.049 A 
HETATM   25  C   UNL     1      42.979 -14.715   4.894  1.00  0.00     0.008 A 
HETATM   26  C   UNL     1      43.158 -16.068   4.591  1.00  0.00     0.007 A 
HETATM   27  C   UNL     1      43.275 -16.493   3.264  1.00  0.00    -0.062 A 
HETATM   28  C   UNL     1      43.445 -17.947   2.938  1.00  0.00     0.048 C 
HETATM   29  C   UNL     1      43.184 -15.544   2.242  1.00  0.00     0.007 A 
HETATM   30  C   UNL     1      43.000 -14.193   2.543  1.00  0.00     0.008 A 
ENDBRANCH  23  24
ENDBRANCH  20  23
ENDBRANCH   1  19
TORSDOF 6
ENDMDL
MODEL 5
REMARK VINA RESULT:      -8.1      2.175      2.555
REMARK  6 active torsions:
REMARK  status: ('A' for Active; 'I' for Inactive)
REMARK    1  A    between atoms: C_5  and  C_6 
REMARK    2  A    between atoms: C_6  and  C_7 
REMARK       I    between atoms: C_7  and  N_8 
REMARK    3  A    between atoms: N_8  and  N_9 
REMARK       I    between atoms: N_9  and  C_10 
REMARK    4  A    between atoms: C_10  and  C_11 
REMARK    5  A    between atoms: C_15  and  C_16 
REMARK    6  A    between atoms: C_19  and  O_20 
ROOT
HETATM    1  N   UNL     1      42.827 -11.122   5.941  1.00  0.00    -0.262 N 
HETATM    2  C   UNL     1      42.606 -11.178   4.582  1.00  0.00     0.288 C 
HETATM    3  O   UNL     1      42.269 -10.190   3.933  1.00  0.00    -0.264 OA
HETATM    4  H   UNL     1      42.988 -11.951   6.510  1.00  0.00     0.190 HD
ENDROOT
BRANCH   2   5
HETATM    5  C   UNL     1      42.796 -12.474   3.990  1.00  0.00     0.121 A 
HETATM    6  N   UNL     1      42.849 -12.659   2.638  1.00  0.00    -0.272 N 
HETATM    7  H   UNL     1      42.764 -11.945   1.920  1.00  0.00     0.189 HD
HETATM    8  N   UNL     1      43.044 -13.932   2.263  1.00  0.00    -0.174 NA
HETATM    9  C   UNL     1      43.102 -14.621   3.414  1.00  0.00     0.089 A 
HETATM   10  C   UNL     1      42.958 -13.739   4.521  1.00  0.00     0.071 A 
BRANCH   9  11
HETATM   11  C   UNL     1      43.303 -16.073   3.446  1.00  0.00    -0.005 A 
HETATM   12  C   UNL     1      43.753 -16.707   4.611  1.00  0.00     0.016 A 
HETATM   13  C   UNL     1      43.920 -18.095   4.649  1.00  0.00     0.037 A 
HETATM   14  C   UNL     1      43.643 -18.877   3.525  1.00  0.00     0.068 A 
HETATM   15  C   UNL     1      43.210 -18.255   2.356  1.00  0.00     0.037 A 
HETATM   16  C   UNL     1      43.041 -16.863   2.318  1.00  0.00     0.016 A 
BRANCH  14  17
HETATM   17  O   UNL     1      43.837 -20.219   3.696  1.00  0.00    -0.356 OA
HETATM   18  C   UNL     1      44.301 -20.643   4.972  1.00  0.00     0.210 C 
ENDBRANCH  14  17
ENDBRANCH   9  11
ENDBRANCH   2   5
BRANCH   1  19
HETATM   19  N   UNL     1      42.523  -9.954   6.645  1.00  0.00    -0.267 N 
HETATM   20  C   UNL     1      43.313  -9.642   7.732  1.00  0.00     0.240 C 
HETATM   21  O   UNL     1      44.299 -10.315   8.035  1.00  0.00    -0.272 OA
HETATM   22  H   UNL     1      41.657  -9.473   6.406  1.00  0.00     0.190 HD
BRANCH  20  23
HETATM   23  C   UNL     1      42.889  -8.404   8.492  1.00  0.00     0.143 C 
BRANCH  23  24
HETATM   24  C   UNL     1      42.621  -8.597   9.967  1.00  0.00    -0.049 A 
HETATM   25  C   UNL     1      41.384  -9.007  10.479  1.00  0.00     0.008 A 
HETATM   26  C   UNL     1      41.191  -9.147  11.857  1.00  0.00     0.007 A 
HETATM   27  C   UNL     1      42.224  -8.858  12.754  1.00  0.00    -0.062 A 
HETATM   28  C   UNL     1      42.025  -9.029  14.231  1.00  0.00     0.048 C 
HETATM   29  C   UNL     1      43.462  -8.452  12.250  1.00  0.00     0.007 A 
HETATM   30  C   UNL     1      43.657  -8.317  10.873  1.00  0.00     0.008 A 
ENDBRANCH  23  24
ENDBRANCH  20  23
ENDBRANCH   1  19
TORSDOF 6
ENDMDL
MODEL 6
REMARK VINA RESULT:      -8.0      3.111      4.297
REMARK  6 active torsions:
REMARK  status: ('A' for Active; 'I' for Inactive)
REMARK    1  A    between atoms: C_5  and  C_6 
REMARK    2  A    between atoms: C_6  and  C_7 
REMARK       I    between atoms: C_7  and  N_8 
REMARK    3  A    between atoms: N_8  and  N_9 
REMARK       I    between atoms: N_9  and  C_10 
REMARK    4  A    between atoms: C_10  and  C_11 
REMARK    5  A    between atoms: C_15  and  C_16 
REMARK    6  A    between atoms: C_19  and  O_20 
ROOT
HETATM    1  N   UNL     1      43.072 -12.137   6.808  1.00  0.00    -0.262 N 
HETATM    2  C   UNL     1      43.156 -13.503   6.637  1.00  0.00     0.288 C 
HETATM    3  O   UNL     1      43.569 -14.249   7.521  1.00  0.00    -0.264 OA
HETATM    4  H   UNL     1      42.849 -11.497   6.049  1.00  0.00     0.190 HD
ENDROOT
BRANCH   2   5
HETATM    5  C   UNL     1      42.729 -13.978   5.349  1.00  0.00     0.121 A 
HETATM    6  N   UNL     1      42.994 -15.246   4.914  1.00  0.00    -0.272 N 
HETATM    7  H   UNL     1      43.500 -15.970   5.416  1.00  0.00     0.189 HD
HETATM    8  N   UNL     1      42.510 -15.522   3.694  1.00  0.00    -0.174 NA
HETATM    9  C   UNL     1      41.917 -14.384   3.296  1.00  0.00     0.089 A 
HETATM   10  C   UNL     1      42.028 -13.394   4.313  1.00  0.00     0.071 A 
BRANCH   9  11
HETATM   11  C   UNL     1      41.257 -14.261   1.993  1.00  0.00    -0.005 A 
HETATM   12  C   UNL     1      41.390 -13.093   1.233  1.00  0.00     0.016 A 
HETATM   13  C   UNL     1      40.781 -12.986  -0.022  1.00  0.00     0.037 A 
HETATM   14  C   UNL     1      40.028 -14.041  -0.541  1.00  0.00     0.068 A 
HETATM   15  C   UNL     1      39.877 -15.202   0.214  1.00  0.00     0.037 A 
HETATM   16  C   UNL     1      40.488 -15.311   1.471  1.00  0.00     0.016 A 
BRANCH  14  17
HETATM   17  O   UNL     1      39.496 -13.813  -1.779  1.00  0.00    -0.356 OA
HETATM   18  C   UNL     1      38.913 -14.928  -2.442  1.00  0.00     0.210 C 
ENDBRANCH  14  17
ENDBRANCH   9  11
ENDBRANCH   2   5
BRANCH   1  19
HETATM   19  N   UNL     1      43.605 -11.551   7.959  1.00  0.00    -0.267 N 
HETATM   20  C   UNL     1      44.818 -10.903   7.839  1.00  0.00     0.240 C 
HETATM   21  O   UNL     1      45.382 -10.773   6.752  1.00  0.00    -0.272 OA
HETATM   22  H   UNL     1      43.144 -11.749   8.845  1.00  0.00     0.190 HD
BRANCH  20  23
HETATM   23  C   UNL     1      45.373 -10.350   9.134  1.00  0.00     0.143 C 
BRANCH  23  24
HETATM   24  C   UNL     1      44.552  -9.263   9.790  1.00  0.00    -0.049 A 
HETATM   25  C   UNL     1      44.125  -9.318  11.122  1.00  0.00     0.008 A 
HETATM   26  C   UNL     1      43.348  -8.290  11.666  1.00  0.00     0.007 A 
HETATM   27  C   UNL     1      42.963  -7.197  10.885  1.00  0.00    -0.062 A 
HETATM   28  C   UNL     1      42.149  -6.083  11.474  1.00  0.00     0.048 C 
HETATM   29  C   UNL     1      43.390  -7.134   9.555  1.00  0.00     0.007 A 
HETATM   30  C   UNL     1      44.170  -8.158   9.013  1.00  0.00     0.008 A 
ENDBRANCH  23  24
ENDBRANCH  20  23
ENDBRANCH   1  19
TORSDOF 6
ENDMDL
MODEL 7
REMARK VINA RESULT:      -7.8      7.341     11.684
REMARK  6 active torsions:
REMARK  status: ('A' for Active; 'I' for Inactive)
REMARK    1  A    between atoms: C_5  and  C_6 
REMARK    2  A    between atoms: C_6  and  C_7 
REMARK       I    between atoms: C_7  and  N_8 
REMARK    3  A    between atoms: N_8  and  N_9 
REMARK       I    between atoms: N_9  and  C_10 
REMARK    4  A    between atoms: C_10  and  C_11 
REMARK    5  A    between atoms: C_15  and  C_16 
REMARK    6  A    between atoms: C_19  and  O_20 
ROOT
HETATM    1  N   UNL     1      40.972 -12.989   1.906  1.00  0.00    -0.262 N 
HETATM    2  C   UNL     1      40.606 -13.457   0.661  1.00  0.00     0.288 C 
HETATM    3  O   UNL     1      40.378 -14.646   0.450  1.00  0.00    -0.264 OA
HETATM    4  H   UNL     1      41.280 -12.033   2.069  1.00  0.00     0.190 HD
ENDROOT
BRANCH   2   5
HETATM    5  C   UNL     1      40.520 -12.451  -0.362  1.00  0.00     0.121 A 
HETATM    6  N   UNL     1      39.499 -12.419  -1.270  1.00  0.00    -0.272 N 
HETATM    7  H   UNL     1      38.719 -13.065  -1.333  1.00  0.00     0.189 HD
HETATM    8  N   UNL     1      39.572 -11.404  -2.144  1.00  0.00    -0.174 NA
HETATM    9  C   UNL     1      40.697 -10.749  -1.814  1.00  0.00     0.089 A 
HETATM   10  C   UNL     1      41.316 -11.373  -0.695  1.00  0.00     0.071 A 
BRANCH   9  11
HETATM   11  C   UNL     1      41.150  -9.560  -2.542  1.00  0.00    -0.005 A 
HETATM   12  C   UNL     1      40.698  -9.302  -3.842  1.00  0.00     0.016 A 
HETATM   13  C   UNL     1      41.110  -8.153  -4.526  1.00  0.00     0.037 A 
HETATM   14  C   UNL     1      41.983  -7.242  -3.927  1.00  0.00     0.068 A 
HETATM   15  C   UNL     1      42.451  -7.497  -2.639  1.00  0.00     0.037 A 
HETATM   16  C   UNL     1      42.037  -8.647  -1.953  1.00  0.00     0.016 A 
BRANCH  14  17
HETATM   17  O   UNL     1      42.300  -6.158  -4.697  1.00  0.00    -0.356 OA
HETATM   18  C   UNL     1      43.120  -6.397  -5.834  1.00  0.00     0.210 C 
ENDBRANCH  14  17
ENDBRANCH   9  11
ENDBRANCH   2   5
BRANCH   1  19
HETATM   19  N   UNL     1      41.238 -13.896   2.935  1.00  0.00    -0.267 N 
HETATM   20  C   UNL     1      42.561 -14.177   3.207  1.00  0.00     0.240 C 
HETATM   21  O   UNL     1      43.482 -13.601   2.627  1.00  0.00    -0.272 OA
HETATM   22  H   UNL     1      40.449 -14.402   3.332  1.00  0.00     0.190 HD
BRANCH  20  23
HETATM   23  C   UNL     1      42.781 -15.217   4.285  1.00  0.00     0.143 C 
BRANCH  23  24
HETATM   24  C   UNL     1      43.086 -16.615   3.797  1.00  0.00    -0.049 A 
HETATM   25  C   UNL     1      43.931 -17.501   4.476  1.00  0.00     0.008 A 
HETATM   26  C   UNL     1      44.192 -18.775   3.961  1.00  0.00     0.007 A 
HETATM   27  C   UNL     1      43.632 -19.183   2.747  1.00  0.00    -0.062 A 
HETATM   28  C   UNL     1      43.893 -20.558   2.207  1.00  0.00     0.048 C 
HETATM   29  C   UNL     1      42.784 -18.305   2.067  1.00  0.00     0.007 A 
HETATM   30  C   UNL     1      42.519 -17.034   2.582  1.00  0.00     0.008 A 
ENDBRANCH  23  24
ENDBRANCH  20  23
ENDBRANCH   1  19
TORSDOF 6
ENDMDL
MODEL 8
REMARK VINA RESULT:      -7.7      8.036     11.918
REMARK  6 active torsions:
REMARK  status: ('A' for Active; 'I' for Inactive)
REMARK    1  A    between atoms: C_5  and  C_6 
REMARK    2  A    between atoms: C_6  and  C_7 
REMARK       I    between atoms: C_7  and  N_8 
REMARK    3  A    between atoms: N_8  and  N_9 
REMARK       I    between atoms: N_9  and  C_10 
REMARK    4  A    between atoms: C_10  and  C_11 
REMARK    5  A    between atoms: C_15  and  C_16 
REMARK    6  A    between atoms: C_19  and  O_20 
ROOT
HETATM    1  N   UNL     1      38.560 -12.737  -0.651  1.00  0.00    -0.262 N 
HETATM    2  C   UNL     1      39.512 -13.727  -0.764  1.00  0.00     0.288 C 
HETATM    3  O   UNL     1      39.935 -14.106  -1.854  1.00  0.00    -0.264 OA
HETATM    4  H   UNL     1      38.113 -12.497   0.232  1.00  0.00     0.190 HD
ENDROOT
BRANCH   2   5
HETATM    5  C   UNL     1      39.963 -14.278   0.485  1.00  0.00     0.121 A 
HETATM    6  N   UNL     1      39.417 -13.916   1.683  1.00  0.00    -0.272 N 
HETATM    7  H   UNL     1      38.667 -13.248   1.835  1.00  0.00     0.189 HD
HETATM    8  N   UNL     1      39.952 -14.540   2.743  1.00  0.00    -0.174 NA
HETATM    9  C   UNL     1      40.905 -15.333   2.228  1.00  0.00     0.089 A 
HETATM   10  C   UNL     1      40.937 -15.202   0.811  1.00  0.00     0.071 A 
BRANCH   9  11
HETATM   11  C   UNL     1      41.743 -16.195   3.067  1.00  0.00    -0.005 A 
HETATM   12  C   UNL     1      42.583 -17.155   2.490  1.00  0.00     0.016 A 
HETATM   13  C   UNL     1      43.402 -17.960   3.290  1.00  0.00     0.037 A 
HETATM   14  C   UNL     1      43.395 -17.823   4.680  1.00  0.00     0.068 A 
HETATM   15  C   UNL     1      42.551 -16.881   5.265  1.00  0.00     0.037 A 
HETATM   16  C   UNL     1      41.731 -16.074   4.464  1.00  0.00     0.016 A 
BRANCH  14  17
HETATM   17  O   UNL     1      44.247 -18.661   5.344  1.00  0.00    -0.356 OA
HETATM   18  C   UNL     1      44.338 -19.996   4.863  1.00  0.00     0.210 C 
ENDBRANCH  14  17
ENDBRANCH   9  11
ENDBRANCH   2   5
BRANCH   1  19
HETATM   19  N   UNL     1      37.937 -12.240  -1.799  1.00  0.00    -0.267 N 
HETATM   20  C   UNL     1      37.574 -10.909  -1.799  1.00  0.00     0.240 C 
HETATM   21  O   UNL     1      37.850 -10.158  -0.863  1.00  0.00    -0.272 OA
HETATM   22  H   UNL     1      37.662 -12.912  -2.513  1.00  0.00     0.190 HD
BRANCH  20  23
HETATM   23  C   UNL     1      36.843 -10.451  -3.043  1.00  0.00     0.143 C 
BRANCH  23  24
HETATM   24  C   UNL     1      35.337 -10.370  -2.929  1.00  0.00    -0.049 A 
HETATM   25  C   UNL     1      34.677  -9.538  -2.016  1.00  0.00     0.008 A 
HETATM   26  C   UNL     1      33.281  -9.523  -1.943  1.00  0.00     0.007 A 
HETATM   27  C   UNL     1      32.515 -10.357  -2.764  1.00  0.00    -0.062 A 
HETATM   28  C   UNL     1      31.017 -10.325  -2.701  1.00  0.00     0.048 C 
HETATM   29  C   UNL     1      33.167 -11.187  -3.679  1.00  0.00     0.007 A 
HETATM   30  C   UNL     1      34.562 -11.198  -3.756  1.00  0.00     0.008 A 
ENDBRANCH  23  24
ENDBRANCH  20  23
ENDBRANCH   1  19
TORSDOF 6
ENDMDL
MODEL 9
REMARK VINA RESULT:      -7.7      2.706      3.067
REMARK  6 active torsions:
REMARK  status: ('A' for Active; 'I' for Inactive)
REMARK    1  A    between atoms: C_5  and  C_6 
REMARK    2  A    between atoms: C_6  and  C_7 
REMARK       I    between atoms: C_7  and  N_8 
REMARK    3  A    between atoms: N_8  and  N_9 
REMARK       I    between atoms: N_9  and  C_10 
REMARK    4  A    between atoms: C_10  and  C_11 
REMARK    5  A    between atoms: C_15  and  C_16 
REMARK    6  A    between atoms: C_19  and  O_20 
ROOT
HETATM    1  N   UNL     1      40.710 -11.218   6.728  1.00  0.00    -0.262 N 
HETATM    2  C   UNL     1      39.799 -12.157   6.295  1.00  0.00     0.288 C 
HETATM    3  O   UNL     1      38.588 -12.018   6.458  1.00  0.00    -0.264 OA
HETATM    4  H   UNL     1      41.716 -11.374   6.709  1.00  0.00     0.190 HD
ENDROOT
BRANCH   2   5
HETATM    5  C   UNL     1      40.373 -13.305   5.647  1.00  0.00     0.121 A 
HETATM    6  N   UNL     1      40.077 -13.640   4.357  1.00  0.00    -0.272 N 
HETATM    7  H   UNL     1      39.448 -13.149   3.728  1.00  0.00     0.189 HD
HETATM    8  N   UNL     1      40.713 -14.733   3.912  1.00  0.00    -0.174 NA
HETATM    9  C   UNL     1      41.445 -15.152   4.957  1.00  0.00     0.089 A 
HETATM   10  C   UNL     1      41.264 -14.276   6.063  1.00  0.00     0.071 A 
BRANCH   9  11
HETATM   11  C   UNL     1      42.298 -16.342   4.887  1.00  0.00    -0.005 A 
HETATM   12  C   UNL     1      42.646 -17.041   6.049  1.00  0.00     0.016 A 
HETATM   13  C   UNL     1      43.439 -18.192   5.979  1.00  0.00     0.037 A 
HETATM   14  C   UNL     1      43.900 -18.665   4.749  1.00  0.00     0.068 A 
HETATM   15  C   UNL     1      43.572 -17.968   3.588  1.00  0.00     0.037 A 
HETATM   16  C   UNL     1      42.777 -16.816   3.657  1.00  0.00     0.016 A 
BRANCH  14  17
HETATM   17  O   UNL     1      44.655 -19.802   4.818  1.00  0.00    -0.356 OA
HETATM   18  C   UNL     1      43.990 -20.991   5.228  1.00  0.00     0.210 C 
ENDBRANCH  14  17
ENDBRANCH   9  11
ENDBRANCH   2   5
BRANCH   1  19
HETATM   19  N   UNL     1      40.278 -10.141   7.506  1.00  0.00    -0.267 N 
HETATM   20  C   UNL     1      41.243  -9.403   8.161  1.00  0.00     0.240 C 
HETATM   21  O   UNL     1      42.445  -9.625   8.014  1.00  0.00    -0.272 OA
HETATM   22  H   UNL     1      39.276 -10.043   7.659  1.00  0.00     0.190 HD
BRANCH  20  23
HETATM   23  C   UNL     1      40.705  -8.295   9.041  1.00  0.00     0.143 C 
BRANCH  23  24
HETATM   24  C   UNL     1      41.095  -8.367  10.500  1.00  0.00    -0.049 A 
HETATM   25  C   UNL     1      42.069  -7.544  11.080  1.00  0.00     0.008 A 
HETATM   26  C   UNL     1      42.401  -7.674  12.432  1.00  0.00     0.007 A 
HETATM   27  C   UNL     1      41.784  -8.643  13.228  1.00  0.00    -0.062 A 
HETATM   28  C   UNL     1      42.124  -8.767  14.684  1.00  0.00     0.048 C 
HETATM   29  C   UNL     1      40.809  -9.465  12.658  1.00  0.00     0.007 A 
HETATM   30  C   UNL     1      40.473  -9.332  11.308  1.00  0.00     0.008 A 
ENDBRANCH  23  24
ENDBRANCH  20  23
ENDBRANCH   1  19
TORSDOF 6
ENDMDL
MODEL 10
REMARK VINA RESULT:      -7.7      7.432     11.784
REMARK  6 active torsions:
REMARK  status: ('A' for Active; 'I' for Inactive)
REMARK    1  A    between atoms: C_5  and  C_6 
REMARK    2  A    between atoms: C_6  and  C_7 
REMARK       I    between atoms: C_7  and  N_8 
REMARK    3  A    between atoms: N_8  and  N_9 
REMARK       I    between atoms: N_9  and  C_10 
REMARK    4  A    between atoms: C_10  and  C_11 
REMARK    5  A    between atoms: C_15  and  C_16 
REMARK    6  A    between atoms: C_19  and  O_20 
ROOT
HETATM    1  N   UNL     1      40.756 -13.571   1.867  1.00  0.00    -0.262 N 
HETATM    2  C   UNL     1      40.273 -14.216   0.748  1.00  0.00     0.288 C 
HETATM    3  O   UNL     1      40.108 -15.433   0.714  1.00  0.00    -0.264 OA
HETATM    4  H   UNL     1      41.011 -12.586   1.871  1.00  0.00     0.190 HD
ENDROOT
BRANCH   2   5
HETATM    5  C   UNL     1      39.984 -13.357  -0.368  1.00  0.00     0.121 A 
HETATM    6  N   UNL     1      40.876 -13.154  -1.383  1.00  0.00    -0.272 N 
HETATM    7  H   UNL     1      41.803 -13.560  -1.471  1.00  0.00     0.189 HD
HETATM    8  N   UNL     1      40.435 -12.332  -2.347  1.00  0.00    -0.174 NA
HETATM    9  C   UNL     1      39.209 -11.960  -1.945  1.00  0.00     0.089 A 
HETATM   10  C   UNL     1      38.888 -12.589  -0.709  1.00  0.00     0.071 A 
BRANCH   9  11
HETATM   11  C   UNL     1      38.374 -11.044  -2.728  1.00  0.00    -0.005 A 
HETATM   12  C   UNL     1      38.957 -10.057  -3.531  1.00  0.00     0.016 A 
HETATM   13  C   UNL     1      38.161  -9.200  -4.299  1.00  0.00     0.037 A 
HETATM   14  C   UNL     1      36.769  -9.311  -4.277  1.00  0.00     0.068 A 
HETATM   15  C   UNL     1      36.178 -10.281  -3.469  1.00  0.00     0.037 A 
HETATM   16  C   UNL     1      36.976 -11.140  -2.701  1.00  0.00     0.016 A 
BRANCH  14  17
HETATM   17  O   UNL     1      36.108  -8.422  -5.078  1.00  0.00    -0.356 OA
HETATM   18  C   UNL     1      35.820  -7.146  -4.519  1.00  0.00     0.210 C 
ENDBRANCH  14  17
ENDBRANCH   9  11
ENDBRANCH   2   5
BRANCH   1  19
HETATM   19  N   UNL     1      41.216 -14.321   2.953  1.00  0.00    -0.267 N 
HETATM   20  C   UNL     1      42.580 -14.474   3.087  1.00  0.00     0.240 C 
HETATM   21  O   UNL     1      43.376 -13.914   2.332  1.00  0.00    -0.272 OA
HETATM   22  H   UNL     1      40.523 -14.826   3.504  1.00  0.00     0.190 HD
BRANCH  20  23
HETATM   23  C   UNL     1      43.010 -15.353   4.242  1.00  0.00     0.143 C 
BRANCH  23  24
HETATM   24  C   UNL     1      43.272 -16.803   3.903  1.00  0.00    -0.049 A 
HETATM   25  C   UNL     1      43.948 -17.684   4.756  1.00  0.00     0.008 A 
HETATM   26  C   UNL     1      44.179 -19.010   4.376  1.00  0.00     0.007 A 
HETATM   27  C   UNL     1      43.759 -19.478   3.127  1.00  0.00    -0.062 A 
HETATM   28  C   UNL     1      43.986 -20.906   2.729  1.00  0.00     0.048 C 
HETATM   29  C   UNL     1      43.080 -18.605   2.273  1.00  0.00     0.007 A 
HETATM   30  C   UNL     1      42.845 -17.282   2.654  1.00  0.00     0.008 A 
ENDBRANCH  23  24
ENDBRANCH  20  23
ENDBRANCH   1  19
TORSDOF 6
ENDMDL
