MODEL 1
REMARK VINA RESULT:      -8.4      0.000      0.000
REMARK  10 active torsions:
REMARK  status: ('A' for Active; 'I' for Inactive)
REMARK    1  A    between atoms: C_2  and  C_3 
REMARK    2  A    between atoms: C_4  and  O_5 
REMARK    3  A    between atoms: C_6  and  C_7 
REMARK    4  A    between atoms: C_12  and  C_13 
REMARK    5  A    between atoms: N_14  and  N_15 
REMARK       I    between atoms: N_15  and  C_16 
REMARK    6  A    between atoms: C_16  and  C_17 
REMARK    7  A    between atoms: N_20  and  C_21 
REMARK    8  A    between atoms: C_25  and  N_26 
REMARK    9  A    between atoms: C_27  and  C_28 
REMARK   10  A    between atoms: C_28  and  N_29 
ROOT
HETATM    1  N   UNL     1      45.998 -10.467   7.688  1.00  0.00    -0.145 NA
HETATM    2  C   UNL     1      45.442  -9.497   8.512  1.00  0.00     0.273 C 
HETATM    3  O   UNL     1      45.655  -8.299   8.298  1.00  0.00    -0.270 OA
HETATM    4  H   UNL     1      46.468 -10.011   6.907  1.00  0.00     0.158 HD
ENDROOT
BRANCH   1   5
HETATM    5  N   UNL     1      45.209 -11.500   7.242  1.00  0.00    -0.205 NA
HETATM    6  C   UNL     1      44.515 -11.202   6.186  1.00  0.00     0.144 C 
BRANCH   6   7
HETATM    7  C   UNL     1      43.596 -12.166   5.551  1.00  0.00    -0.016 A 
HETATM    8  C   UNL     1      42.932 -11.845   4.368  1.00  0.00     0.023 A 
HETATM    9  C   UNL     1      42.072 -12.768   3.747  1.00  0.00    -0.016 A 
HETATM   10  C   UNL     1      41.887 -14.013   4.405  1.00  0.00     0.079 A 
HETATM   11  C   UNL     1      42.513 -14.357   5.633  1.00  0.00    -0.016 A 
HETATM   12  C   UNL     1      43.402 -13.406   6.164  1.00  0.00     0.023 A 
BRANCH   9  13
HETATM   13  C   UNL     1      41.381 -12.423   2.403  1.00  0.00    -0.021 C 
HETATM   14  C   UNL     1      41.890 -11.065   1.872  1.00  0.00     0.019 C 
HETATM   15  C   UNL     1      41.655 -13.458   1.279  1.00  0.00     0.019 C 
HETATM   16  C   UNL     1      39.843 -12.383   2.567  1.00  0.00     0.019 C 
ENDBRANCH   9  13
BRANCH  10  17
HETATM   17  O   UNL     1      41.045 -14.901   3.793  1.00  0.00    -0.360 OA
HETATM   18  H   UNL     1      41.243 -14.906   2.845  1.00  0.00     0.217 HD
ENDBRANCH  10  17
BRANCH  11  19
HETATM   19  C   UNL     1      42.258 -15.683   6.398  1.00  0.00    -0.021 C 
HETATM   20  C   UNL     1      42.937 -15.620   7.783  1.00  0.00     0.019 C 
HETATM   21  C   UNL     1      42.763 -16.920   5.616  1.00  0.00     0.019 C 
HETATM   22  C   UNL     1      40.750 -15.959   6.658  1.00  0.00     0.019 C 
ENDBRANCH  11  19
ENDBRANCH   6   7
ENDBRANCH   1   5
BRANCH   2  23
HETATM   23  C   UNL     1      44.628  -9.906   9.659  1.00  0.00     0.170 C 
HETATM   24  N   UNL     1      44.992 -10.874  10.550  1.00  0.00    -0.124 NA
HETATM   25  N   UNL     1      44.073 -10.947  11.493  1.00  0.00    -0.058 NA
HETATM   26  N   UNL     1      43.154  -9.971  11.294  1.00  0.00    -0.191 N 
HETATM   27  C   UNL     1      43.409  -9.361  10.059  1.00  0.00     0.101 C 
BRANCH  26  28
HETATM   28  C   UNL     1      42.162  -9.672  12.261  1.00  0.00     0.229 A 
HETATM   29  N   UNL     1      42.508  -9.183  13.454  1.00  0.00    -0.081 NA
HETATM   30  O   UNL     1      41.291  -9.055  14.128  1.00  0.00    -0.103 OA
HETATM   31  N   UNL     1      40.231  -9.464  13.331  1.00  0.00    -0.083 NA
HETATM   32  C   UNL     1      40.769  -9.852  12.177  1.00  0.00     0.201 A 
BRANCH  32  33
HETATM   33  N   UNL     1      40.071 -10.315  11.128  1.00  0.00    -0.379 N 
HETATM   34  H   UNL     1      40.535 -10.874  10.417  1.00  0.00     0.158 HD
HETATM   35  H   UNL     1      39.163  -9.946  10.853  1.00  0.00     0.158 HD
ENDBRANCH  32  33
ENDBRANCH  26  28
BRANCH  27  36
HETATM   36  C   UNL     1      42.545  -8.298   9.480  1.00  0.00     0.295 C 
BRANCH  36  37
HETATM   37  N   UNL     1      42.433  -8.289   7.974  1.00  0.00    -0.073 N 
HETATM   38  H   UNL     1      43.386  -8.473   7.604  1.00  0.00     0.279 HD
HETATM   39  C   UNL     1      41.524  -9.352   7.431  1.00  0.00     0.269 C 
HETATM   40  C   UNL     1      42.064  -6.930   7.450  1.00  0.00     0.269 C 
ENDBRANCH  36  37
ENDBRANCH  27  36
ENDBRANCH   2  23
TORSDOF 10
ENDMDL
MODEL 2
REMARK VINA RESULT:      -8.4      0.151      3.107
REMARK  10 active torsions:
REMARK  status: ('A' for Active; 'I' for Inactive)
REMARK    1  A    between atoms: C_2  and  C_3 
REMARK    2  A    between atoms: C_4  and  O_5 
REMARK    3  A    between atoms: C_6  and  C_7 
REMARK    4  A    between atoms: C_12  and  C_13 
REMARK    5  A    between atoms: N_14  and  N_15 
REMARK       I    between atoms: N_15  and  C_16 
REMARK    6  A    between atoms: C_16  and  C_17 
REMARK    7  A    between atoms: N_20  and  C_21 
REMARK    8  A    between atoms: C_25  and  N_26 
REMARK    9  A    between atoms: C_27  and  C_28 
REMARK   10  A    between atoms: C_28  and  N_29 
ROOT
HETATM    1  N   UNL     1      46.128 -10.377   7.715  1.00  0.00    -0.145 NA
HETATM    2  C   UNL     1      45.508  -9.425   8.515  1.00  0.00     0.273 C 
HETATM    3  O   UNL     1      45.679  -8.221   8.300  1.00  0.00    -0.270 OA
HETATM    4  H   UNL     1      46.604  -9.905   6.946  1.00  0.00     0.158 HD
ENDROOT
BRANCH   1   5
HETATM    5  N   UNL     1      45.396 -11.443   7.250  1.00  0.00    -0.205 NA
HETATM    6  C   UNL     1      44.495 -11.110   6.376  1.00  0.00     0.144 C 
BRANCH   6   7
HETATM    7  C   UNL     1      43.594 -12.103   5.759  1.00  0.00    -0.016 A 
HETATM    8  C   UNL     1      43.412 -13.358   6.338  1.00  0.00     0.023 A 
HETATM    9  C   UNL     1      42.539 -14.298   5.766  1.00  0.00    -0.016 A 
HETATM   10  C   UNL     1      41.891 -13.921   4.559  1.00  0.00     0.079 A 
HETATM   11  C   UNL     1      42.087 -12.668   3.918  1.00  0.00    -0.016 A 
HETATM   12  C   UNL     1      42.932 -11.758   4.579  1.00  0.00     0.023 A 
BRANCH   9  13
HETATM   13  C   UNL     1      42.300 -15.671   6.446  1.00  0.00    -0.021 C 
HETATM   14  C   UNL     1      42.887 -16.806   5.578  1.00  0.00     0.019 C 
HETATM   15  C   UNL     1      42.972 -15.800   7.840  1.00  0.00     0.019 C 
HETATM   16  C   UNL     1      40.792 -15.914   6.685  1.00  0.00     0.019 C 
ENDBRANCH   9  13
BRANCH  10  17
HETATM   17  O   UNL     1      41.047 -14.846   4.010  1.00  0.00    -0.360 OA
HETATM   18  H   UNL     1      40.803 -15.483   4.698  1.00  0.00     0.217 HD
ENDBRANCH  10  17
BRANCH  11  19
HETATM   19  C   UNL     1      41.446 -12.275   2.561  1.00  0.00    -0.021 C 
HETATM   20  C   UNL     1      42.043 -10.939   2.073  1.00  0.00     0.019 C 
HETATM   21  C   UNL     1      39.904 -12.166   2.648  1.00  0.00     0.019 C 
HETATM   22  C   UNL     1      41.712 -13.314   1.435  1.00  0.00     0.019 C 
ENDBRANCH  11  19
ENDBRANCH   6   7
ENDBRANCH   1   5
BRANCH   2  23
HETATM   23  C   UNL     1      44.676  -9.862   9.639  1.00  0.00     0.170 C 
HETATM   24  N   UNL     1      45.017 -10.864  10.500  1.00  0.00    -0.124 NA
HETATM   25  N   UNL     1      44.087 -10.956  11.430  1.00  0.00    -0.058 NA
HETATM   26  N   UNL     1      43.183  -9.961  11.255  1.00  0.00    -0.191 N 
HETATM   27  C   UNL     1      43.460  -9.313  10.044  1.00  0.00     0.101 C 
BRANCH  26  28
HETATM   28  C   UNL     1      42.185  -9.681  12.221  1.00  0.00     0.229 A 
HETATM   29  N   UNL     1      42.523  -9.221  13.427  1.00  0.00    -0.081 NA
HETATM   30  O   UNL     1      41.301  -9.105  14.095  1.00  0.00    -0.103 OA
HETATM   31  N   UNL     1      40.246  -9.492  13.280  1.00  0.00    -0.083 NA
HETATM   32  C   UNL     1      40.792  -9.855  12.122  1.00  0.00     0.201 A 
BRANCH  32  33
HETATM   33  N   UNL     1      40.101 -10.292  11.057  1.00  0.00    -0.379 N 
HETATM   34  H   UNL     1      40.593 -10.683  10.259  1.00  0.00     0.158 HD
HETATM   35  H   UNL     1      39.132 -10.038  10.877  1.00  0.00     0.158 HD
ENDBRANCH  32  33
ENDBRANCH  26  28
BRANCH  27  36
HETATM   36  C   UNL     1      42.617  -8.221   9.493  1.00  0.00     0.295 C 
BRANCH  36  37
HETATM   37  N   UNL     1      42.394  -8.251   7.999  1.00  0.00    -0.073 N 
HETATM   38  H   UNL     1      43.313  -8.470   7.565  1.00  0.00     0.279 HD
HETATM   39  C   UNL     1      41.423  -9.305   7.556  1.00  0.00     0.269 C 
HETATM   40  C   UNL     1      42.020  -6.899   7.462  1.00  0.00     0.269 C 
ENDBRANCH  36  37
ENDBRANCH  27  36
ENDBRANCH   2  23
TORSDOF 10
ENDMDL
MODEL 3
REMARK VINA RESULT:      -8.1      0.743      3.346
REMARK  10 active torsions:
REMARK  status: ('A' for Active; 'I' for Inactive)
REMARK    1  A    between atoms: C_2  and  C_3 
REMARK    2  A    between atoms: C_4  and  O_5 
REMARK    3  A    between atoms: C_6  and  C_7 
REMARK    4  A    between atoms: C_12  and  C_13 
REMARK    5  A    between atoms: N_14  and  N_15 
REMARK       I    between atoms: N_15  and  C_16 
REMARK    6  A    between atoms: C_16  and  C_17 
REMARK    7  A    between atoms: N_20  and  C_21 
REMARK    8  A    between atoms: C_25  and  N_26 
REMARK    9  A    between atoms: C_27  and  C_28 
REMARK   10  A    between atoms: C_28  and  N_29 
ROOT
HETATM    1  N   UNL     1      45.996 -10.525   7.721  1.00  0.00    -0.145 NA
HETATM    2  C   UNL     1      45.433  -9.501   8.472  1.00  0.00     0.273 C 
HETATM    3  O   UNL     1      45.698  -8.322   8.218  1.00  0.00    -0.270 OA
HETATM    4  H   UNL     1      46.521 -10.119   6.947  1.00  0.00     0.158 HD
ENDROOT
BRANCH   1   5
HETATM    5  N   UNL     1      45.196 -11.551   7.278  1.00  0.00    -0.205 NA
HETATM    6  C   UNL     1      44.462 -11.231   6.256  1.00  0.00     0.144 C 
BRANCH   6   7
HETATM    7  C   UNL     1      43.524 -12.184   5.631  1.00  0.00    -0.016 A 
HETATM    8  C   UNL     1      43.291 -13.433   6.204  1.00  0.00     0.023 A 
HETATM    9  C   UNL     1      42.383 -14.336   5.625  1.00  0.00    -0.016 A 
HETATM   10  C   UNL     1      41.755 -13.927   4.417  1.00  0.00     0.079 A 
HETATM   11  C   UNL     1      42.002 -12.680   3.783  1.00  0.00    -0.016 A 
HETATM   12  C   UNL     1      42.880 -11.807   4.451  1.00  0.00     0.023 A 
BRANCH   9  13
HETATM   13  C   UNL     1      42.088 -15.701   6.298  1.00  0.00    -0.021 C 
HETATM   14  C   UNL     1      42.770 -15.774   7.682  1.00  0.00     0.019 C 
HETATM   15  C   UNL     1      40.577 -15.959   6.546  1.00  0.00     0.019 C 
HETATM   16  C   UNL     1      42.571 -16.871   5.409  1.00  0.00     0.019 C 
ENDBRANCH   9  13
BRANCH  10  17
HETATM   17  O   UNL     1      40.877 -14.816   3.862  1.00  0.00    -0.360 OA
HETATM   18  H   UNL     1      40.223 -14.319   3.348  1.00  0.00     0.217 HD
ENDBRANCH  10  17
BRANCH  11  19
HETATM   19  C   UNL     1      41.381 -12.256   2.426  1.00  0.00    -0.021 C 
HETATM   20  C   UNL     1      39.863 -12.042   2.595  1.00  0.00     0.019 C 
HETATM   21  C   UNL     1      41.649 -13.292   1.307  1.00  0.00     0.019 C 
HETATM   22  C   UNL     1      41.957 -10.918   1.882  1.00  0.00     0.019 C 
ENDBRANCH  11  19
ENDBRANCH   6   7
ENDBRANCH   1   5
BRANCH   2  23
HETATM   23  C   UNL     1      44.548  -9.833   9.591  1.00  0.00     0.170 C 
HETATM   24  N   UNL     1      44.906 -10.629  10.640  1.00  0.00    -0.124 NA
HETATM   25  N   UNL     1      43.907 -10.668  11.501  1.00  0.00    -0.058 NA
HETATM   26  N   UNL     1      42.930  -9.826  11.085  1.00  0.00    -0.191 N 
HETATM   27  C   UNL     1      43.252  -9.365   9.802  1.00  0.00     0.101 C 
BRANCH  26  28
HETATM   28  C   UNL     1      41.824  -9.502  11.910  1.00  0.00     0.229 A 
HETATM   29  N   UNL     1      40.604  -9.952  11.612  1.00  0.00    -0.081 NA
HETATM   30  O   UNL     1      39.793  -9.406  12.610  1.00  0.00    -0.103 OA
HETATM   31  N   UNL     1      40.537  -8.639  13.497  1.00  0.00    -0.083 NA
HETATM   32  C   UNL     1      41.794  -8.693  13.061  1.00  0.00     0.201 A 
BRANCH  32  33
HETATM   33  N   UNL     1      42.832  -8.081  13.653  1.00  0.00    -0.379 N 
HETATM   34  H   UNL     1      43.702  -8.586  13.800  1.00  0.00     0.158 HD
HETATM   35  H   UNL     1      42.741  -7.223  14.194  1.00  0.00     0.158 HD
ENDBRANCH  32  33
ENDBRANCH  26  28
BRANCH  27  36
HETATM   36  C   UNL     1      42.359  -8.484   9.005  1.00  0.00     0.295 C 
BRANCH  36  37
HETATM   37  N   UNL     1      41.059  -9.104   8.549  1.00  0.00    -0.073 N 
HETATM   38  H   UNL     1      40.840  -9.865   9.222  1.00  0.00     0.279 HD
HETATM   39  C   UNL     1      39.902  -8.149   8.553  1.00  0.00     0.269 C 
HETATM   40  C   UNL     1      41.203  -9.786   7.218  1.00  0.00     0.269 C 
ENDBRANCH  36  37
ENDBRANCH  27  36
ENDBRANCH   2  23
TORSDOF 10
ENDMDL
MODEL 4
REMARK VINA RESULT:      -7.9      2.025      4.273
REMARK  10 active torsions:
REMARK  status: ('A' for Active; 'I' for Inactive)
REMARK    1  A    between atoms: C_2  and  C_3 
REMARK    2  A    between atoms: C_4  and  O_5 
REMARK    3  A    between atoms: C_6  and  C_7 
REMARK    4  A    between atoms: C_12  and  C_13 
REMARK    5  A    between atoms: N_14  and  N_15 
REMARK       I    between atoms: N_15  and  C_16 
REMARK    6  A    between atoms: C_16  and  C_17 
REMARK    7  A    between atoms: N_20  and  C_21 
REMARK    8  A    between atoms: C_25  and  N_26 
REMARK    9  A    between atoms: C_27  and  C_28 
REMARK   10  A    between atoms: C_28  and  N_29 
ROOT
HETATM    1  N   UNL     1      42.014  -9.391   6.593  1.00  0.00    -0.145 NA
HETATM    2  C   UNL     1      40.889  -8.697   7.021  1.00  0.00     0.273 C 
HETATM    3  O   UNL     1      40.519  -7.679   6.428  1.00  0.00    -0.270 OA
HETATM    4  H   UNL     1      42.348  -8.976   5.724  1.00  0.00     0.158 HD
ENDROOT
BRANCH   1   5
HETATM    5  N   UNL     1      41.957 -10.760   6.485  1.00  0.00    -0.205 NA
HETATM    6  C   UNL     1      42.382 -11.207   5.343  1.00  0.00     0.144 C 
BRANCH   6   7
HETATM    7  C   UNL     1      42.397 -12.647   5.018  1.00  0.00    -0.016 A 
HETATM    8  C   UNL     1      42.847 -13.582   5.948  1.00  0.00     0.023 A 
HETATM    9  C   UNL     1      42.843 -14.956   5.652  1.00  0.00    -0.016 A 
HETATM   10  C   UNL     1      42.400 -15.331   4.355  1.00  0.00     0.079 A 
HETATM   11  C   UNL     1      41.976 -14.401   3.368  1.00  0.00    -0.016 A 
HETATM   12  C   UNL     1      41.954 -13.049   3.757  1.00  0.00     0.023 A 
BRANCH   9  13
HETATM   13  C   UNL     1      43.294 -15.994   6.711  1.00  0.00    -0.021 C 
HETATM   14  C   UNL     1      44.788 -16.338   6.521  1.00  0.00     0.019 C 
HETATM   15  C   UNL     1      43.148 -15.495   8.174  1.00  0.00     0.019 C 
HETATM   16  C   UNL     1      42.441 -17.281   6.622  1.00  0.00     0.019 C 
ENDBRANCH   9  13
BRANCH  10  17
HETATM   17  O   UNL     1      42.405 -16.670   4.077  1.00  0.00    -0.360 OA
HETATM   18  H   UNL     1      43.290 -16.914   3.768  1.00  0.00     0.217 HD
ENDBRANCH  10  17
BRANCH  11  19
HETATM   19  C   UNL     1      41.563 -14.792   1.924  1.00  0.00    -0.021 C 
HETATM   20  C   UNL     1      40.238 -15.582   1.960  1.00  0.00     0.019 C 
HETATM   21  C   UNL     1      42.655 -15.621   1.204  1.00  0.00     0.019 C 
HETATM   22  C   UNL     1      41.320 -13.563   1.004  1.00  0.00     0.019 C 
ENDBRANCH  11  19
ENDBRANCH   6   7
ENDBRANCH   1   5
BRANCH   2  23
HETATM   23  C   UNL     1      40.164  -9.164   8.206  1.00  0.00     0.170 C 
HETATM   24  N   UNL     1      38.987  -9.852   8.162  1.00  0.00    -0.124 NA
HETATM   25  N   UNL     1      38.643 -10.179   9.392  1.00  0.00    -0.058 NA
HETATM   26  N   UNL     1      39.627  -9.803  10.244  1.00  0.00    -0.191 N 
HETATM   27  C   UNL     1      40.564  -9.040   9.536  1.00  0.00     0.101 C 
BRANCH  26  28
HETATM   28  C   UNL     1      39.632 -10.206  11.603  1.00  0.00     0.229 A 
HETATM   29  N   UNL     1      40.371  -9.550  12.499  1.00  0.00    -0.081 NA
HETATM   30  O   UNL     1      40.149 -10.246  13.689  1.00  0.00    -0.103 OA
HETATM   31  N   UNL     1      39.276 -11.308  13.494  1.00  0.00    -0.083 NA
HETATM   32  C   UNL     1      38.960 -11.287  12.201  1.00  0.00     0.201 A 
BRANCH  32  33
HETATM   33  N   UNL     1      38.126 -12.156  11.607  1.00  0.00    -0.379 N 
HETATM   34  H   UNL     1      38.443 -12.697  10.807  1.00  0.00     0.158 HD
HETATM   35  H   UNL     1      37.116 -12.140  11.737  1.00  0.00     0.158 HD
ENDBRANCH  32  33
ENDBRANCH  26  28
BRANCH  27  36
HETATM   36  C   UNL     1      41.740  -8.393  10.176  1.00  0.00     0.295 C 
BRANCH  36  37
HETATM   37  N   UNL     1      42.834  -9.327  10.636  1.00  0.00    -0.073 N 
HETATM   38  H   UNL     1      42.365 -10.139  11.083  1.00  0.00     0.279 HD
HETATM   39  C   UNL     1      43.685  -9.854   9.519  1.00  0.00     0.269 C 
HETATM   40  C   UNL     1      43.672  -8.713  11.722  1.00  0.00     0.269 C 
ENDBRANCH  36  37
ENDBRANCH  27  36
ENDBRANCH   2  23
TORSDOF 10
ENDMDL
MODEL 5
REMARK VINA RESULT:      -7.9      2.013      3.139
REMARK  10 active torsions:
REMARK  status: ('A' for Active; 'I' for Inactive)
REMARK    1  A    between atoms: C_2  and  C_3 
REMARK    2  A    between atoms: C_4  and  O_5 
REMARK    3  A    between atoms: C_6  and  C_7 
REMARK    4  A    between atoms: C_12  and  C_13 
REMARK    5  A    between atoms: N_14  and  N_15 
REMARK       I    between atoms: N_15  and  C_16 
REMARK    6  A    between atoms: C_16  and  C_17 
REMARK    7  A    between atoms: N_20  and  C_21 
REMARK    8  A    between atoms: C_25  and  N_26 
REMARK    9  A    between atoms: C_27  and  C_28 
REMARK   10  A    between atoms: C_28  and  N_29 
ROOT
HETATM    1  N   UNL     1      42.034  -9.357   6.568  1.00  0.00    -0.145 NA
HETATM    2  C   UNL     1      40.958  -8.622   7.048  1.00  0.00     0.273 C 
HETATM    3  O   UNL     1      40.645  -7.552   6.516  1.00  0.00    -0.270 OA
HETATM    4  H   UNL     1      42.385  -8.916   5.719  1.00  0.00     0.158 HD
ENDROOT
BRANCH   1   5
HETATM    5  N   UNL     1      41.894 -10.712   6.387  1.00  0.00    -0.205 NA
HETATM    6  C   UNL     1      42.531 -11.165   5.351  1.00  0.00     0.144 C 
BRANCH   6   7
HETATM    7  C   UNL     1      42.504 -12.591   4.971  1.00  0.00    -0.016 A 
HETATM    8  C   UNL     1      42.050 -12.985   3.714  1.00  0.00     0.023 A 
HETATM    9  C   UNL     1      42.042 -14.339   3.339  1.00  0.00    -0.016 A 
HETATM   10  C   UNL     1      42.477 -15.276   4.315  1.00  0.00     0.079 A 
HETATM   11  C   UNL     1      42.905 -14.914   5.620  1.00  0.00    -0.016 A 
HETATM   12  C   UNL     1      42.939 -13.536   5.902  1.00  0.00     0.023 A 
BRANCH   9  13
HETATM   13  C   UNL     1      41.587 -14.764   1.919  1.00  0.00    -0.021 C 
HETATM   14  C   UNL     1      41.369 -13.519   1.032  1.00  0.00     0.019 C 
HETATM   15  C   UNL     1      42.621 -15.651   1.174  1.00  0.00     0.019 C 
HETATM   16  C   UNL     1      40.288 -15.601   1.983  1.00  0.00     0.019 C 
ENDBRANCH   9  13
BRANCH  10  17
HETATM   17  O   UNL     1      42.461 -16.591   3.940  1.00  0.00    -0.360 OA
HETATM   18  H   UNL     1      42.006 -16.660   3.087  1.00  0.00     0.217 HD
ENDBRANCH  10  17
BRANCH  11  19
HETATM   19  C   UNL     1      43.309 -15.933   6.718  1.00  0.00    -0.021 C 
HETATM   20  C   UNL     1      44.797 -16.308   6.555  1.00  0.00     0.019 C 
HETATM   21  C   UNL     1      42.434 -17.210   6.686  1.00  0.00     0.019 C 
HETATM   22  C   UNL     1      43.151 -15.374   8.160  1.00  0.00     0.019 C 
ENDBRANCH  11  19
ENDBRANCH   6   7
ENDBRANCH   1   5
BRANCH   2  23
HETATM   23  C   UNL     1      40.217  -9.109   8.215  1.00  0.00     0.170 C 
HETATM   24  N   UNL     1      39.038  -9.790   8.143  1.00  0.00    -0.124 NA
HETATM   25  N   UNL     1      38.677 -10.140   9.363  1.00  0.00    -0.058 NA
HETATM   26  N   UNL     1      39.654  -9.786  10.233  1.00  0.00    -0.191 N 
HETATM   27  C   UNL     1      40.603  -9.013   9.551  1.00  0.00     0.101 C 
BRANCH  26  28
HETATM   28  C   UNL     1      39.640 -10.216  11.584  1.00  0.00     0.229 A 
HETATM   29  N   UNL     1      40.389  -9.595  12.497  1.00  0.00    -0.081 NA
HETATM   30  O   UNL     1      40.143 -10.310  13.672  1.00  0.00    -0.103 OA
HETATM   31  N   UNL     1      39.248 -11.347  13.450  1.00  0.00    -0.083 NA
HETATM   32  C   UNL     1      38.941 -11.293  12.156  1.00  0.00     0.201 A 
BRANCH  32  33
HETATM   33  N   UNL     1      38.091 -12.131  11.540  1.00  0.00    -0.379 N 
HETATM   34  H   UNL     1      37.384 -12.624  12.080  1.00  0.00     0.158 HD
HETATM   35  H   UNL     1      38.253 -12.506  10.608  1.00  0.00     0.158 HD
ENDBRANCH  32  33
ENDBRANCH  26  28
BRANCH  27  36
HETATM   36  C   UNL     1      41.773  -8.385  10.218  1.00  0.00     0.295 C 
BRANCH  36  37
HETATM   37  N   UNL     1      42.821  -9.339  10.742  1.00  0.00    -0.073 N 
HETATM   38  H   UNL     1      42.316 -10.069  11.282  1.00  0.00     0.279 HD
HETATM   39  C   UNL     1      43.599 -10.031   9.662  1.00  0.00     0.269 C 
HETATM   40  C   UNL     1      43.732  -8.676  11.736  1.00  0.00     0.269 C 
ENDBRANCH  36  37
ENDBRANCH  27  36
ENDBRANCH   2  23
TORSDOF 10
ENDMDL
MODEL 6
REMARK VINA RESULT:      -7.8      6.674     10.040
REMARK  10 active torsions:
REMARK  status: ('A' for Active; 'I' for Inactive)
REMARK    1  A    between atoms: C_2  and  C_3 
REMARK    2  A    between atoms: C_4  and  O_5 
REMARK    3  A    between atoms: C_6  and  C_7 
REMARK    4  A    between atoms: C_12  and  C_13 
REMARK    5  A    between atoms: N_14  and  N_15 
REMARK       I    between atoms: N_15  and  C_16 
REMARK    6  A    between atoms: C_16  and  C_17 
REMARK    7  A    between atoms: N_20  and  C_21 
REMARK    8  A    between atoms: C_25  and  N_26 
REMARK    9  A    between atoms: C_27  and  C_28 
REMARK   10  A    between atoms: C_28  and  N_29 
ROOT
HETATM    1  N   UNL     1      39.130 -14.828  -0.890  1.00  0.00    -0.145 NA
HETATM    2  C   UNL     1      38.828 -13.619  -1.503  1.00  0.00     0.273 C 
HETATM    3  O   UNL     1      37.660 -13.340  -1.792  1.00  0.00    -0.270 OA
HETATM    4  H   UNL     1      38.262 -15.314  -0.668  1.00  0.00     0.158 HD
ENDROOT
BRANCH   1   5
HETATM    5  N   UNL     1      39.982 -14.840   0.189  1.00  0.00    -0.205 NA
HETATM    6  C   UNL     1      39.919 -15.933   0.886  1.00  0.00     0.144 C 
BRANCH   6   7
HETATM    7  C   UNL     1      40.744 -16.146   2.091  1.00  0.00    -0.016 A 
HETATM    8  C   UNL     1      41.680 -17.177   2.140  1.00  0.00     0.023 A 
HETATM    9  C   UNL     1      42.484 -17.371   3.278  1.00  0.00    -0.016 A 
HETATM   10  C   UNL     1      42.262 -16.496   4.375  1.00  0.00     0.079 A 
HETATM   11  C   UNL     1      41.287 -15.463   4.375  1.00  0.00    -0.016 A 
HETATM   12  C   UNL     1      40.561 -15.294   3.182  1.00  0.00     0.023 A 
BRANCH   9  13
HETATM   13  C   UNL     1      43.561 -18.485   3.304  1.00  0.00    -0.021 C 
HETATM   14  C   UNL     1      44.965 -17.877   3.094  1.00  0.00     0.019 C 
HETATM   15  C   UNL     1      43.621 -19.260   4.649  1.00  0.00     0.019 C 
HETATM   16  C   UNL     1      43.279 -19.552   2.220  1.00  0.00     0.019 C 
ENDBRANCH   9  13
BRANCH  10  17
HETATM   17  O   UNL     1      43.046 -16.697   5.477  1.00  0.00    -0.360 OA
HETATM   18  H   UNL     1      42.626 -17.370   6.032  1.00  0.00     0.217 HD
ENDBRANCH  10  17
BRANCH  11  19
HETATM   19  C   UNL     1      40.984 -14.552   5.594  1.00  0.00    -0.021 C 
HETATM   20  C   UNL     1      40.374 -15.395   6.733  1.00  0.00     0.019 C 
HETATM   21  C   UNL     1      40.035 -13.383   5.234  1.00  0.00     0.019 C 
HETATM   22  C   UNL     1      42.254 -13.872   6.180  1.00  0.00     0.019 C 
ENDBRANCH  11  19
ENDBRANCH   6   7
ENDBRANCH   1   5
BRANCH   2  23
HETATM   23  C   UNL     1      39.911 -12.690  -1.835  1.00  0.00     0.170 C 
HETATM   24  N   UNL     1      40.658 -12.761  -2.974  1.00  0.00    -0.124 NA
HETATM   25  N   UNL     1      41.495 -11.742  -2.995  1.00  0.00    -0.058 NA
HETATM   26  N   UNL     1      41.243 -10.939  -1.933  1.00  0.00    -0.191 N 
HETATM   27  C   UNL     1      40.315 -11.577  -1.099  1.00  0.00     0.101 C 
BRANCH  26  28
HETATM   28  C   UNL     1      41.844  -9.662  -1.805  1.00  0.00     0.229 A 
HETATM   29  N   UNL     1      42.578  -9.366  -0.731  1.00  0.00    -0.081 NA
HETATM   30  O   UNL     1      42.960  -8.039  -0.943  1.00  0.00    -0.103 OA
HETATM   31  N   UNL     1      42.455  -7.557  -2.142  1.00  0.00    -0.083 NA
HETATM   32  C   UNL     1      41.758  -8.559  -2.674  1.00  0.00     0.201 A 
BRANCH  32  33
HETATM   33  N   UNL     1      41.111  -8.498  -3.849  1.00  0.00    -0.379 N 
HETATM   34  H   UNL     1      40.437  -9.218  -4.095  1.00  0.00     0.158 HD
HETATM   35  H   UNL     1      41.421  -7.920  -4.629  1.00  0.00     0.158 HD
ENDBRANCH  32  33
ENDBRANCH  26  28
BRANCH  27  36
HETATM   36  C   UNL     1      39.870 -11.017   0.203  1.00  0.00     0.295 C 
BRANCH  36  37
HETATM   37  N   UNL     1      40.020 -11.930   1.398  1.00  0.00    -0.073 N 
HETATM   38  H   UNL     1      40.227 -12.878   1.024  1.00  0.00     0.279 HD
HETATM   39  C   UNL     1      41.148 -11.547   2.310  1.00  0.00     0.269 C 
HETATM   40  C   UNL     1      38.730 -12.078   2.153  1.00  0.00     0.269 C 
ENDBRANCH  36  37
ENDBRANCH  27  36
ENDBRANCH   2  23
TORSDOF 10
ENDMDL
MODEL 7
REMARK VINA RESULT:      -7.7      1.545      1.989
REMARK  10 active torsions:
REMARK  status: ('A' for Active; 'I' for Inactive)
REMARK    1  A    between atoms: C_2  and  C_3 
REMARK    2  A    between atoms: C_4  and  O_5 
REMARK    3  A    between atoms: C_6  and  C_7 
REMARK    4  A    between atoms: C_12  and  C_13 
REMARK    5  A    between atoms: N_14  and  N_15 
REMARK       I    between atoms: N_15  and  C_16 
REMARK    6  A    between atoms: C_16  and  C_17 
REMARK    7  A    between atoms: N_20  and  C_21 
REMARK    8  A    between atoms: C_25  and  N_26 
REMARK    9  A    between atoms: C_27  and  C_28 
REMARK   10  A    between atoms: C_28  and  N_29 
ROOT
HETATM    1  N   UNL     1      45.964 -10.601   6.800  1.00  0.00    -0.145 NA
HETATM    2  C   UNL     1      46.138  -9.767   7.897  1.00  0.00     0.273 C 
HETATM    3  O   UNL     1      47.038  -8.920   7.901  1.00  0.00    -0.270 OA
HETATM    4  H   UNL     1      46.600 -10.311   6.057  1.00  0.00     0.158 HD
ENDROOT
BRANCH   1   5
HETATM    5  N   UNL     1      44.699 -10.801   6.303  1.00  0.00    -0.205 NA
HETATM    6  C   UNL     1      44.416 -12.051   6.094  1.00  0.00     0.144 C 
BRANCH   6   7
HETATM    7  C   UNL     1      43.112 -12.483   5.553  1.00  0.00    -0.016 A 
HETATM    8  C   UNL     1      42.087 -11.562   5.346  1.00  0.00     0.023 A 
HETATM    9  C   UNL     1      40.851 -11.964   4.811  1.00  0.00    -0.016 A 
HETATM   10  C   UNL     1      40.692 -13.350   4.536  1.00  0.00     0.079 A 
HETATM   11  C   UNL     1      41.701 -14.321   4.775  1.00  0.00    -0.016 A 
HETATM   12  C   UNL     1      42.929 -13.835   5.258  1.00  0.00     0.023 A 
BRANCH   9  13
HETATM   13  C   UNL     1      39.734 -10.926   4.533  1.00  0.00    -0.021 C 
HETATM   14  C   UNL     1      39.041 -11.233   3.187  1.00  0.00     0.019 C 
HETATM   15  C   UNL     1      38.611 -10.917   5.606  1.00  0.00     0.019 C 
HETATM   16  C   UNL     1      40.307  -9.490   4.516  1.00  0.00     0.019 C 
ENDBRANCH   9  13
BRANCH  10  17
HETATM   17  O   UNL     1      39.484 -13.729   4.019  1.00  0.00    -0.360 OA
HETATM   18  H   UNL     1      39.510 -13.604   3.059  1.00  0.00     0.217 HD
ENDBRANCH  10  17
BRANCH  11  19
HETATM   19  C   UNL     1      41.512 -15.845   4.550  1.00  0.00    -0.021 C 
HETATM   20  C   UNL     1      40.428 -16.380   5.509  1.00  0.00     0.019 C 
HETATM   21  C   UNL     1      42.829 -16.636   4.745  1.00  0.00     0.019 C 
HETATM   22  C   UNL     1      41.041 -16.197   3.111  1.00  0.00     0.019 C 
ENDBRANCH  11  19
ENDBRANCH   6   7
ENDBRANCH   1   5
BRANCH   2  23
HETATM   23  C   UNL     1      45.268  -9.922   9.064  1.00  0.00     0.170 C 
HETATM   24  N   UNL     1      45.338 -10.966   9.939  1.00  0.00    -0.124 NA
HETATM   25  N   UNL     1      44.466 -10.766  10.908  1.00  0.00    -0.058 NA
HETATM   26  N   UNL     1      43.887  -9.552  10.740  1.00  0.00    -0.191 N 
HETATM   27  C   UNL     1      44.286  -9.033   9.501  1.00  0.00     0.101 C 
BRANCH  26  28
HETATM   28  C   UNL     1      43.061  -8.976  11.737  1.00  0.00     0.229 A 
HETATM   29  N   UNL     1      43.556  -8.071  12.584  1.00  0.00    -0.081 NA
HETATM   30  O   UNL     1      42.477  -7.772  13.421  1.00  0.00    -0.103 OA
HETATM   31  N   UNL     1      41.349  -8.497  13.062  1.00  0.00    -0.083 NA
HETATM   32  C   UNL     1      41.711  -9.247  12.024  1.00  0.00     0.201 A 
BRANCH  32  33
HETATM   33  N   UNL     1      40.895 -10.094  11.375  1.00  0.00    -0.379 N 
HETATM   34  H   UNL     1      40.465  -9.812  10.499  1.00  0.00     0.158 HD
HETATM   35  H   UNL     1      40.473 -10.910  11.814  1.00  0.00     0.158 HD
ENDBRANCH  32  33
ENDBRANCH  26  28
BRANCH  27  36
HETATM   36  C   UNL     1      43.777  -7.749   8.954  1.00  0.00     0.295 C 
BRANCH  36  37
HETATM   37  N   UNL     1      42.425  -7.810   8.283  1.00  0.00    -0.073 N 
HETATM   38  H   UNL     1      42.528  -7.339   7.362  1.00  0.00     0.279 HD
HETATM   39  C   UNL     1      41.943  -9.207   8.026  1.00  0.00     0.269 C 
HETATM   40  C   UNL     1      41.397  -7.002   9.023  1.00  0.00     0.269 C 
ENDBRANCH  36  37
ENDBRANCH  27  36
ENDBRANCH   2  23
TORSDOF 10
ENDMDL
MODEL 8
REMARK VINA RESULT:      -7.7      6.595      9.962
REMARK  10 active torsions:
REMARK  status: ('A' for Active; 'I' for Inactive)
REMARK    1  A    between atoms: C_2  and  C_3 
REMARK    2  A    between atoms: C_4  and  O_5 
REMARK    3  A    between atoms: C_6  and  C_7 
REMARK    4  A    between atoms: C_12  and  C_13 
REMARK    5  A    between atoms: N_14  and  N_15 
REMARK       I    between atoms: N_15  and  C_16 
REMARK    6  A    between atoms: C_16  and  C_17 
REMARK    7  A    between atoms: N_20  and  C_21 
REMARK    8  A    between atoms: C_25  and  N_26 
REMARK    9  A    between atoms: C_27  and  C_28 
REMARK   10  A    between atoms: C_28  and  N_29 
ROOT
HETATM    1  N   UNL     1      39.154 -14.815  -0.800  1.00  0.00    -0.145 NA
HETATM    2  C   UNL     1      38.828 -13.641  -1.467  1.00  0.00     0.273 C 
HETATM    3  O   UNL     1      37.654 -13.392  -1.758  1.00  0.00    -0.270 OA
HETATM    4  H   UNL     1      38.295 -15.302  -0.547  1.00  0.00     0.158 HD
ENDROOT
BRANCH   1   5
HETATM    5  N   UNL     1      40.015 -14.763   0.270  1.00  0.00    -0.205 NA
HETATM    6  C   UNL     1      40.107 -15.886   0.914  1.00  0.00     0.144 C 
BRANCH   6   7
HETATM    7  C   UNL     1      40.970 -16.043   2.102  1.00  0.00    -0.016 A 
HETATM    8  C   UNL     1      40.982 -15.076   3.106  1.00  0.00     0.023 A 
HETATM    9  C   UNL     1      41.786 -15.231   4.249  1.00  0.00    -0.016 A 
HETATM   10  C   UNL     1      42.605 -16.391   4.304  1.00  0.00     0.079 A 
HETATM   11  C   UNL     1      42.649 -17.374   3.279  1.00  0.00    -0.016 A 
HETATM   12  C   UNL     1      41.776 -17.179   2.194  1.00  0.00     0.023 A 
BRANCH   9  13
HETATM   13  C   UNL     1      41.753 -14.178   5.386  1.00  0.00    -0.021 C 
HETATM   14  C   UNL     1      43.001 -13.271   5.311  1.00  0.00     0.019 C 
HETATM   15  C   UNL     1      40.524 -13.231   5.322  1.00  0.00     0.019 C 
HETATM   16  C   UNL     1      41.681 -14.863   6.771  1.00  0.00     0.019 C 
ENDBRANCH   9  13
BRANCH  10  17
HETATM   17  O   UNL     1      43.385 -16.528   5.419  1.00  0.00    -0.360 OA
HETATM   18  H   UNL     1      44.265 -16.175   5.221  1.00  0.00     0.217 HD
ENDBRANCH  10  17
BRANCH  11  19
HETATM   19  C   UNL     1      43.595 -18.604   3.294  1.00  0.00    -0.021 C 
HETATM   20  C   UNL     1      43.218 -19.561   2.144  1.00  0.00     0.019 C 
HETATM   21  C   UNL     1      43.559 -19.358   4.645  1.00  0.00     0.019 C 
HETATM   22  C   UNL     1      45.090 -18.229   3.083  1.00  0.00     0.019 C 
ENDBRANCH  11  19
ENDBRANCH   6   7
ENDBRANCH   1   5
BRANCH   2  23
HETATM   23  C   UNL     1      39.895 -12.714  -1.853  1.00  0.00     0.170 C 
HETATM   24  N   UNL     1      40.602 -12.801  -3.016  1.00  0.00    -0.124 NA
HETATM   25  N   UNL     1      41.433 -11.779  -3.084  1.00  0.00    -0.058 NA
HETATM   26  N   UNL     1      41.215 -10.959  -2.027  1.00  0.00    -0.191 N 
HETATM   27  C   UNL     1      40.320 -11.587  -1.150  1.00  0.00     0.101 C 
BRANCH  26  28
HETATM   28  C   UNL     1      41.814  -9.678  -1.941  1.00  0.00     0.229 A 
HETATM   29  N   UNL     1      42.684  -9.403  -0.967  1.00  0.00    -0.081 NA
HETATM   30  O   UNL     1      43.020  -8.065  -1.188  1.00  0.00    -0.103 OA
HETATM   31  N   UNL     1      42.352  -7.555  -2.293  1.00  0.00    -0.083 NA
HETATM   32  C   UNL     1      41.600  -8.551  -2.756  1.00  0.00     0.201 A 
BRANCH  32  33
HETATM   33  N   UNL     1      40.799  -8.465  -3.831  1.00  0.00    -0.379 N 
HETATM   34  H   UNL     1      41.140  -8.026  -4.683  1.00  0.00     0.158 HD
HETATM   35  H   UNL     1      39.789  -8.581  -3.786  1.00  0.00     0.158 HD
ENDBRANCH  32  33
ENDBRANCH  26  28
BRANCH  27  36
HETATM   36  C   UNL     1      39.919 -11.007   0.158  1.00  0.00     0.295 C 
BRANCH  36  37
HETATM   37  N   UNL     1      40.197 -11.863   1.371  1.00  0.00    -0.073 N 
HETATM   38  H   UNL     1      40.264 -12.844   1.033  1.00  0.00     0.279 HD
HETATM   39  C   UNL     1      41.488 -11.532   2.059  1.00  0.00     0.269 C 
HETATM   40  C   UNL     1      39.044 -11.858   2.334  1.00  0.00     0.269 C 
ENDBRANCH  36  37
ENDBRANCH  27  36
ENDBRANCH   2  23
TORSDOF 10
ENDMDL
MODEL 9
REMARK VINA RESULT:      -7.4      3.523      8.634
REMARK  10 active torsions:
REMARK  status: ('A' for Active; 'I' for Inactive)
REMARK    1  A    between atoms: C_2  and  C_3 
REMARK    2  A    between atoms: C_4  and  O_5 
REMARK    3  A    between atoms: C_6  and  C_7 
REMARK    4  A    between atoms: C_12  and  C_13 
REMARK    5  A    between atoms: N_14  and  N_15 
REMARK       I    between atoms: N_15  and  C_16 
REMARK    6  A    between atoms: C_16  and  C_17 
REMARK    7  A    between atoms: N_20  and  C_21 
REMARK    8  A    between atoms: C_25  and  N_26 
REMARK    9  A    between atoms: C_27  and  C_28 
REMARK   10  A    between atoms: C_28  and  N_29 
ROOT
HETATM    1  N   UNL     1      38.582  -8.939   6.574  1.00  0.00    -0.145 NA
HETATM    2  C   UNL     1      38.547  -9.754   5.450  1.00  0.00     0.273 C 
HETATM    3  O   UNL     1      38.001  -9.365   4.413  1.00  0.00    -0.270 OA
HETATM    4  H   UNL     1      38.199  -8.025   6.333  1.00  0.00     0.158 HD
ENDROOT
BRANCH   1   5
HETATM    5  N   UNL     1      39.760  -8.802   7.268  1.00  0.00    -0.205 NA
HETATM    6  C   UNL     1      39.632  -8.982   8.547  1.00  0.00     0.144 C 
BRANCH   6   7
HETATM    7  C   UNL     1      40.773  -8.871   9.476  1.00  0.00    -0.016 A 
HETATM    8  C   UNL     1      40.607  -8.323  10.747  1.00  0.00     0.023 A 
HETATM    9  C   UNL     1      41.686  -8.235  11.643  1.00  0.00    -0.016 A 
HETATM   10  C   UNL     1      42.948  -8.690  11.174  1.00  0.00     0.079 A 
HETATM   11  C   UNL     1      43.162  -9.213   9.871  1.00  0.00    -0.016 A 
HETATM   12  C   UNL     1      42.024  -9.323   9.051  1.00  0.00     0.023 A 
BRANCH   9  13
HETATM   13  C   UNL     1      41.481  -7.675  13.074  1.00  0.00    -0.021 C 
HETATM   14  C   UNL     1      42.361  -6.424  13.290  1.00  0.00     0.019 C 
HETATM   15  C   UNL     1      40.021  -7.233  13.366  1.00  0.00     0.019 C 
HETATM   16  C   UNL     1      41.814  -8.745  14.140  1.00  0.00     0.019 C 
ENDBRANCH   9  13
BRANCH  10  17
HETATM   17  O   UNL     1      43.990  -8.595  12.054  1.00  0.00    -0.360 OA
HETATM   18  H   UNL     1      44.388  -9.473  12.151  1.00  0.00     0.217 HD
ENDBRANCH  10  17
BRANCH  11  19
HETATM   19  C   UNL     1      44.549  -9.642   9.322  1.00  0.00    -0.021 C 
HETATM   20  C   UNL     1      45.409 -10.206  10.471  1.00  0.00     0.019 C 
HETATM   21  C   UNL     1      45.292  -8.475   8.627  1.00  0.00     0.019 C 
HETATM   22  C   UNL     1      44.461 -10.761   8.246  1.00  0.00     0.019 C 
ENDBRANCH  11  19
ENDBRANCH   6   7
ENDBRANCH   1   5
BRANCH   2  23
HETATM   23  C   UNL     1      39.132 -11.096   5.517  1.00  0.00     0.170 C 
HETATM   24  N   UNL     1      38.786 -12.037   6.441  1.00  0.00    -0.124 NA
HETATM   25  N   UNL     1      39.446 -13.149   6.179  1.00  0.00    -0.058 NA
HETATM   26  N   UNL     1      40.150 -12.988   5.032  1.00  0.00    -0.191 N 
HETATM   27  C   UNL     1      40.070 -11.645   4.643  1.00  0.00     0.101 C 
BRANCH  26  28
HETATM   28  C   UNL     1      40.791 -14.078   4.392  1.00  0.00     0.229 A 
HETATM   29  N   UNL     1      41.968 -14.523   4.834  1.00  0.00    -0.081 NA
HETATM   30  O   UNL     1      42.290 -15.554   3.948  1.00  0.00    -0.103 OA
HETATM   31  N   UNL     1      41.300 -15.717   2.988  1.00  0.00    -0.083 NA
HETATM   32  C   UNL     1      40.374 -14.800   3.259  1.00  0.00     0.201 A 
BRANCH  32  33
HETATM   33  N   UNL     1      39.241 -14.632   2.558  1.00  0.00    -0.379 N 
HETATM   34  H   UNL     1      38.477 -15.294   2.663  1.00  0.00     0.158 HD
HETATM   35  H   UNL     1      39.173 -14.030   1.740  1.00  0.00     0.158 HD
ENDBRANCH  32  33
ENDBRANCH  26  28
BRANCH  27  36
HETATM   36  C   UNL     1      40.793 -11.092   3.468  1.00  0.00     0.295 C 
BRANCH  36  37
HETATM   37  N   UNL     1      42.195 -10.594   3.733  1.00  0.00    -0.073 N 
HETATM   38  H   UNL     1      42.316  -9.732   3.165  1.00  0.00     0.279 HD
HETATM   39  C   UNL     1      42.444 -10.231   5.167  1.00  0.00     0.269 C 
HETATM   40  C   UNL     1      43.233 -11.551   3.220  1.00  0.00     0.269 C 
ENDBRANCH  36  37
ENDBRANCH  27  36
ENDBRANCH   2  23
TORSDOF 10
ENDMDL
MODEL 10
REMARK VINA RESULT:      -7.3      3.515      8.498
REMARK  10 active torsions:
REMARK  status: ('A' for Active; 'I' for Inactive)
REMARK    1  A    between atoms: C_2  and  C_3 
REMARK    2  A    between atoms: C_4  and  O_5 
REMARK    3  A    between atoms: C_6  and  C_7 
REMARK    4  A    between atoms: C_12  and  C_13 
REMARK    5  A    between atoms: N_14  and  N_15 
REMARK       I    between atoms: N_15  and  C_16 
REMARK    6  A    between atoms: C_16  and  C_17 
REMARK    7  A    between atoms: N_20  and  C_21 
REMARK    8  A    between atoms: C_25  and  N_26 
REMARK    9  A    between atoms: C_27  and  C_28 
REMARK   10  A    between atoms: C_28  and  N_29 
ROOT
HETATM    1  N   UNL     1      38.584  -8.867   6.422  1.00  0.00    -0.145 NA
HETATM    2  C   UNL     1      38.533  -9.721   5.327  1.00  0.00     0.273 C 
HETATM    3  O   UNL     1      37.987  -9.362   4.279  1.00  0.00    -0.270 OA
HETATM    4  H   UNL     1      38.210  -7.958   6.151  1.00  0.00     0.158 HD
ENDROOT
BRANCH   1   5
HETATM    5  N   UNL     1      39.768  -8.720   7.104  1.00  0.00    -0.205 NA
HETATM    6  C   UNL     1      39.682  -9.029   8.362  1.00  0.00     0.144 C 
BRANCH   6   7
HETATM    7  C   UNL     1      40.836  -8.932   9.277  1.00  0.00    -0.016 A 
HETATM    8  C   UNL     1      42.097  -9.374   8.881  1.00  0.00     0.023 A 
HETATM    9  C   UNL     1      43.204  -9.264   9.740  1.00  0.00    -0.016 A 
HETATM   10  C   UNL     1      42.962  -8.723  11.032  1.00  0.00     0.079 A 
HETATM   11  C   UNL     1      41.682  -8.303  11.483  1.00  0.00    -0.016 A 
HETATM   12  C   UNL     1      40.634  -8.392  10.548  1.00  0.00     0.023 A 
BRANCH   9  13
HETATM   13  C   UNL     1      44.615  -9.708   9.274  1.00  0.00    -0.021 C 
HETATM   14  C   UNL     1      44.500 -10.825   8.213  1.00  0.00     0.019 C 
HETATM   15  C   UNL     1      45.439  -8.568   8.615  1.00  0.00     0.019 C 
HETATM   16  C   UNL     1      45.463 -10.199  10.469  1.00  0.00     0.019 C 
ENDBRANCH   9  13
BRANCH  10  17
HETATM   17  O   UNL     1      44.046  -8.625  11.860  1.00  0.00    -0.360 OA
HETATM   18  H   UNL     1      43.727  -8.502  12.767  1.00  0.00     0.217 HD
ENDBRANCH  10  17
BRANCH  11  19
HETATM   19  C   UNL     1      41.391  -7.783  12.916  1.00  0.00    -0.021 C 
HETATM   20  C   UNL     1      39.880  -7.521  13.076  1.00  0.00     0.019 C 
HETATM   21  C   UNL     1      42.190  -6.499  13.249  1.00  0.00     0.019 C 
HETATM   22  C   UNL     1      41.783  -8.799  14.026  1.00  0.00     0.019 C 
ENDBRANCH  11  19
ENDBRANCH   6   7
ENDBRANCH   1   5
BRANCH   2  23
HETATM   23  C   UNL     1      39.104 -11.066   5.437  1.00  0.00     0.170 C 
HETATM   24  N   UNL     1      38.728 -11.984   6.374  1.00  0.00    -0.124 NA
HETATM   25  N   UNL     1      39.383 -13.106   6.152  1.00  0.00    -0.058 NA
HETATM   26  N   UNL     1      40.116 -12.977   5.019  1.00  0.00    -0.191 N 
HETATM   27  C   UNL     1      40.058 -11.642   4.599  1.00  0.00     0.101 C 
BRANCH  26  28
HETATM   28  C   UNL     1      40.762 -14.086   4.418  1.00  0.00     0.229 A 
HETATM   29  N   UNL     1      41.919 -14.538   4.904  1.00  0.00    -0.081 NA
HETATM   30  O   UNL     1      42.254 -15.589   4.047  1.00  0.00    -0.103 OA
HETATM   31  N   UNL     1      41.292 -15.758   3.061  1.00  0.00    -0.083 NA
HETATM   32  C   UNL     1      40.370 -14.824   3.286  1.00  0.00     0.201 A 
BRANCH  32  33
HETATM   33  N   UNL     1      39.261 -14.655   2.549  1.00  0.00    -0.379 N 
HETATM   34  H   UNL     1      39.250 -14.949   1.575  1.00  0.00     0.158 HD
HETATM   35  H   UNL     1      38.504 -14.028   2.813  1.00  0.00     0.158 HD
ENDBRANCH  32  33
ENDBRANCH  26  28
BRANCH  27  36
HETATM   36  C   UNL     1      40.814 -11.122   3.430  1.00  0.00     0.295 C 
BRANCH  36  37
HETATM   37  N   UNL     1      42.224 -10.659   3.711  1.00  0.00    -0.073 N 
HETATM   38  H   UNL     1      42.368  -9.790   3.159  1.00  0.00     0.279 HD
HETATM   39  C   UNL     1      42.472 -10.325   5.153  1.00  0.00     0.269 C 
HETATM   40  C   UNL     1      43.246 -11.629   3.189  1.00  0.00     0.269 C 
ENDBRANCH  36  37
ENDBRANCH  27  36
ENDBRANCH   2  23
TORSDOF 10
ENDMDL
