MODEL 1
REMARK VINA RESULT:      -8.5      0.000      0.000
REMARK  2 active torsions:
REMARK  status: ('A' for Active; 'I' for Inactive)
REMARK    1  A    between atoms: N_3  and  C_4 
REMARK    2  A    between atoms: C_12  and  C_13 
REMARK       I    between atoms: C_13  and  N_14 
ROOT
HETATM    1  C   UNL     1      40.988 -13.222   2.863  1.00  0.00     0.262 C 
HETATM    2  N   UNL     1      40.493 -12.488   1.767  1.00  0.00    -0.311 N 
HETATM    3  C   UNL     1      40.354 -12.957   0.434  1.00  0.00     0.064 A 
HETATM    4  C   UNL     1      40.581 -12.140  -0.693  1.00  0.00     0.061 A 
HETATM    5  C   UNL     1      40.411 -12.698  -1.975  1.00  0.00     0.032 A 
HETATM    6  C   UNL     1      40.001 -14.018  -2.152  1.00  0.00     0.002 A 
HETATM    7  C   UNL     1      39.743 -14.811  -1.045  1.00  0.00     0.002 A 
HETATM    8  C   UNL     1      39.912 -14.282   0.235  1.00  0.00     0.032 A 
HETATM    9  N   UNL     1      41.005 -10.794  -0.705  1.00  0.00    -0.325 N 
HETATM   10  C   UNL     1      41.252  -9.858   0.249  1.00  0.00     0.227 C 
HETATM   11  O   UNL     1      41.599  -8.743  -0.155  1.00  0.00    -0.273 OA
HETATM   12  C   UNL     1      41.184 -10.166   1.727  1.00  0.00     0.092 C 
HETATM   13  C   UNL     1      41.004  -8.874   2.530  1.00  0.00     0.021 C 
HETATM   14  C   UNL     1      40.047 -11.122   2.017  1.00  0.00     0.146 C 
HETATM   15  O   UNL     1      40.766 -12.861   4.020  1.00  0.00    -0.267 OA
HETATM   16  H   UNL     1      41.136 -10.379  -1.621  1.00  0.00     0.169 HD
ENDROOT
BRANCH   1  17
HETATM   17  C   UNL     1      41.869 -14.369   2.631  1.00  0.00     0.075 C 
HETATM   18  C   UNL     1      41.690 -15.658   3.135  1.00  0.00     0.050 C 
HETATM   19  C   UNL     1      40.520 -16.193   3.884  1.00  0.00     0.071 C 
HETATM   20  N   UNL     1      42.807 -16.396   2.754  1.00  0.00    -0.238 N 
HETATM   21  N   UNL     1      43.598 -15.676   1.915  1.00  0.00    -0.179 NA
HETATM   22  C   UNL     1      43.085 -14.450   1.929  1.00  0.00     0.158 C 
BRANCH  20  23
HETATM   23  C   UNL     1      43.215 -17.717   3.105  1.00  0.00     0.061 A 
HETATM   24  C   UNL     1      43.103 -18.735   2.149  1.00  0.00     0.051 A 
HETATM   25  C   UNL     1      43.500 -20.015   2.494  1.00  0.00     0.118 A 
HETATM   26  N   UNL     1      44.009 -20.341   3.699  1.00  0.00    -0.273 NA
HETATM   27  C   UNL     1      44.139 -19.339   4.593  1.00  0.00     0.118 A 
HETATM   28  C   UNL     1      43.762 -18.027   4.350  1.00  0.00     0.051 A 
ENDBRANCH  20  23
ENDBRANCH   1  17
TORSDOF 2
ENDMDL
MODEL 2
REMARK VINA RESULT:      -8.5      4.019      5.909
REMARK  2 active torsions:
REMARK  status: ('A' for Active; 'I' for Inactive)
REMARK    1  A    between atoms: N_3  and  C_4 
REMARK    2  A    between atoms: C_12  and  C_13 
REMARK       I    between atoms: C_13  and  N_14 
ROOT
HETATM    1  C   UNL     1      41.467 -11.917   4.595  1.00  0.00     0.262 C 
HETATM    2  N   UNL     1      41.943 -10.900   5.445  1.00  0.00    -0.311 N 
HETATM    3  C   UNL     1      43.118 -10.949   6.242  1.00  0.00     0.064 A 
HETATM    4  C   UNL     1      43.199 -10.365   7.523  1.00  0.00     0.061 A 
HETATM    5  C   UNL     1      44.412 -10.464   8.233  1.00  0.00     0.032 A 
HETATM    6  C   UNL     1      45.529 -11.097   7.692  1.00  0.00     0.002 A 
HETATM    7  C   UNL     1      45.460 -11.640   6.418  1.00  0.00     0.002 A 
HETATM    8  C   UNL     1      44.268 -11.560   5.699  1.00  0.00     0.032 A 
HETATM    9  N   UNL     1      42.175  -9.697   8.227  1.00  0.00    -0.325 N 
HETATM   10  C   UNL     1      40.896  -9.334   7.945  1.00  0.00     0.227 C 
HETATM   11  O   UNL     1      40.291  -8.722   8.833  1.00  0.00    -0.273 OA
HETATM   12  C   UNL     1      40.209  -9.716   6.655  1.00  0.00     0.092 C 
HETATM   13  C   UNL     1      39.021  -8.786   6.391  1.00  0.00     0.021 C 
HETATM   14  C   UNL     1      41.184  -9.656   5.498  1.00  0.00     0.146 C 
HETATM   15  O   UNL     1      40.648 -11.670   3.708  1.00  0.00    -0.267 OA
HETATM   16  H   UNL     1      42.420  -9.361   9.153  1.00  0.00     0.169 HD
ENDROOT
BRANCH   1  17
HETATM   17  C   UNL     1      41.864 -13.307   4.833  1.00  0.00     0.075 C 
HETATM   18  C   UNL     1      42.564 -14.125   3.946  1.00  0.00     0.050 C 
HETATM   19  C   UNL     1      43.185 -13.745   2.647  1.00  0.00     0.071 C 
HETATM   20  N   UNL     1      42.635 -15.385   4.532  1.00  0.00    -0.238 N 
HETATM   21  N   UNL     1      42.146 -15.355   5.800  1.00  0.00    -0.179 NA
HETATM   22  C   UNL     1      41.604 -14.148   5.930  1.00  0.00     0.158 C 
BRANCH  20  23
HETATM   23  C   UNL     1      43.112 -16.627   4.018  1.00  0.00     0.061 A 
HETATM   24  C   UNL     1      44.043 -17.356   4.770  1.00  0.00     0.051 A 
HETATM   25  C   UNL     1      44.503 -18.561   4.267  1.00  0.00     0.118 A 
HETATM   26  N   UNL     1      44.093 -19.088   3.096  1.00  0.00    -0.273 NA
HETATM   27  C   UNL     1      43.172 -18.386   2.404  1.00  0.00     0.118 A 
HETATM   28  C   UNL     1      42.656 -17.166   2.815  1.00  0.00     0.051 A 
ENDBRANCH  20  23
ENDBRANCH   1  17
TORSDOF 2
ENDMDL
MODEL 3
REMARK VINA RESULT:      -7.8      8.806     10.887
REMARK  2 active torsions:
REMARK  status: ('A' for Active; 'I' for Inactive)
REMARK    1  A    between atoms: N_3  and  C_4 
REMARK    2  A    between atoms: C_12  and  C_13 
REMARK       I    between atoms: C_13  and  N_14 
ROOT
HETATM    1  C   UNL     1      43.008  -8.112  12.291  1.00  0.00     0.262 C 
HETATM    2  N   UNL     1      41.843  -7.378  11.994  1.00  0.00    -0.311 N 
HETATM    3  C   UNL     1      40.790  -7.782  11.130  1.00  0.00     0.064 A 
HETATM    4  C   UNL     1      40.092  -6.881  10.300  1.00  0.00     0.061 A 
HETATM    5  C   UNL     1      39.059  -7.379   9.482  1.00  0.00     0.032 A 
HETATM    6  C   UNL     1      38.698  -8.725   9.495  1.00  0.00     0.002 A 
HETATM    7  C   UNL     1      39.360  -9.605  10.337  1.00  0.00     0.002 A 
HETATM    8  C   UNL     1      40.391  -9.135  11.151  1.00  0.00     0.032 A 
HETATM    9  N   UNL     1      40.324  -5.497  10.152  1.00  0.00    -0.325 N 
HETATM   10  C   UNL     1      41.155  -4.595  10.737  1.00  0.00     0.227 C 
HETATM   11  O   UNL     1      41.056  -3.426  10.349  1.00  0.00    -0.273 OA
HETATM   12  C   UNL     1      42.200  -4.994  11.753  1.00  0.00     0.092 C 
HETATM   13  C   UNL     1      42.618  -3.780  12.589  1.00  0.00     0.021 C 
HETATM   14  C   UNL     1      41.672  -6.089  12.654  1.00  0.00     0.146 C 
HETATM   15  O   UNL     1      43.689  -7.847  13.283  1.00  0.00    -0.267 OA
HETATM   16  H   UNL     1      39.728  -5.016   9.485  1.00  0.00     0.169 HD
ENDROOT
BRANCH   1  17
HETATM   17  C   UNL     1      43.480  -9.136  11.354  1.00  0.00     0.075 C 
HETATM   18  C   UNL     1      43.815  -8.931  10.015  1.00  0.00     0.050 C 
HETATM   19  C   UNL     1      43.911  -7.639   9.282  1.00  0.00     0.071 C 
HETATM   20  N   UNL     1      44.110 -10.183   9.481  1.00  0.00    -0.238 N 
HETATM   21  N   UNL     1      44.120 -11.132  10.454  1.00  0.00    -0.179 NA
HETATM   22  C   UNL     1      43.651 -10.520  11.535  1.00  0.00     0.158 C 
BRANCH  20  23
HETATM   23  C   UNL     1      44.379 -10.583   8.138  1.00  0.00     0.061 A 
HETATM   24  C   UNL     1      43.311 -10.685   7.238  1.00  0.00     0.051 A 
HETATM   25  C   UNL     1      43.576 -11.075   5.936  1.00  0.00     0.118 A 
HETATM   26  N   UNL     1      44.813 -11.346   5.474  1.00  0.00    -0.273 NA
HETATM   27  C   UNL     1      45.831 -11.209   6.349  1.00  0.00     0.118 A 
HETATM   28  C   UNL     1      45.670 -10.835   7.675  1.00  0.00     0.051 A 
ENDBRANCH  20  23
ENDBRANCH   1  17
TORSDOF 2
ENDMDL
MODEL 4
REMARK VINA RESULT:      -7.8      2.544      4.379
REMARK  2 active torsions:
REMARK  status: ('A' for Active; 'I' for Inactive)
REMARK    1  A    between atoms: N_3  and  C_4 
REMARK    2  A    between atoms: C_12  and  C_13 
REMARK       I    between atoms: C_13  and  N_14 
ROOT
HETATM    1  C   UNL     1      41.071 -12.829   2.407  1.00  0.00     0.262 C 
HETATM    2  N   UNL     1      41.142 -11.644   3.165  1.00  0.00    -0.311 N 
HETATM    3  C   UNL     1      41.876 -11.456   4.367  1.00  0.00     0.064 A 
HETATM    4  C   UNL     1      41.411 -10.656   5.431  1.00  0.00     0.061 A 
HETATM    5  C   UNL     1      42.215 -10.527   6.580  1.00  0.00     0.032 A 
HETATM    6  C   UNL     1      43.461 -11.146   6.676  1.00  0.00     0.002 A 
HETATM    7  C   UNL     1      43.934 -11.903   5.615  1.00  0.00     0.002 A 
HETATM    8  C   UNL     1      43.151 -12.050   4.470  1.00  0.00     0.032 A 
HETATM    9  N   UNL     1      40.182  -9.967   5.512  1.00  0.00    -0.325 N 
HETATM   10  C   UNL     1      39.136  -9.769   4.667  1.00  0.00     0.227 C 
HETATM   11  O   UNL     1      38.212  -9.068   5.094  1.00  0.00    -0.273 OA
HETATM   12  C   UNL     1      39.054 -10.424   3.308  1.00  0.00     0.092 C 
HETATM   13  C   UNL     1      38.079  -9.657   2.408  1.00  0.00     0.021 C 
HETATM   14  C   UNL     1      40.423 -10.479   2.664  1.00  0.00     0.146 C 
HETATM   15  O   UNL     1      40.697 -12.809   1.233  1.00  0.00    -0.267 OA
HETATM   16  H   UNL     1      40.015  -9.458   6.374  1.00  0.00     0.169 HD
ENDROOT
BRANCH   1  17
HETATM   17  C   UNL     1      41.341 -14.119   3.048  1.00  0.00     0.075 C 
HETATM   18  C   UNL     1      42.380 -14.994   2.727  1.00  0.00     0.050 C 
HETATM   19  C   UNL     1      43.512 -14.765   1.789  1.00  0.00     0.071 C 
HETATM   20  N   UNL     1      42.199 -16.133   3.507  1.00  0.00    -0.238 N 
HETATM   21  N   UNL     1      41.190 -15.951   4.400  1.00  0.00    -0.179 NA
HETATM   22  C   UNL     1      40.629 -14.797   4.053  1.00  0.00     0.158 C 
BRANCH  20  23
HETATM   23  C   UNL     1      42.876 -17.388   3.495  1.00  0.00     0.061 A 
HETATM   24  C   UNL     1      42.749 -18.213   2.370  1.00  0.00     0.051 A 
HETATM   25  C   UNL     1      43.407 -19.430   2.362  1.00  0.00     0.118 A 
HETATM   26  N   UNL     1      44.186 -19.865   3.374  1.00  0.00    -0.273 NA
HETATM   27  C   UNL     1      44.321 -19.041   4.433  1.00  0.00     0.118 A 
HETATM   28  C   UNL     1      43.696 -17.808   4.542  1.00  0.00     0.051 A 
ENDBRANCH  20  23
ENDBRANCH   1  17
TORSDOF 2
ENDMDL
MODEL 5
REMARK VINA RESULT:      -7.7      3.970      6.000
REMARK  2 active torsions:
REMARK  status: ('A' for Active; 'I' for Inactive)
REMARK    1  A    between atoms: N_3  and  C_4 
REMARK    2  A    between atoms: C_12  and  C_13 
REMARK       I    between atoms: C_13  and  N_14 
ROOT
HETATM    1  C   UNL     1      40.360 -11.432   3.070  1.00  0.00     0.262 C 
HETATM    2  N   UNL     1      39.980 -12.637   2.448  1.00  0.00    -0.311 N 
HETATM    3  C   UNL     1      40.456 -13.937   2.767  1.00  0.00     0.064 A 
HETATM    4  C   UNL     1      40.676 -14.932   1.792  1.00  0.00     0.061 A 
HETATM    5  C   UNL     1      41.145 -16.193   2.211  1.00  0.00     0.032 A 
HETATM    6  C   UNL     1      41.370 -16.483   3.555  1.00  0.00     0.002 A 
HETATM    7  C   UNL     1      41.119 -15.516   4.516  1.00  0.00     0.002 A 
HETATM    8  C   UNL     1      40.661 -14.258   4.126  1.00  0.00     0.032 A 
HETATM    9  N   UNL     1      40.512 -14.815   0.396  1.00  0.00    -0.325 N 
HETATM   10  C   UNL     1      40.060 -13.843  -0.439  1.00  0.00     0.227 C 
HETATM   11  O   UNL     1      40.043 -14.120  -1.644  1.00  0.00    -0.273 OA
HETATM   12  C   UNL     1      39.668 -12.469   0.051  1.00  0.00     0.092 C 
HETATM   13  C   UNL     1      38.753 -11.783  -0.968  1.00  0.00     0.021 C 
HETATM   14  C   UNL     1      38.975 -12.563   1.394  1.00  0.00     0.146 C 
HETATM   15  O   UNL     1      39.668 -10.418   2.965  1.00  0.00    -0.267 OA
HETATM   16  H   UNL     1      40.743 -15.641  -0.148  1.00  0.00     0.169 HD
ENDROOT
BRANCH   1  17
HETATM   17  C   UNL     1      41.649 -11.348   3.762  1.00  0.00     0.075 C 
HETATM   18  C   UNL     1      41.835 -11.206   5.138  1.00  0.00     0.050 C 
HETATM   19  C   UNL     1      40.804 -11.254   6.210  1.00  0.00     0.071 C 
HETATM   20  N   UNL     1      43.204 -11.065   5.345  1.00  0.00    -0.238 N 
HETATM   21  N   UNL     1      43.890 -11.260   4.187  1.00  0.00    -0.179 NA
HETATM   22  C   UNL     1      42.956 -11.328   3.244  1.00  0.00     0.158 C 
BRANCH  20  23
HETATM   23  C   UNL     1      43.941 -10.756   6.527  1.00  0.00     0.061 A 
HETATM   24  C   UNL     1      45.247 -11.247   6.656  1.00  0.00     0.051 A 
HETATM   25  C   UNL     1      45.958 -10.946   7.804  1.00  0.00     0.118 A 
HETATM   26  N   UNL     1      45.473 -10.186   8.806  1.00  0.00    -0.273 NA
HETATM   27  C   UNL     1      44.227  -9.695   8.647  1.00  0.00     0.118 A 
HETATM   28  C   UNL     1      43.429  -9.947   7.540  1.00  0.00     0.051 A 
ENDBRANCH  20  23
ENDBRANCH   1  17
TORSDOF 2
ENDMDL
MODEL 6
REMARK VINA RESULT:      -7.6      2.589      6.345
REMARK  2 active torsions:
REMARK  status: ('A' for Active; 'I' for Inactive)
REMARK    1  A    between atoms: N_3  and  C_4 
REMARK    2  A    between atoms: C_12  and  C_13 
REMARK       I    between atoms: C_13  and  N_14 
ROOT
HETATM    1  C   UNL     1      41.423 -11.058   2.825  1.00  0.00     0.262 C 
HETATM    2  N   UNL     1      41.737 -12.139   3.671  1.00  0.00    -0.311 N 
HETATM    3  C   UNL     1      42.168 -13.430   3.264  1.00  0.00     0.064 A 
HETATM    4  C   UNL     1      41.784 -14.611   3.932  1.00  0.00     0.061 A 
HETATM    5  C   UNL     1      42.269 -15.844   3.453  1.00  0.00     0.032 A 
HETATM    6  C   UNL     1      43.132 -15.919   2.361  1.00  0.00     0.002 A 
HETATM    7  C   UNL     1      43.538 -14.755   1.727  1.00  0.00     0.002 A 
HETATM    8  C   UNL     1      43.065 -13.523   2.179  1.00  0.00     0.032 A 
HETATM    9  N   UNL     1      40.918 -14.727   5.040  1.00  0.00    -0.325 N 
HETATM   10  C   UNL     1      40.262 -13.847   5.841  1.00  0.00     0.227 C 
HETATM   11  O   UNL     1      39.588 -14.334   6.755  1.00  0.00    -0.273 OA
HETATM   12  C   UNL     1      40.283 -12.356   5.597  1.00  0.00     0.092 C 
HETATM   13  C   UNL     1      39.915 -11.604   6.880  1.00  0.00     0.021 C 
HETATM   14  C   UNL     1      41.647 -11.917   5.110  1.00  0.00     0.146 C 
HETATM   15  O   UNL     1      41.385  -9.904   3.258  1.00  0.00    -0.267 OA
HETATM   16  H   UNL     1      40.744 -15.671   5.369  1.00  0.00     0.169 HD
ENDROOT
BRANCH   1  17
HETATM   17  C   UNL     1      41.029 -11.313   1.437  1.00  0.00     0.075 C 
HETATM   18  C   UNL     1      39.950 -12.092   1.019  1.00  0.00     0.050 C 
HETATM   19  C   UNL     1      38.888 -12.710   1.859  1.00  0.00     0.071 C 
HETATM   20  N   UNL     1      40.009 -12.146  -0.371  1.00  0.00    -0.238 N 
HETATM   21  N   UNL     1      40.979 -11.319  -0.845  1.00  0.00    -0.179 NA
HETATM   22  C   UNL     1      41.638 -10.910   0.235  1.00  0.00     0.158 C 
BRANCH  20  23
HETATM   23  C   UNL     1      39.246 -12.904  -1.307  1.00  0.00     0.061 A 
HETATM   24  C   UNL     1      39.740 -14.143  -1.734  1.00  0.00     0.051 A 
HETATM   25  C   UNL     1      38.997 -14.876  -2.644  1.00  0.00     0.118 A 
HETATM   26  N   UNL     1      37.807 -14.473  -3.133  1.00  0.00    -0.273 NA
HETATM   27  C   UNL     1      37.334 -13.293  -2.684  1.00  0.00     0.118 A 
HETATM   28  C   UNL     1      38.005 -12.480  -1.782  1.00  0.00     0.051 A 
ENDBRANCH  20  23
ENDBRANCH   1  17
TORSDOF 2
ENDMDL
MODEL 7
REMARK VINA RESULT:      -7.5     15.429     18.023
REMARK  2 active torsions:
REMARK  status: ('A' for Active; 'I' for Inactive)
REMARK    1  A    between atoms: N_3  and  C_4 
REMARK    2  A    between atoms: C_12  and  C_13 
REMARK       I    between atoms: C_13  and  N_14 
ROOT
HETATM    1  C   UNL     1      45.453 -28.748  -3.203  1.00  0.00     0.262 C 
HETATM    2  N   UNL     1      44.524 -29.806  -3.209  1.00  0.00    -0.311 N 
HETATM    3  C   UNL     1      44.210 -30.657  -2.117  1.00  0.00     0.064 A 
HETATM    4  C   UNL     1      43.920 -32.029  -2.273  1.00  0.00     0.061 A 
HETATM    5  C   UNL     1      43.615 -32.788  -1.127  1.00  0.00     0.032 A 
HETATM    6  C   UNL     1      43.568 -32.214   0.143  1.00  0.00     0.002 A 
HETATM    7  C   UNL     1      43.818 -30.859   0.292  1.00  0.00     0.002 A 
HETATM    8  C   UNL     1      44.129 -30.088  -0.828  1.00  0.00     0.032 A 
HETATM    9  N   UNL     1      43.927 -32.775  -3.470  1.00  0.00    -0.325 N 
HETATM   10  C   UNL     1      44.117 -32.481  -4.783  1.00  0.00     0.227 C 
HETATM   11  O   UNL     1      44.026 -33.425  -5.575  1.00  0.00    -0.273 OA
HETATM   12  C   UNL     1      44.495 -31.097  -5.259  1.00  0.00     0.092 C 
HETATM   13  C   UNL     1      44.151 -30.935  -6.743  1.00  0.00     0.021 C 
HETATM   14  C   UNL     1      43.780 -30.043  -4.441  1.00  0.00     0.146 C 
HETATM   15  O   UNL     1      45.420 -27.870  -4.067  1.00  0.00    -0.267 OA
HETATM   16  H   UNL     1      43.712 -33.763  -3.378  1.00  0.00     0.169 HD
ENDROOT
BRANCH   1  17
HETATM   17  C   UNL     1      46.542 -28.743  -2.223  1.00  0.00     0.075 C 
HETATM   18  C   UNL     1      47.463 -29.771  -2.015  1.00  0.00     0.050 C 
HETATM   19  C   UNL     1      47.644 -31.014  -2.813  1.00  0.00     0.071 C 
HETATM   20  N   UNL     1      48.248 -29.391  -0.929  1.00  0.00    -0.238 N 
HETATM   21  N   UNL     1      47.960 -28.118  -0.548  1.00  0.00    -0.179 NA
HETATM   22  C   UNL     1      46.885 -27.784  -1.254  1.00  0.00     0.158 C 
BRANCH  20  23
HETATM   23  C   UNL     1      49.244 -30.109  -0.203  1.00  0.00     0.061 A 
HETATM   24  C   UNL     1      48.994 -30.445   1.134  1.00  0.00     0.051 A 
HETATM   25  C   UNL     1      49.963 -31.141   1.835  1.00  0.00     0.118 A 
HETATM   26  N   UNL     1      51.136 -31.534   1.299  1.00  0.00    -0.273 NA
HETATM   27  C   UNL     1      51.343 -31.229   0.002  1.00  0.00     0.118 A 
HETATM   28  C   UNL     1      50.441 -30.527  -0.784  1.00  0.00     0.051 A 
ENDBRANCH  20  23
ENDBRANCH   1  17
TORSDOF 2
ENDMDL
MODEL 8
REMARK VINA RESULT:      -7.5     15.140     17.022
REMARK  2 active torsions:
REMARK  status: ('A' for Active; 'I' for Inactive)
REMARK    1  A    between atoms: N_3  and  C_4 
REMARK    2  A    between atoms: C_12  and  C_13 
REMARK       I    between atoms: C_13  and  N_14 
ROOT
HETATM    1  C   UNL     1      43.671 -31.387  -0.138  1.00  0.00     0.262 C 
HETATM    2  N   UNL     1      44.753 -30.631  -0.627  1.00  0.00    -0.311 N 
HETATM    3  C   UNL     1      45.629 -29.819   0.141  1.00  0.00     0.064 A 
HETATM    4  C   UNL     1      46.153 -28.597  -0.332  1.00  0.00     0.061 A 
HETATM    5  C   UNL     1      47.018 -27.866   0.505  1.00  0.00     0.032 A 
HETATM    6  C   UNL     1      47.385 -28.331   1.767  1.00  0.00     0.002 A 
HETATM    7  C   UNL     1      46.899 -29.549   2.217  1.00  0.00     0.002 A 
HETATM    8  C   UNL     1      46.035 -30.287   1.409  1.00  0.00     0.032 A 
HETATM    9  N   UNL     1      45.887 -27.972  -1.569  1.00  0.00    -0.325 N 
HETATM   10  C   UNL     1      45.173 -28.303  -2.677  1.00  0.00     0.227 C 
HETATM   11  O   UNL     1      45.189 -27.485  -3.603  1.00  0.00    -0.273 OA
HETATM   12  C   UNL     1      44.340 -29.560  -2.761  1.00  0.00     0.092 C 
HETATM   13  C   UNL     1      44.077 -29.925  -4.225  1.00  0.00     0.021 C 
HETATM   14  C   UNL     1      45.036 -30.705  -2.056  1.00  0.00     0.146 C 
HETATM   15  O   UNL     1      43.185 -32.304  -0.803  1.00  0.00    -0.267 OA
HETATM   16  H   UNL     1      46.344 -27.079  -1.721  1.00  0.00     0.169 HD
ENDROOT
BRANCH   1  17
HETATM   17  C   UNL     1      43.039 -31.014   1.131  1.00  0.00     0.075 C 
HETATM   18  C   UNL     1      42.868 -31.845   2.238  1.00  0.00     0.050 C 
HETATM   19  C   UNL     1      43.400 -33.220   2.442  1.00  0.00     0.071 C 
HETATM   20  N   UNL     1      42.136 -31.120   3.174  1.00  0.00    -0.238 N 
HETATM   21  N   UNL     1      41.973 -29.833   2.767  1.00  0.00    -0.179 NA
HETATM   22  C   UNL     1      42.424 -29.810   1.517  1.00  0.00     0.158 C 
BRANCH  20  23
HETATM   23  C   UNL     1      41.563 -31.515   4.420  1.00  0.00     0.061 A 
HETATM   24  C   UNL     1      40.200 -31.833   4.465  1.00  0.00     0.051 A 
HETATM   25  C   UNL     1      39.648 -32.215   5.676  1.00  0.00     0.118 A 
HETATM   26  N   UNL     1      40.354 -32.319   6.819  1.00  0.00    -0.273 NA
HETATM   27  C   UNL     1      41.672 -32.040   6.746  1.00  0.00     0.118 A 
HETATM   28  C   UNL     1      42.318 -31.639   5.586  1.00  0.00     0.051 A 
ENDBRANCH  20  23
ENDBRANCH   1  17
TORSDOF 2
ENDMDL
MODEL 9
REMARK VINA RESULT:      -7.3     15.065     17.033
REMARK  2 active torsions:
REMARK  status: ('A' for Active; 'I' for Inactive)
REMARK    1  A    between atoms: N_3  and  C_4 
REMARK    2  A    between atoms: C_12  and  C_13 
REMARK       I    between atoms: C_13  and  N_14 
ROOT
HETATM    1  C   UNL     1      47.253 -28.592   0.289  1.00  0.00     0.262 C 
HETATM    2  N   UNL     1      45.879 -28.653  -0.014  1.00  0.00    -0.311 N 
HETATM    3  C   UNL     1      44.890 -29.380   0.701  1.00  0.00     0.064 A 
HETATM    4  C   UNL     1      43.805 -30.021   0.069  1.00  0.00     0.061 A 
HETATM    5  C   UNL     1      42.873 -30.713   0.868  1.00  0.00     0.032 A 
HETATM    6  C   UNL     1      42.985 -30.755   2.256  1.00  0.00     0.002 A 
HETATM    7  C   UNL     1      44.032 -30.094   2.880  1.00  0.00     0.002 A 
HETATM    8  C   UNL     1      44.970 -29.408   2.109  1.00  0.00     0.032 A 
HETATM    9  N   UNL     1      43.537 -30.090  -1.315  1.00  0.00    -0.325 N 
HETATM   10  C   UNL     1      44.109 -29.565  -2.430  1.00  0.00     0.227 C 
HETATM   11  O   UNL     1      43.566 -29.839  -3.505  1.00  0.00    -0.273 OA
HETATM   12  C   UNL     1      45.382 -28.752  -2.383  1.00  0.00     0.092 C 
HETATM   13  C   UNL     1      45.508 -27.893  -3.646  1.00  0.00     0.021 C 
HETATM   14  C   UNL     1      45.404 -27.873  -1.151  1.00  0.00     0.146 C 
HETATM   15  O   UNL     1      47.964 -27.695  -0.167  1.00  0.00    -0.267 OA
HETATM   16  H   UNL     1      42.713 -30.620  -1.581  1.00  0.00     0.169 HD
ENDROOT
BRANCH   1  17
HETATM   17  C   UNL     1      47.873 -29.668   1.067  1.00  0.00     0.075 C 
HETATM   18  C   UNL     1      48.379 -29.557   2.362  1.00  0.00     0.050 C 
HETATM   19  C   UNL     1      48.280 -28.396   3.288  1.00  0.00     0.071 C 
HETATM   20  N   UNL     1      48.963 -30.783   2.671  1.00  0.00    -0.238 N 
HETATM   21  N   UNL     1      48.715 -31.695   1.693  1.00  0.00    -0.179 NA
HETATM   22  C   UNL     1      48.157 -30.998   0.709  1.00  0.00     0.158 C 
BRANCH  20  23
HETATM   23  C   UNL     1      49.742 -31.188   3.795  1.00  0.00     0.061 A 
HETATM   24  C   UNL     1      49.182 -32.080   4.719  1.00  0.00     0.051 A 
HETATM   25  C   UNL     1      49.941 -32.470   5.808  1.00  0.00     0.118 A 
HETATM   26  N   UNL     1      51.204 -32.054   6.026  1.00  0.00    -0.273 NA
HETATM   27  C   UNL     1      51.736 -31.222   5.108  1.00  0.00     0.118 A 
HETATM   28  C   UNL     1      51.057 -30.764   3.989  1.00  0.00     0.051 A 
ENDBRANCH  20  23
ENDBRANCH   1  17
TORSDOF 2
ENDMDL
MODEL 10
REMARK VINA RESULT:      -7.3     10.621     13.251
REMARK  2 active torsions:
REMARK  status: ('A' for Active; 'I' for Inactive)
REMARK    1  A    between atoms: N_3  and  C_4 
REMARK    2  A    between atoms: C_12  and  C_13 
REMARK       I    between atoms: C_13  and  N_14 
ROOT
HETATM    1  C   UNL     1      40.802  -7.425  12.270  1.00  0.00     0.262 C 
HETATM    2  N   UNL     1      40.737  -6.092  12.719  1.00  0.00    -0.311 N 
HETATM    3  C   UNL     1      41.599  -5.030  12.333  1.00  0.00     0.064 A 
HETATM    4  C   UNL     1      42.013  -4.019  13.224  1.00  0.00     0.061 A 
HETATM    5  C   UNL     1      42.866  -3.005  12.744  1.00  0.00     0.032 A 
HETATM    6  C   UNL     1      43.284  -2.967  11.415  1.00  0.00     0.002 A 
HETATM    7  C   UNL     1      42.849  -3.942  10.531  1.00  0.00     0.002 A 
HETATM    8  C   UNL     1      42.009  -4.959  10.985  1.00  0.00     0.032 A 
HETATM    9  N   UNL     1      41.698  -3.902  14.595  1.00  0.00    -0.325 N 
HETATM   10  C   UNL     1      40.909  -4.591  15.460  1.00  0.00     0.227 C 
HETATM   11  O   UNL     1      40.866  -4.166  16.620  1.00  0.00    -0.273 OA
HETATM   12  C   UNL     1      40.178  -5.853  15.064  1.00  0.00     0.092 C 
HETATM   13  C   UNL     1      39.015  -6.115  16.025  1.00  0.00     0.021 C 
HETATM   14  C   UNL     1      39.665  -5.743  13.644  1.00  0.00     0.146 C 
HETATM   15  O   UNL     1      39.837  -8.182  12.390  1.00  0.00    -0.267 OA
HETATM   16  H   UNL     1      42.111  -3.111  15.079  1.00  0.00     0.169 HD
ENDROOT
BRANCH   1  17
HETATM   17  C   UNL     1      42.066  -7.957  11.754  1.00  0.00     0.075 C 
HETATM   18  C   UNL     1      42.333  -8.297  10.427  1.00  0.00     0.050 C 
HETATM   19  C   UNL     1      41.473  -8.070   9.233  1.00  0.00     0.071 C 
HETATM   20  N   UNL     1      43.609  -8.852  10.404  1.00  0.00    -0.238 N 
HETATM   21  N   UNL     1      44.207  -8.738  11.620  1.00  0.00    -0.179 NA
HETATM   22  C   UNL     1      43.250  -8.298  12.431  1.00  0.00     0.158 C 
BRANCH  20  23
HETATM   23  C   UNL     1      44.330  -9.490   9.351  1.00  0.00     0.061 A 
HETATM   24  C   UNL     1      45.509  -8.897   8.884  1.00  0.00     0.051 A 
HETATM   25  C   UNL     1      46.205  -9.519   7.862  1.00  0.00     0.118 A 
HETATM   26  N   UNL     1      45.822 -10.681   7.297  1.00  0.00    -0.273 NA
HETATM   27  C   UNL     1      44.702 -11.253   7.784  1.00  0.00     0.118 A 
HETATM   28  C   UNL     1      43.929 -10.706   8.798  1.00  0.00     0.051 A 
ENDBRANCH  20  23
ENDBRANCH   1  17
TORSDOF 2
ENDMDL
