MODEL 1
REMARK VINA RESULT:      -7.8      0.000      0.000
REMARK  5 active torsions:
REMARK  status: ('A' for Active; 'I' for Inactive)
REMARK    1  A    between atoms: C_2  and  C_3 
REMARK    2  A    between atoms: C_3  and  O_4 
REMARK    3  A    between atoms: C_3  and  C_5 
REMARK    4  A    between atoms: N_8  and  C_10 
REMARK    5  A    between atoms: C_10  and  C_11 
ROOT
HETATM    1  C   UNL     1      40.636 -15.128   3.219  1.00  0.00     0.022 C 
HETATM    2  C   UNL     1      39.936 -15.864   2.070  1.00  0.00     0.035 C 
HETATM    3  C   UNL     1      40.199 -15.206   0.724  1.00  0.00     0.235 C 
HETATM    4  N   UNL     1      39.786 -13.756   0.765  1.00  0.00    -0.066 N 
HETATM    5  H   UNL     1      38.754 -13.755   0.825  1.00  0.00     0.280 HD
HETATM    6  C   UNL     1      40.352 -12.961   1.909  1.00  0.00     0.235 C 
HETATM    7  C   UNL     1      40.121 -13.677   3.232  1.00  0.00     0.035 C 
ENDROOT
BRANCH   1   8
HETATM    8  C   UNL     1      42.186 -15.199   3.140  1.00  0.00     0.155 C 
BRANCH   8   9
HETATM    9  C   UNL     1      42.766 -16.524   3.587  1.00  0.00    -0.029 A 
HETATM   10  C   UNL     1      43.167 -17.492   2.654  1.00  0.00     0.011 A 
HETATM   11  C   UNL     1      43.735 -18.696   3.078  1.00  0.00     0.024 A 
HETATM   12  C   UNL     1      43.904 -18.943   4.439  1.00  0.00     0.034 A 
HETATM   13  C   UNL     1      43.499 -17.998   5.379  1.00  0.00     0.024 A 
HETATM   14 CL   UNL     1      44.616 -20.416   4.962  1.00  0.00    -0.084 Cl
HETATM   15  C   UNL     1      42.928 -16.796   4.956  1.00  0.00     0.011 A 
ENDBRANCH   8   9
BRANCH   8  16
HETATM   16  O   UNL     1      42.729 -14.133   3.909  1.00  0.00    -0.391 OA
HETATM   17  H   UNL     1      43.273 -13.574   3.322  1.00  0.00     0.210 HD
ENDBRANCH   8  16
ENDBRANCH   1   8
BRANCH   4  18
HETATM   18  C   UNL     1      40.038 -13.060  -0.569  1.00  0.00     0.295 C 
BRANCH  18  19
HETATM   19  C   UNL     1      39.110 -13.537  -1.639  1.00  0.00     0.081 A 
HETATM   20  N   UNL     1      37.823 -13.153  -1.616  1.00  0.00    -0.178 NA
HETATM   21  N   UNL     1      37.287 -13.764  -2.695  1.00  0.00    -0.289 N 
HETATM   22  H   UNL     1      36.307 -13.605  -2.917  1.00  0.00     0.188 HD
HETATM   23  C   UNL     1      38.177 -14.559  -3.355  1.00  0.00     0.111 A 
HETATM   24  C   UNL     1      39.377 -14.429  -2.700  1.00  0.00     0.049 A 
ENDBRANCH  18  19
ENDBRANCH   4  18
TORSDOF 5
ENDMDL
MODEL 2
REMARK VINA RESULT:      -7.2      1.611      1.874
REMARK  5 active torsions:
REMARK  status: ('A' for Active; 'I' for Inactive)
REMARK    1  A    between atoms: C_2  and  C_3 
REMARK    2  A    between atoms: C_3  and  O_4 
REMARK    3  A    between atoms: C_3  and  C_5 
REMARK    4  A    between atoms: N_8  and  C_10 
REMARK    5  A    between atoms: C_10  and  C_11 
ROOT
HETATM    1  C   UNL     1      42.414 -14.378   3.304  1.00  0.00     0.022 C 
HETATM    2  C   UNL     1      40.956 -14.398   3.784  1.00  0.00     0.035 C 
HETATM    3  C   UNL     1      39.978 -14.116   2.653  1.00  0.00     0.235 C 
HETATM    4  N   UNL     1      40.311 -12.800   1.996  1.00  0.00    -0.066 N 
HETATM    5  H   UNL     1      40.080 -12.068   2.690  1.00  0.00     0.280 HD
HETATM    6  C   UNL     1      41.742 -12.642   1.564  1.00  0.00     0.235 C 
HETATM    7  C   UNL     1      42.692 -12.988   2.702  1.00  0.00     0.035 C 
ENDROOT
BRANCH   1   8
HETATM    8  C   UNL     1      42.750 -15.525   2.312  1.00  0.00     0.155 C 
BRANCH   8   9
HETATM    9  C   UNL     1      43.174 -16.815   2.982  1.00  0.00    -0.029 A 
HETATM   10  C   UNL     1      43.150 -18.035   2.288  1.00  0.00     0.011 A 
HETATM   11  C   UNL     1      43.578 -19.213   2.906  1.00  0.00     0.024 A 
HETATM   12  C   UNL     1      44.031 -19.181   4.223  1.00  0.00     0.034 A 
HETATM   13  C   UNL     1      44.049 -17.982   4.931  1.00  0.00     0.024 A 
HETATM   14 CL   UNL     1      44.572 -20.626   4.979  1.00  0.00    -0.084 Cl
HETATM   15  C   UNL     1      43.617 -16.805   4.315  1.00  0.00     0.011 A 
ENDBRANCH   8   9
BRANCH   8  16
HETATM   16  O   UNL     1      43.760 -15.072   1.420  1.00  0.00    -0.391 OA
HETATM   17  H   UNL     1      44.614 -15.069   1.893  1.00  0.00     0.210 HD
ENDBRANCH   8  16
ENDBRANCH   1   8
BRANCH   4  18
HETATM   18  C   UNL     1      39.351 -12.481   0.853  1.00  0.00     0.295 C 
BRANCH  18  19
HETATM   19  C   UNL     1      39.827 -13.027  -0.453  1.00  0.00     0.081 A 
HETATM   20  N   UNL     1      40.533 -12.238  -1.280  1.00  0.00    -0.178 NA
HETATM   21  N   UNL     1      40.782 -13.031  -2.346  1.00  0.00    -0.289 N 
HETATM   22  H   UNL     1      41.338 -12.665  -3.115  1.00  0.00     0.188 HD
HETATM   23  C   UNL     1      40.210 -14.264  -2.237  1.00  0.00     0.111 A 
HETATM   24  C   UNL     1      39.587 -14.300  -1.014  1.00  0.00     0.049 A 
ENDBRANCH  18  19
ENDBRANCH   4  18
TORSDOF 5
ENDMDL
MODEL 3
REMARK VINA RESULT:      -7.0      5.075      7.202
REMARK  5 active torsions:
REMARK  status: ('A' for Active; 'I' for Inactive)
REMARK    1  A    between atoms: C_2  and  C_3 
REMARK    2  A    between atoms: C_3  and  O_4 
REMARK    3  A    between atoms: C_3  and  C_5 
REMARK    4  A    between atoms: N_8  and  C_10 
REMARK    5  A    between atoms: C_10  and  C_11 
ROOT
HETATM    1  C   UNL     1      42.664 -15.546   6.028  1.00  0.00     0.022 C 
HETATM    2  C   UNL     1      41.916 -14.635   5.044  1.00  0.00     0.035 C 
HETATM    3  C   UNL     1      42.682 -13.352   4.758  1.00  0.00     0.235 C 
HETATM    4  N   UNL     1      42.978 -12.626   6.045  1.00  0.00    -0.066 N 
HETATM    5  H   UNL     1      42.067 -12.279   6.393  1.00  0.00     0.280 HD
HETATM    6  C   UNL     1      43.635 -13.455   7.113  1.00  0.00     0.235 C 
HETATM    7  C   UNL     1      42.875 -14.755   7.333  1.00  0.00     0.035 C 
ENDROOT
BRANCH   1   8
HETATM    8  C   UNL     1      43.996 -16.103   5.458  1.00  0.00     0.155 C 
BRANCH   8   9
HETATM    9  C   UNL     1      43.818 -17.230   4.462  1.00  0.00    -0.029 A 
HETATM   10  C   UNL     1      43.300 -16.990   3.179  1.00  0.00     0.011 A 
HETATM   11  C   UNL     1      43.174 -18.032   2.257  1.00  0.00     0.024 A 
HETATM   12  C   UNL     1      43.562 -19.323   2.611  1.00  0.00     0.034 A 
HETATM   13  C   UNL     1      44.065 -19.581   3.883  1.00  0.00     0.024 A 
HETATM   14 CL   UNL     1      43.422 -20.603   1.473  1.00  0.00    -0.084 Cl
HETATM   15  C   UNL     1      44.188 -18.540   4.807  1.00  0.00     0.011 A 
ENDBRANCH   8   9
BRANCH   8  16
HETATM   16  O   UNL     1      44.814 -16.523   6.542  1.00  0.00    -0.391 OA
HETATM   17  H   UNL     1      44.799 -17.497   6.583  1.00  0.00     0.210 HD
ENDBRANCH   8  16
ENDBRANCH   1   8
BRANCH   4  18
HETATM   18  C   UNL     1      43.748 -11.332   5.798  1.00  0.00     0.295 C 
BRANCH  18  19
HETATM   19  C   UNL     1      44.277 -10.739   7.063  1.00  0.00     0.081 A 
HETATM   20  N   UNL     1      43.434 -10.124   7.908  1.00  0.00    -0.178 NA
HETATM   21  N   UNL     1      44.233  -9.707   8.915  1.00  0.00    -0.289 N 
HETATM   22  H   UNL     1      43.818  -9.227   9.709  1.00  0.00     0.188 HD
HETATM   23  C   UNL     1      45.551  -9.989   8.700  1.00  0.00     0.111 A 
HETATM   24  C   UNL     1      45.616 -10.668   7.508  1.00  0.00     0.049 A 
ENDBRANCH  18  19
ENDBRANCH   4  18
TORSDOF 5
ENDMDL
MODEL 4
REMARK VINA RESULT:      -7.0      4.942      6.139
REMARK  5 active torsions:
REMARK  status: ('A' for Active; 'I' for Inactive)
REMARK    1  A    between atoms: C_2  and  C_3 
REMARK    2  A    between atoms: C_3  and  O_4 
REMARK    3  A    between atoms: C_3  and  C_5 
REMARK    4  A    between atoms: N_8  and  C_10 
REMARK    5  A    between atoms: C_10  and  C_11 
ROOT
HETATM    1  C   UNL     1      42.746 -16.196   6.588  1.00  0.00     0.022 C 
HETATM    2  C   UNL     1      41.376 -16.044   5.915  1.00  0.00     0.035 C 
HETATM    3  C   UNL     1      41.236 -14.711   5.195  1.00  0.00     0.235 C 
HETATM    4  N   UNL     1      41.494 -13.575   6.153  1.00  0.00    -0.066 N 
HETATM    5  H   UNL     1      40.695 -13.568   6.809  1.00  0.00     0.280 HD
HETATM    6  C   UNL     1      42.777 -13.671   6.931  1.00  0.00     0.235 C 
HETATM    7  C   UNL     1      42.909 -15.037   7.589  1.00  0.00     0.035 C 
ENDROOT
BRANCH   1   8
HETATM    8  C   UNL     1      43.923 -16.267   5.577  1.00  0.00     0.155 C 
BRANCH   8   9
HETATM    9  C   UNL     1      43.785 -17.368   4.547  1.00  0.00    -0.029 A 
HETATM   10  C   UNL     1      43.324 -17.095   3.249  1.00  0.00     0.011 A 
HETATM   11  C   UNL     1      43.236 -18.114   2.297  1.00  0.00     0.024 A 
HETATM   12  C   UNL     1      43.606 -19.414   2.635  1.00  0.00     0.034 A 
HETATM   13  C   UNL     1      44.053 -19.705   3.921  1.00  0.00     0.024 A 
HETATM   14 CL   UNL     1      43.513 -20.665   1.461  1.00  0.00    -0.084 Cl
HETATM   15  C   UNL     1      44.137 -18.688   4.875  1.00  0.00     0.011 A 
ENDBRANCH   8   9
BRANCH   8  16
HETATM   16  O   UNL     1      45.137 -16.413   6.302  1.00  0.00    -0.391 OA
HETATM   17  H   UNL     1      45.462 -17.325   6.183  1.00  0.00     0.210 HD
ENDBRANCH   8  16
ENDBRANCH   1   8
BRANCH   4  18
HETATM   18  C   UNL     1      41.365 -12.218   5.466  1.00  0.00     0.295 C 
BRANCH  18  19
HETATM   19  C   UNL     1      40.742 -11.192   6.356  1.00  0.00     0.081 A 
HETATM   20  N   UNL     1      41.513 -10.241   6.908  1.00  0.00    -0.178 NA
HETATM   21  N   UNL     1      40.646  -9.510   7.643  1.00  0.00    -0.289 N 
HETATM   22  H   UNL     1      40.989  -8.696   8.147  1.00  0.00     0.188 HD
HETATM   23  C   UNL     1      39.375 -10.005   7.614  1.00  0.00     0.111 A 
HETATM   24  C   UNL     1      39.398 -11.095   6.779  1.00  0.00     0.049 A 
ENDBRANCH  18  19
ENDBRANCH   4  18
TORSDOF 5
ENDMDL
MODEL 5
REMARK VINA RESULT:      -6.9      6.457      8.874
REMARK  5 active torsions:
REMARK  status: ('A' for Active; 'I' for Inactive)
REMARK    1  A    between atoms: C_2  and  C_3 
REMARK    2  A    between atoms: C_3  and  O_4 
REMARK    3  A    between atoms: C_3  and  C_5 
REMARK    4  A    between atoms: N_8  and  C_10 
REMARK    5  A    between atoms: C_10  and  C_11 
ROOT
HETATM    1  C   UNL     1      43.302 -11.751   5.686  1.00  0.00     0.022 C 
HETATM    2  C   UNL     1      44.833 -11.655   5.632  1.00  0.00     0.035 C 
HETATM    3  C   UNL     1      45.439 -11.391   7.003  1.00  0.00     0.235 C 
HETATM    4  N   UNL     1      44.842 -10.142   7.601  1.00  0.00    -0.066 N 
HETATM    5  H   UNL     1      45.201  -9.355   7.035  1.00  0.00     0.280 HD
HETATM    6  C   UNL     1      43.340 -10.097   7.625  1.00  0.00     0.235 C 
HETATM    7  C   UNL     1      42.768 -10.422   6.252  1.00  0.00     0.035 C 
ENDROOT
BRANCH   1   8
HETATM    8  C   UNL     1      42.792 -12.978   6.490  1.00  0.00     0.155 C 
BRANCH   8   9
HETATM    9  C   UNL     1      43.219 -14.312   5.916  1.00  0.00    -0.029 A 
HETATM   10  C   UNL     1      44.018 -15.198   6.656  1.00  0.00     0.011 A 
HETATM   11  C   UNL     1      44.375 -16.442   6.129  1.00  0.00     0.024 A 
HETATM   12  C   UNL     1      43.939 -16.809   4.858  1.00  0.00     0.034 A 
HETATM   13  C   UNL     1      43.156 -15.937   4.105  1.00  0.00     0.024 A 
HETATM   14 CL   UNL     1      44.364 -18.345   4.215  1.00  0.00    -0.084 Cl
HETATM   15  C   UNL     1      42.802 -14.692   4.630  1.00  0.00     0.011 A 
ENDBRANCH   8   9
BRANCH   8  16
HETATM   16  O   UNL     1      41.375 -12.905   6.579  1.00  0.00    -0.391 OA
HETATM   17  H   UNL     1      41.128 -12.808   7.518  1.00  0.00     0.210 HD
ENDBRANCH   8  16
ENDBRANCH   1   8
BRANCH   4  18
HETATM   18  C   UNL     1      45.425  -9.845   8.980  1.00  0.00     0.295 C 
BRANCH  18  19
HETATM   19  C   UNL     1      44.408  -9.984  10.065  1.00  0.00     0.081 A 
HETATM   20  N   UNL     1      44.055 -11.210  10.487  1.00  0.00    -0.178 NA
HETATM   21  N   UNL     1      43.130 -10.967  11.442  1.00  0.00    -0.289 N 
HETATM   22  H   UNL     1      42.720 -11.752  11.943  1.00  0.00     0.188 HD
HETATM   23  C   UNL     1      42.852  -9.640  11.589  1.00  0.00     0.111 A 
HETATM   24  C   UNL     1      43.672  -8.969  10.716  1.00  0.00     0.049 A 
ENDBRANCH  18  19
ENDBRANCH   4  18
TORSDOF 5
ENDMDL
MODEL 6
REMARK VINA RESULT:      -6.7      2.151      3.132
REMARK  5 active torsions:
REMARK  status: ('A' for Active; 'I' for Inactive)
REMARK    1  A    between atoms: C_2  and  C_3 
REMARK    2  A    between atoms: C_3  and  O_4 
REMARK    3  A    between atoms: C_3  and  C_5 
REMARK    4  A    between atoms: N_8  and  C_10 
REMARK    5  A    between atoms: C_10  and  C_11 
ROOT
HETATM    1  C   UNL     1      41.166 -15.614   2.504  1.00  0.00     0.022 C 
HETATM    2  C   UNL     1      40.107 -15.619   1.394  1.00  0.00     0.035 C 
HETATM    3  C   UNL     1      40.437 -14.630   0.285  1.00  0.00     0.235 C 
HETATM    4  N   UNL     1      40.609 -13.246   0.859  1.00  0.00    -0.066 N 
HETATM    5  H   UNL     1      39.668 -12.945   1.165  1.00  0.00     0.280 HD
HETATM    6  C   UNL     1      41.566 -13.146   2.014  1.00  0.00     0.235 C 
HETATM    7  C   UNL     1      41.241 -14.187   3.077  1.00  0.00     0.035 C 
ENDROOT
BRANCH   1   8
HETATM    8  C   UNL     1      42.553 -16.131   2.033  1.00  0.00     0.155 C 
BRANCH   8   9
HETATM    9  C   UNL     1      43.063 -17.327   2.808  1.00  0.00    -0.029 A 
HETATM   10  C   UNL     1      43.142 -18.597   2.215  1.00  0.00     0.011 A 
HETATM   11  C   UNL     1      43.648 -19.685   2.931  1.00  0.00     0.024 A 
HETATM   12  C   UNL     1      44.076 -19.514   4.245  1.00  0.00     0.034 A 
HETATM   13  C   UNL     1      43.992 -18.264   4.854  1.00  0.00     0.024 A 
HETATM   14 CL   UNL     1      44.713 -20.848   5.121  1.00  0.00    -0.084 Cl
HETATM   15  C   UNL     1      43.482 -17.176   4.141  1.00  0.00     0.011 A 
ENDBRANCH   8   9
BRANCH   8  16
HETATM   16  O   UNL     1      43.485 -15.059   2.103  1.00  0.00    -0.391 OA
HETATM   17  H   UNL     1      44.364 -15.425   2.313  1.00  0.00     0.210 HD
ENDBRANCH   8  16
ENDBRANCH   1   8
BRANCH   4  18
HETATM   18  C   UNL     1      40.943 -12.225  -0.224  1.00  0.00     0.295 C 
BRANCH  18  19
HETATM   19  C   UNL     1      40.843 -10.820   0.274  1.00  0.00     0.081 A 
HETATM   20  N   UNL     1      41.941 -10.048   0.298  1.00  0.00    -0.178 NA
HETATM   21  N   UNL     1      41.500  -8.876   0.805  1.00  0.00    -0.289 N 
HETATM   22  H   UNL     1      42.152  -8.101   0.899  1.00  0.00     0.188 HD
HETATM   23  C   UNL     1      40.181  -8.908   1.151  1.00  0.00     0.111 A 
HETATM   24  C   UNL     1      39.718 -10.156   0.812  1.00  0.00     0.049 A 
ENDBRANCH  18  19
ENDBRANCH   4  18
TORSDOF 5
ENDMDL
MODEL 7
REMARK VINA RESULT:      -6.7      2.844      3.730
REMARK  5 active torsions:
REMARK  status: ('A' for Active; 'I' for Inactive)
REMARK    1  A    between atoms: C_2  and  C_3 
REMARK    2  A    between atoms: C_3  and  O_4 
REMARK    3  A    between atoms: C_3  and  C_5 
REMARK    4  A    between atoms: N_8  and  C_10 
REMARK    5  A    between atoms: C_10  and  C_11 
ROOT
HETATM    1  C   UNL     1      41.682 -15.505   2.851  1.00  0.00     0.022 C 
HETATM    2  C   UNL     1      42.703 -14.687   2.050  1.00  0.00     0.035 C 
HETATM    3  C   UNL     1      42.045 -13.563   1.264  1.00  0.00     0.235 C 
HETATM    4  N   UNL     1      40.974 -14.119   0.361  1.00  0.00    -0.066 N 
HETATM    5  H   UNL     1      41.468 -14.655  -0.373  1.00  0.00     0.280 HD
HETATM    6  C   UNL     1      39.966 -15.009   1.034  1.00  0.00     0.235 C 
HETATM    7  C   UNL     1      40.660 -16.085   1.857  1.00  0.00     0.035 C 
ENDROOT
BRANCH   1   8
HETATM    8  C   UNL     1      41.000 -14.694   3.986  1.00  0.00     0.155 C 
BRANCH   8   9
HETATM    9  C   UNL     1      41.967 -13.919   4.857  1.00  0.00    -0.029 A 
HETATM   10  C   UNL     1      41.968 -12.515   4.868  1.00  0.00     0.011 A 
HETATM   11  C   UNL     1      42.841 -11.812   5.703  1.00  0.00     0.024 A 
HETATM   12  C   UNL     1      43.720 -12.507   6.531  1.00  0.00     0.034 A 
HETATM   13  C   UNL     1      43.741 -13.899   6.523  1.00  0.00     0.024 A 
HETATM   14 CL   UNL     1      44.783 -11.644   7.570  1.00  0.00    -0.084 Cl
HETATM   15  C   UNL     1      42.872 -14.602   5.686  1.00  0.00     0.011 A 
ENDBRANCH   8   9
BRANCH   8  16
HETATM   16  O   UNL     1      40.222 -15.584   4.777  1.00  0.00    -0.391 OA
HETATM   17  H   UNL     1      40.319 -16.485   4.415  1.00  0.00     0.210 HD
ENDBRANCH   8  16
ENDBRANCH   1   8
BRANCH   4  18
HETATM   18  C   UNL     1      40.288 -13.019  -0.445  1.00  0.00     0.295 C 
BRANCH  18  19
HETATM   19  C   UNL     1      39.381 -13.571  -1.496  1.00  0.00     0.081 A 
HETATM   20  N   UNL     1      38.082 -13.230  -1.493  1.00  0.00    -0.178 NA
HETATM   21  N   UNL     1      37.571 -13.902  -2.548  1.00  0.00    -0.289 N 
HETATM   22  H   UNL     1      36.587 -13.786  -2.778  1.00  0.00     0.188 HD
HETATM   23  C   UNL     1      38.491 -14.693  -3.172  1.00  0.00     0.111 A 
HETATM   24  C   UNL     1      39.683 -14.496  -2.519  1.00  0.00     0.049 A 
ENDBRANCH  18  19
ENDBRANCH   4  18
TORSDOF 5
ENDMDL
MODEL 8
REMARK VINA RESULT:      -6.7      3.111      5.405
REMARK  5 active torsions:
REMARK  status: ('A' for Active; 'I' for Inactive)
REMARK    1  A    between atoms: C_2  and  C_3 
REMARK    2  A    between atoms: C_3  and  O_4 
REMARK    3  A    between atoms: C_3  and  C_5 
REMARK    4  A    between atoms: N_8  and  C_10 
REMARK    5  A    between atoms: C_10  and  C_11 
ROOT
HETATM    1  C   UNL     1      41.809 -15.269   2.105  1.00  0.00     0.022 C 
HETATM    2  C   UNL     1      43.216 -14.718   1.838  1.00  0.00     0.035 C 
HETATM    3  C   UNL     1      43.497 -13.456   2.640  1.00  0.00     0.235 C 
HETATM    4  N   UNL     1      42.447 -12.413   2.352  1.00  0.00    -0.066 N 
HETATM    5  H   UNL     1      42.607 -12.108   1.377  1.00  0.00     0.280 HD
HETATM    6  C   UNL     1      41.025 -12.878   2.501  1.00  0.00     0.235 C 
HETATM    7  C   UNL     1      40.795 -14.172   1.733  1.00  0.00     0.035 C 
ENDROOT
BRANCH   1   8
HETATM    8  C   UNL     1      41.615 -15.779   3.559  1.00  0.00     0.155 C 
BRANCH   8   9
HETATM    9  C   UNL     1      42.472 -16.976   3.913  1.00  0.00    -0.029 A 
HETATM   10  C   UNL     1      42.862 -17.223   5.238  1.00  0.00     0.011 A 
HETATM   11  C   UNL     1      43.623 -18.351   5.557  1.00  0.00     0.024 A 
HETATM   12  C   UNL     1      44.001 -19.239   4.553  1.00  0.00     0.034 A 
HETATM   13  C   UNL     1      43.634 -19.003   3.230  1.00  0.00     0.024 A 
HETATM   14 CL   UNL     1      44.924 -20.635   4.945  1.00  0.00    -0.084 Cl
HETATM   15  C   UNL     1      42.877 -17.874   2.911  1.00  0.00     0.011 A 
ENDBRANCH   8   9
BRANCH   8  16
HETATM   16  O   UNL     1      40.238 -16.077   3.756  1.00  0.00    -0.391 OA
HETATM   17  H   UNL     1      39.743 -15.237   3.800  1.00  0.00     0.210 HD
ENDBRANCH   8  16
ENDBRANCH   1   8
BRANCH   4  18
HETATM   18  C   UNL     1      42.694 -11.131   3.141  1.00  0.00     0.295 C 
BRANCH  18  19
HETATM   19  C   UNL     1      43.258 -11.402   4.497  1.00  0.00     0.081 A 
HETATM   20  N   UNL     1      44.573 -11.232   4.712  1.00  0.00    -0.178 NA
HETATM   21  N   UNL     1      44.733 -11.571   6.011  1.00  0.00    -0.289 N 
HETATM   22  H   UNL     1      45.657 -11.497   6.430  1.00  0.00     0.188 HD
HETATM   23  C   UNL     1      43.578 -12.000   6.595  1.00  0.00     0.111 A 
HETATM   24  C   UNL     1      42.595 -11.895   5.642  1.00  0.00     0.049 A 
ENDBRANCH  18  19
ENDBRANCH   4  18
TORSDOF 5
ENDMDL
MODEL 9
REMARK VINA RESULT:      -6.5      2.749      4.673
REMARK  5 active torsions:
REMARK  status: ('A' for Active; 'I' for Inactive)
REMARK    1  A    between atoms: C_2  and  C_3 
REMARK    2  A    between atoms: C_3  and  O_4 
REMARK    3  A    between atoms: C_3  and  C_5 
REMARK    4  A    between atoms: N_8  and  C_10 
REMARK    5  A    between atoms: C_10  and  C_11 
ROOT
HETATM    1  C   UNL     1      41.306 -16.009   1.774  1.00  0.00     0.022 C 
HETATM    2  C   UNL     1      40.911 -14.796   0.920  1.00  0.00     0.035 C 
HETATM    3  C   UNL     1      41.396 -13.488   1.527  1.00  0.00     0.235 C 
HETATM    4  N   UNL     1      40.878 -13.346   2.936  1.00  0.00    -0.066 N 
HETATM    5  H   UNL     1      39.858 -13.197   2.851  1.00  0.00     0.280 HD
HETATM    6  C   UNL     1      41.138 -14.521   3.836  1.00  0.00     0.235 C 
HETATM    7  C   UNL     1      40.693 -15.818   3.173  1.00  0.00     0.035 C 
ENDROOT
BRANCH   1   8
HETATM    8  C   UNL     1      42.839 -16.246   1.832  1.00  0.00     0.155 C 
BRANCH   8   9
HETATM    9  C   UNL     1      43.249 -17.428   2.685  1.00  0.00    -0.029 A 
HETATM   10  C   UNL     1      43.138 -18.743   2.205  1.00  0.00     0.011 A 
HETATM   11  C   UNL     1      43.553 -19.822   2.989  1.00  0.00     0.024 A 
HETATM   12  C   UNL     1      44.081 -19.597   4.259  1.00  0.00     0.034 A 
HETATM   13  C   UNL     1      44.186 -18.300   4.755  1.00  0.00     0.024 A 
HETATM   14 CL   UNL     1      44.606 -20.922   5.218  1.00  0.00    -0.084 Cl
HETATM   15  C   UNL     1      43.767 -17.221   3.975  1.00  0.00     0.011 A 
ENDBRANCH   8   9
BRANCH   8  16
HETATM   16  O   UNL     1      43.465 -15.057   2.296  1.00  0.00    -0.391 OA
HETATM   17  H   UNL     1      44.262 -15.303   2.803  1.00  0.00     0.210 HD
ENDBRANCH   8  16
ENDBRANCH   1   8
BRANCH   4  18
HETATM   18  C   UNL     1      41.346 -12.044   3.579  1.00  0.00     0.295 C 
BRANCH  18  19
HETATM   19  C   UNL     1      40.547 -11.695   4.793  1.00  0.00     0.081 A 
HETATM   20  N   UNL     1      41.121 -11.771   6.005  1.00  0.00    -0.178 NA
HETATM   21  N   UNL     1      40.132 -11.407   6.852  1.00  0.00    -0.289 N 
HETATM   22  H   UNL     1      40.329 -11.358   7.849  1.00  0.00     0.188 HD
HETATM   23  C   UNL     1      38.950 -11.164   6.217  1.00  0.00     0.111 A 
HETATM   24  C   UNL     1      39.185 -11.333   4.875  1.00  0.00     0.049 A 
ENDBRANCH  18  19
ENDBRANCH   4  18
TORSDOF 5
ENDMDL
MODEL 10
REMARK VINA RESULT:      -6.5      9.298     10.877
REMARK  5 active torsions:
REMARK  status: ('A' for Active; 'I' for Inactive)
REMARK    1  A    between atoms: C_2  and  C_3 
REMARK    2  A    between atoms: C_3  and  O_4 
REMARK    3  A    between atoms: C_3  and  C_5 
REMARK    4  A    between atoms: N_8  and  C_10 
REMARK    5  A    between atoms: C_10  and  C_11 
ROOT
HETATM    1  C   UNL     1      44.160  -9.272  10.079  1.00  0.00     0.022 C 
HETATM    2  C   UNL     1      43.269  -8.340   9.247  1.00  0.00     0.035 C 
HETATM    3  C   UNL     1      42.289  -9.113   8.376  1.00  0.00     0.235 C 
HETATM    4  N   UNL     1      43.034 -10.080   7.490  1.00  0.00    -0.066 N 
HETATM    5  H   UNL     1      43.546  -9.501   6.803  1.00  0.00     0.280 HD
HETATM    6  C   UNL     1      44.002 -10.985   8.200  1.00  0.00     0.235 C 
HETATM    7  C   UNL     1      44.927 -10.184   9.105  1.00  0.00     0.035 C 
ENDROOT
BRANCH   1   8
HETATM    8  C   UNL     1      43.373 -10.083  11.145  1.00  0.00     0.155 C 
BRANCH   8   9
HETATM    9  C   UNL     1      42.973  -9.276  12.363  1.00  0.00    -0.029 A 
HETATM   10  C   UNL     1      43.634  -8.082  12.692  1.00  0.00     0.011 A 
HETATM   11  C   UNL     1      43.231  -7.329  13.798  1.00  0.00     0.024 A 
HETATM   12  C   UNL     1      42.167  -7.764  14.585  1.00  0.00     0.034 A 
HETATM   13  C   UNL     1      41.510  -8.954  14.280  1.00  0.00     0.024 A 
HETATM   14 CL   UNL     1      41.661  -6.831  15.936  1.00  0.00    -0.084 Cl
HETATM   15  C   UNL     1      41.914  -9.709  13.178  1.00  0.00     0.011 A 
ENDBRANCH   8   9
BRANCH   8  16
HETATM   16  O   UNL     1      44.155 -11.208  11.528  1.00  0.00    -0.391 OA
HETATM   17  H   UNL     1      43.571 -11.856  11.964  1.00  0.00     0.210 HD
ENDBRANCH   8  16
ENDBRANCH   1   8
BRANCH   4  18
HETATM   18  C   UNL     1      42.084 -10.876   6.601  1.00  0.00     0.295 C 
BRANCH  18  19
HETATM   19  C   UNL     1      42.614 -11.045   5.215  1.00  0.00     0.081 A 
HETATM   20  N   UNL     1      42.146 -10.264   4.228  1.00  0.00    -0.178 NA
HETATM   21  N   UNL     1      42.819 -10.687   3.135  1.00  0.00    -0.289 N 
HETATM   22  H   UNL     1      42.657 -10.223   2.245  1.00  0.00     0.188 HD
HETATM   23  C   UNL     1      43.646 -11.740   3.394  1.00  0.00     0.111 A 
HETATM   24  C   UNL     1      43.545 -11.995   4.740  1.00  0.00     0.049 A 
ENDBRANCH  18  19
ENDBRANCH   4  18
TORSDOF 5
ENDMDL
