MODEL 1
REMARK VINA RESULT:      -9.0      0.000      0.000
REMARK  8 active torsions:
REMARK  status: ('A' for Active; 'I' for Inactive)
REMARK    1  A    between atoms: C_4  and  O_5 
REMARK    2  A    between atoms: O_5  and  C_6 
REMARK    3  A    between atoms: C_8  and  C_9 
REMARK    4  A    between atoms: C_9  and  N_10 
REMARK    5  A    between atoms: C_9  and  C_14 
REMARK       I    between atoms: N_10  and  C_11 
REMARK       I    between atoms: C_11  and  N_12 
REMARK    6  A    between atoms: C_14  and  C_15 
REMARK       I    between atoms: C_15  and  N_16 
REMARK    7  A    between atoms: N_16  and  N_17 
REMARK       I    between atoms: N_17  and  C_18 
REMARK    8  A    between atoms: C_18  and  C_19 
ROOT
HETATM    1  C   UNL     1      42.010 -13.573   3.374  1.00  0.00     0.127 C 
ENDROOT
BRANCH   1   2
HETATM    2  C   UNL     1      42.183 -14.574   4.502  1.00  0.00    -0.032 A 
HETATM    3  C   UNL     1      43.178 -15.559   4.370  1.00  0.00     0.046 A 
HETATM    4  C   UNL     1      43.385 -16.515   5.367  1.00  0.00     0.076 A 
HETATM    5  C   UNL     1      42.620 -16.479   6.533  1.00  0.00     0.037 A 
HETATM    6  C   UNL     1      41.611 -15.525   6.666  1.00  0.00     0.003 A 
HETATM    7  C   UNL     1      41.383 -14.589   5.654  1.00  0.00     0.009 A 
BRANCH   4   8
HETATM    8  O   UNL     1      44.416 -17.399   5.159  1.00  0.00    -0.311 OA
BRANCH   8   9
HETATM    9  C   UNL     1      44.164 -18.562   4.468  1.00  0.00     0.076 A 
HETATM   10  C   UNL     1      44.046 -18.625   3.077  1.00  0.00     0.037 A 
HETATM   11  C   UNL     1      43.833 -19.857   2.455  1.00  0.00     0.003 A 
HETATM   12  C   UNL     1      43.762 -21.023   3.217  1.00  0.00     0.000 A 
HETATM   13  C   UNL     1      43.910 -20.963   4.603  1.00  0.00     0.003 A 
HETATM   14  C   UNL     1      44.118 -19.732   5.227  1.00  0.00     0.037 A 
ENDBRANCH   8   9
ENDBRANCH   4   8
ENDBRANCH   1   2
BRANCH   1  15
HETATM   15  N   UNL     1      40.608 -13.175   3.332  1.00  0.00    -0.339 N 
HETATM   16  C   UNL     1      39.716 -13.804   2.522  1.00  0.00     0.292 C 
HETATM   17  N   UNL     1      38.481 -13.247   2.581  1.00  0.00    -0.254 NA
HETATM   18  O   UNL     1      39.961 -14.764   1.810  1.00  0.00    -0.254 OA
HETATM   19  H   UNL     1      38.178 -12.915   3.485  1.00  0.00     0.128 HD
HETATM   20  H   UNL     1      37.783 -13.777   2.074  1.00  0.00     0.128 HD
HETATM   21  H   UNL     1      40.383 -12.227   3.597  1.00  0.00     0.164 HD
ENDBRANCH   1  15
BRANCH   1  22
HETATM   22  C   UNL     1      42.925 -12.342   3.407  1.00  0.00     0.134 C 
BRANCH  22  23
HETATM   23  C   UNL     1      42.898 -11.525   4.681  1.00  0.00     0.238 C 
HETATM   24  N   UNL     1      44.060 -11.481   5.424  1.00  0.00    -0.267 N 
HETATM   25  H   UNL     1      44.742 -12.238   5.396  1.00  0.00     0.190 HD
HETATM   26  O   UNL     1      41.907 -10.855   4.983  1.00  0.00    -0.272 OA
BRANCH  24  27
HETATM   27  N   UNL     1      43.982 -10.815   6.663  1.00  0.00    -0.262 N 
HETATM   28  C   UNL     1      45.102 -10.803   7.478  1.00  0.00     0.293 C 
HETATM   29  O   UNL     1      46.214 -11.122   7.055  1.00  0.00    -0.264 OA
HETATM   30  H   UNL     1      43.062 -10.791   7.106  1.00  0.00     0.190 HD
BRANCH  28  31
HETATM   31  C   UNL     1      44.835 -10.397   8.840  1.00  0.00     0.144 A 
HETATM   32  O   UNL     1      44.008 -11.164   9.622  1.00  0.00    -0.317 OA
HETATM   33  C   UNL     1      43.921 -10.557  10.833  1.00  0.00     0.143 A 
HETATM   34  C   UNL     1      44.683  -9.413  10.854  1.00  0.00     0.027 A 
HETATM   35  C   UNL     1      45.273  -9.308   9.572  1.00  0.00     0.045 A 
ENDBRANCH  28  31
ENDBRANCH  24  27
ENDBRANCH  22  23
ENDBRANCH   1  22
TORSDOF 8
ENDMDL
MODEL 2
REMARK VINA RESULT:      -9.0      2.293      3.752
REMARK  8 active torsions:
REMARK  status: ('A' for Active; 'I' for Inactive)
REMARK    1  A    between atoms: C_4  and  O_5 
REMARK    2  A    between atoms: O_5  and  C_6 
REMARK    3  A    between atoms: C_8  and  C_9 
REMARK    4  A    between atoms: C_9  and  N_10 
REMARK    5  A    between atoms: C_9  and  C_14 
REMARK       I    between atoms: N_10  and  C_11 
REMARK       I    between atoms: C_11  and  N_12 
REMARK    6  A    between atoms: C_14  and  C_15 
REMARK       I    between atoms: C_15  and  N_16 
REMARK    7  A    between atoms: N_16  and  N_17 
REMARK       I    between atoms: N_17  and  C_18 
REMARK    8  A    between atoms: C_18  and  C_19 
ROOT
HETATM    1  C   UNL     1      42.848 -12.176   6.272  1.00  0.00     0.127 C 
ENDROOT
BRANCH   1   2
HETATM    2  C   UNL     1      42.276 -13.483   5.752  1.00  0.00    -0.032 A 
HETATM    3  C   UNL     1      42.970 -14.152   4.728  1.00  0.00     0.046 A 
HETATM    4  C   UNL     1      42.496 -15.354   4.199  1.00  0.00     0.076 A 
HETATM    5  C   UNL     1      41.333 -15.927   4.712  1.00  0.00     0.037 A 
HETATM    6  C   UNL     1      40.618 -15.262   5.708  1.00  0.00     0.003 A 
HETATM    7  C   UNL     1      41.077 -14.043   6.215  1.00  0.00     0.009 A 
BRANCH   4   8
HETATM    8  O   UNL     1      43.279 -15.948   3.238  1.00  0.00    -0.311 OA
BRANCH   8   9
HETATM    9  C   UNL     1      43.409 -17.317   3.242  1.00  0.00     0.076 A 
HETATM   10  C   UNL     1      42.988 -18.137   2.193  1.00  0.00     0.037 A 
HETATM   11  C   UNL     1      43.200 -19.516   2.262  1.00  0.00     0.003 A 
HETATM   12  C   UNL     1      43.852 -20.070   3.365  1.00  0.00     0.000 A 
HETATM   13  C   UNL     1      44.299 -19.246   4.398  1.00  0.00     0.003 A 
HETATM   14  C   UNL     1      44.083 -17.869   4.333  1.00  0.00     0.037 A 
ENDBRANCH   8   9
ENDBRANCH   4   8
ENDBRANCH   1   2
BRANCH   1  15
HETATM   15  N   UNL     1      44.033 -11.855   5.485  1.00  0.00    -0.339 N 
HETATM   16  C   UNL     1      45.190 -11.454   6.075  1.00  0.00     0.292 C 
HETATM   17  N   UNL     1      46.151 -11.143   5.172  1.00  0.00    -0.254 NA
HETATM   18  O   UNL     1      45.379 -11.374   7.278  1.00  0.00    -0.254 OA
HETATM   19  H   UNL     1      46.193 -11.716   4.341  1.00  0.00     0.128 HD
HETATM   20  H   UNL     1      47.050 -10.957   5.598  1.00  0.00     0.128 HD
HETATM   21  H   UNL     1      43.893 -11.565   4.528  1.00  0.00     0.164 HD
ENDBRANCH   1  15
BRANCH   1  22
HETATM   22  C   UNL     1      41.887 -10.982   6.323  1.00  0.00     0.134 C 
BRANCH  22  23
HETATM   23  C   UNL     1      42.023 -10.065   7.520  1.00  0.00     0.238 C 
HETATM   24  N   UNL     1      42.810 -10.508   8.563  1.00  0.00    -0.267 N 
HETATM   25  H   UNL     1      42.948 -11.501   8.746  1.00  0.00     0.190 HD
HETATM   26  O   UNL     1      41.527  -8.936   7.513  1.00  0.00    -0.272 OA
BRANCH  24  27
HETATM   27  N   UNL     1      42.830  -9.698   9.716  1.00  0.00    -0.262 N 
HETATM   28  C   UNL     1      43.314 -10.239  10.896  1.00  0.00     0.293 C 
HETATM   29  O   UNL     1      43.951 -11.292  10.911  1.00  0.00    -0.264 OA
HETATM   30  H   UNL     1      42.107  -8.978   9.775  1.00  0.00     0.190 HD
BRANCH  28  31
HETATM   31  C   UNL     1      42.993  -9.464  12.074  1.00  0.00     0.144 A 
HETATM   32  O   UNL     1      42.127  -9.980  13.004  1.00  0.00    -0.317 OA
HETATM   33  C   UNL     1      41.993  -9.055  13.989  1.00  0.00     0.143 A 
HETATM   34  C   UNL     1      42.765  -7.950  13.718  1.00  0.00     0.027 A 
HETATM   35  C   UNL     1      43.410  -8.211  12.486  1.00  0.00     0.045 A 
ENDBRANCH  28  31
ENDBRANCH  24  27
ENDBRANCH  22  23
ENDBRANCH   1  22
TORSDOF 8
ENDMDL
MODEL 3
REMARK VINA RESULT:      -8.9      2.690      6.599
REMARK  8 active torsions:
REMARK  status: ('A' for Active; 'I' for Inactive)
REMARK    1  A    between atoms: C_4  and  O_5 
REMARK    2  A    between atoms: O_5  and  C_6 
REMARK    3  A    between atoms: C_8  and  C_9 
REMARK    4  A    between atoms: C_9  and  N_10 
REMARK    5  A    between atoms: C_9  and  C_14 
REMARK       I    between atoms: N_10  and  C_11 
REMARK       I    between atoms: C_11  and  N_12 
REMARK    6  A    between atoms: C_14  and  C_15 
REMARK       I    between atoms: C_15  and  N_16 
REMARK    7  A    between atoms: N_16  and  N_17 
REMARK       I    between atoms: N_17  and  C_18 
REMARK    8  A    between atoms: C_18  and  C_19 
ROOT
HETATM    1  C   UNL     1      41.716 -12.693   5.275  1.00  0.00     0.127 C 
ENDROOT
BRANCH   1   2
HETATM    2  C   UNL     1      41.783 -14.172   5.613  1.00  0.00    -0.032 A 
HETATM    3  C   UNL     1      42.860 -14.921   5.106  1.00  0.00     0.046 A 
HETATM    4  C   UNL     1      42.979 -16.287   5.372  1.00  0.00     0.076 A 
HETATM    5  C   UNL     1      42.037 -16.921   6.182  1.00  0.00     0.037 A 
HETATM    6  C   UNL     1      40.948 -16.197   6.669  1.00  0.00     0.003 A 
HETATM    7  C   UNL     1      40.813 -14.837   6.376  1.00  0.00     0.009 A 
BRANCH   4   8
HETATM    8  O   UNL     1      44.096 -16.911   4.870  1.00  0.00    -0.311 OA
BRANCH   8   9
HETATM    9  C   UNL     1      43.940 -18.073   4.151  1.00  0.00     0.076 A 
HETATM   10  C   UNL     1      44.243 -19.340   4.655  1.00  0.00     0.037 A 
HETATM   11  C   UNL     1      44.012 -20.472   3.869  1.00  0.00     0.003 A 
HETATM   12  C   UNL     1      43.458 -20.339   2.596  1.00  0.00     0.000 A 
HETATM   13  C   UNL     1      43.128 -19.075   2.106  1.00  0.00     0.003 A 
HETATM   14  C   UNL     1      43.363 -17.943   2.887  1.00  0.00     0.037 A 
ENDBRANCH   8   9
ENDBRANCH   4   8
ENDBRANCH   1   2
BRANCH   1  15
HETATM   15  N   UNL     1      42.719 -12.416   4.254  1.00  0.00    -0.339 N 
HETATM   16  C   UNL     1      43.811 -11.652   4.521  1.00  0.00     0.292 C 
HETATM   17  N   UNL     1      44.588 -11.459   3.427  1.00  0.00    -0.254 NA
HETATM   18  O   UNL     1      44.094 -11.178   5.610  1.00  0.00    -0.254 OA
HETATM   19  H   UNL     1      44.675 -12.239   2.791  1.00  0.00     0.128 HD
HETATM   20  H   UNL     1      45.462 -10.993   3.638  1.00  0.00     0.128 HD
HETATM   21  H   UNL     1      42.427 -12.459   3.288  1.00  0.00     0.164 HD
ENDBRANCH   1  15
BRANCH   1  22
HETATM   22  C   UNL     1      40.344 -12.151   4.854  1.00  0.00     0.134 C 
BRANCH  22  23
HETATM   23  C   UNL     1      39.978 -12.323   3.395  1.00  0.00     0.238 C 
HETATM   24  N   UNL     1      39.376 -13.511   3.034  1.00  0.00    -0.267 N 
HETATM   25  H   UNL     1      39.534 -14.371   3.557  1.00  0.00     0.190 HD
HETATM   26  O   UNL     1      40.128 -11.399   2.591  1.00  0.00    -0.272 OA
BRANCH  24  27
HETATM   27  N   UNL     1      39.151 -13.702   1.656  1.00  0.00    -0.262 N 
HETATM   28  C   UNL     1      40.125 -14.345   0.911  1.00  0.00     0.293 C 
HETATM   29  O   UNL     1      41.041 -14.971   1.445  1.00  0.00    -0.264 OA
HETATM   30  H   UNL     1      38.572 -13.000   1.192  1.00  0.00     0.190 HD
BRANCH  28  31
HETATM   31  C   UNL     1      39.962 -14.202  -0.519  1.00  0.00     0.144 A 
HETATM   32  O   UNL     1      39.183 -15.103  -1.201  1.00  0.00    -0.317 OA
HETATM   33  C   UNL     1      39.210 -14.749  -2.512  1.00  0.00     0.143 A 
HETATM   34  C   UNL     1      39.987 -13.629  -2.691  1.00  0.00     0.027 A 
HETATM   35  C   UNL     1      40.471 -13.275  -1.409  1.00  0.00     0.045 A 
ENDBRANCH  28  31
ENDBRANCH  24  27
ENDBRANCH  22  23
ENDBRANCH   1  22
TORSDOF 8
ENDMDL
MODEL 4
REMARK VINA RESULT:      -8.9      2.489      7.101
REMARK  8 active torsions:
REMARK  status: ('A' for Active; 'I' for Inactive)
REMARK    1  A    between atoms: C_4  and  O_5 
REMARK    2  A    between atoms: O_5  and  C_6 
REMARK    3  A    between atoms: C_8  and  C_9 
REMARK    4  A    between atoms: C_9  and  N_10 
REMARK    5  A    between atoms: C_9  and  C_14 
REMARK       I    between atoms: N_10  and  C_11 
REMARK       I    between atoms: C_11  and  N_12 
REMARK    6  A    between atoms: C_14  and  C_15 
REMARK       I    between atoms: C_15  and  N_16 
REMARK    7  A    between atoms: N_16  and  N_17 
REMARK       I    between atoms: N_17  and  C_18 
REMARK    8  A    between atoms: C_18  and  C_19 
ROOT
HETATM    1  C   UNL     1      42.719 -12.736   4.377  1.00  0.00     0.127 C 
ENDROOT
BRANCH   1   2
HETATM    2  C   UNL     1      42.362 -14.100   4.941  1.00  0.00    -0.032 A 
HETATM    3  C   UNL     1      43.319 -15.127   4.855  1.00  0.00     0.046 A 
HETATM    4  C   UNL     1      43.052 -16.406   5.347  1.00  0.00     0.076 A 
HETATM    5  C   UNL     1      41.832 -16.671   5.967  1.00  0.00     0.037 A 
HETATM    6  C   UNL     1      40.861 -15.671   6.035  1.00  0.00     0.003 A 
HETATM    7  C   UNL     1      41.117 -14.399   5.514  1.00  0.00     0.009 A 
BRANCH   4   8
HETATM    8  O   UNL     1      44.076 -17.319   5.257  1.00  0.00    -0.311 OA
BRANCH   8   9
HETATM    9  C   UNL     1      43.905 -18.431   4.466  1.00  0.00     0.076 A 
HETATM   10  C   UNL     1      43.642 -18.372   3.095  1.00  0.00     0.037 A 
HETATM   11  C   UNL     1      43.526 -19.553   2.360  1.00  0.00     0.003 A 
HETATM   12  C   UNL     1      43.697 -20.788   2.987  1.00  0.00     0.000 A 
HETATM   13  C   UNL     1      43.990 -20.845   4.350  1.00  0.00     0.003 A 
HETATM   14  C   UNL     1      44.100 -19.666   5.087  1.00  0.00     0.037 A 
ENDBRANCH   8   9
ENDBRANCH   4   8
ENDBRANCH   1   2
BRANCH   1  15
HETATM   15  N   UNL     1      43.801 -12.182   5.184  1.00  0.00    -0.339 N 
HETATM   16  C   UNL     1      43.556 -11.301   6.190  1.00  0.00     0.292 C 
HETATM   17  N   UNL     1      44.694 -10.856   6.777  1.00  0.00    -0.254 NA
HETATM   18  O   UNL     1      42.451 -10.932   6.553  1.00  0.00    -0.254 OA
HETATM   19  H   UNL     1      45.442 -11.526   6.879  1.00  0.00     0.128 HD
HETATM   20  H   UNL     1      44.521 -10.293   7.600  1.00  0.00     0.128 HD
HETATM   21  H   UNL     1      44.722 -12.146   4.771  1.00  0.00     0.164 HD
ENDBRANCH   1  15
BRANCH   1  22
HETATM   22  C   UNL     1      43.071 -12.684   2.885  1.00  0.00     0.134 C 
BRANCH  22  23
HETATM   23  C   UNL     1      41.902 -12.613   1.926  1.00  0.00     0.238 C 
HETATM   24  N   UNL     1      41.860 -13.554   0.917  1.00  0.00    -0.267 N 
HETATM   25  H   UNL     1      42.707 -13.988   0.553  1.00  0.00     0.190 HD
HETATM   26  O   UNL     1      40.985 -11.808   2.103  1.00  0.00    -0.272 OA
BRANCH  24  27
HETATM   27  N   UNL     1      40.832 -13.401  -0.035  1.00  0.00    -0.262 N 
HETATM   28  C   UNL     1      39.961 -14.458  -0.241  1.00  0.00     0.293 C 
HETATM   29  O   UNL     1      39.895 -15.405   0.542  1.00  0.00    -0.264 OA
HETATM   30  H   UNL     1      41.033 -12.779  -0.820  1.00  0.00     0.190 HD
BRANCH  28  31
HETATM   31  C   UNL     1      39.166 -14.339  -1.444  1.00  0.00     0.144 A 
HETATM   32  O   UNL     1      38.282 -13.296  -1.566  1.00  0.00    -0.317 OA
HETATM   33  C   UNL     1      37.666 -13.428  -2.768  1.00  0.00     0.143 A 
HETATM   34  C   UNL     1      38.140 -14.534  -3.433  1.00  0.00     0.027 A 
HETATM   35  C   UNL     1      39.107 -15.122  -2.582  1.00  0.00     0.045 A 
ENDBRANCH  28  31
ENDBRANCH  24  27
ENDBRANCH  22  23
ENDBRANCH   1  22
TORSDOF 8
ENDMDL
MODEL 5
REMARK VINA RESULT:      -8.9      2.099      3.159
REMARK  8 active torsions:
REMARK  status: ('A' for Active; 'I' for Inactive)
REMARK    1  A    between atoms: C_4  and  O_5 
REMARK    2  A    between atoms: O_5  and  C_6 
REMARK    3  A    between atoms: C_8  and  C_9 
REMARK    4  A    between atoms: C_9  and  N_10 
REMARK    5  A    between atoms: C_9  and  C_14 
REMARK       I    between atoms: N_10  and  C_11 
REMARK       I    between atoms: C_11  and  N_12 
REMARK    6  A    between atoms: C_14  and  C_15 
REMARK       I    between atoms: C_15  and  N_16 
REMARK    7  A    between atoms: N_16  and  N_17 
REMARK       I    between atoms: N_17  and  C_18 
REMARK    8  A    between atoms: C_18  and  C_19 
ROOT
HETATM    1  C   UNL     1      42.079 -13.842   5.670  1.00  0.00     0.127 C 
ENDROOT
BRANCH   1   2
HETATM    2  C   UNL     1      41.795 -14.648   4.415  1.00  0.00    -0.032 A 
HETATM    3  C   UNL     1      42.824 -15.456   3.897  1.00  0.00     0.046 A 
HETATM    4  C   UNL     1      42.632 -16.217   2.743  1.00  0.00     0.076 A 
HETATM    5  C   UNL     1      41.392 -16.211   2.105  1.00  0.00     0.037 A 
HETATM    6  C   UNL     1      40.371 -15.395   2.591  1.00  0.00     0.003 A 
HETATM    7  C   UNL     1      40.573 -14.608   3.729  1.00  0.00     0.009 A 
BRANCH   4   8
HETATM    8  O   UNL     1      43.686 -17.008   2.352  1.00  0.00    -0.311 OA
BRANCH   8   9
HETATM    9  C   UNL     1      43.811 -18.264   2.898  1.00  0.00     0.076 A 
HETATM   10  C   UNL     1      44.245 -18.500   4.205  1.00  0.00     0.037 A 
HETATM   11  C   UNL     1      44.300 -19.807   4.692  1.00  0.00     0.003 A 
HETATM   12  C   UNL     1      43.899 -20.873   3.885  1.00  0.00     0.000 A 
HETATM   13  C   UNL     1      43.437 -20.633   2.591  1.00  0.00     0.003 A 
HETATM   14  C   UNL     1      43.387 -19.328   2.101  1.00  0.00     0.037 A 
ENDBRANCH   8   9
ENDBRANCH   4   8
ENDBRANCH   1   2
BRANCH   1  15
HETATM   15  N   UNL     1      42.881 -14.666   6.566  1.00  0.00    -0.339 N 
HETATM   16  C   UNL     1      42.321 -15.653   7.314  1.00  0.00     0.292 C 
HETATM   17  N   UNL     1      43.220 -16.261   8.127  1.00  0.00    -0.254 NA
HETATM   18  O   UNL     1      41.147 -15.986   7.282  1.00  0.00    -0.254 OA
HETATM   19  H   UNL     1      44.150 -16.390   7.756  1.00  0.00     0.128 HD
HETATM   20  H   UNL     1      42.842 -17.072   8.601  1.00  0.00     0.128 HD
HETATM   21  H   UNL     1      43.744 -14.274   6.916  1.00  0.00     0.164 HD
ENDBRANCH   1  15
BRANCH   1  22
HETATM   22  C   UNL     1      42.728 -12.467   5.466  1.00  0.00     0.134 C 
BRANCH  22  23
HETATM   23  C   UNL     1      42.521 -11.459   6.577  1.00  0.00     0.238 C 
HETATM   24  N   UNL     1      43.500 -11.382   7.545  1.00  0.00    -0.267 N 
HETATM   25  H   UNL     1      44.092 -12.180   7.774  1.00  0.00     0.190 HD
HETATM   26  O   UNL     1      41.563 -10.682   6.556  1.00  0.00    -0.272 OA
BRANCH  24  27
HETATM   27  N   UNL     1      43.235 -10.525   8.633  1.00  0.00    -0.262 N 
HETATM   28  C   UNL     1      44.170 -10.443   9.652  1.00  0.00     0.293 C 
HETATM   29  O   UNL     1      45.312 -10.881   9.519  1.00  0.00    -0.264 OA
HETATM   30  H   UNL     1      42.251 -10.384   8.867  1.00  0.00     0.190 HD
BRANCH  28  31
HETATM   31  C   UNL     1      43.674  -9.813  10.856  1.00  0.00     0.144 A 
HETATM   32  O   UNL     1      43.034 -10.576  11.800  1.00  0.00    -0.317 OA
HETATM   33  C   UNL     1      42.665  -9.745  12.808  1.00  0.00     0.143 A 
HETATM   34  C   UNL     1      43.062  -8.456  12.539  1.00  0.00     0.027 A 
HETATM   35  C   UNL     1      43.713  -8.498  11.282  1.00  0.00     0.045 A 
ENDBRANCH  28  31
ENDBRANCH  24  27
ENDBRANCH  22  23
ENDBRANCH   1  22
TORSDOF 8
ENDMDL
MODEL 6
REMARK VINA RESULT:      -8.9      1.887      2.373
REMARK  8 active torsions:
REMARK  status: ('A' for Active; 'I' for Inactive)
REMARK    1  A    between atoms: C_4  and  O_5 
REMARK    2  A    between atoms: O_5  and  C_6 
REMARK    3  A    between atoms: C_8  and  C_9 
REMARK    4  A    between atoms: C_9  and  N_10 
REMARK    5  A    between atoms: C_9  and  C_14 
REMARK       I    between atoms: N_10  and  C_11 
REMARK       I    between atoms: C_11  and  N_12 
REMARK    6  A    between atoms: C_14  and  C_15 
REMARK       I    between atoms: C_15  and  N_16 
REMARK    7  A    between atoms: N_16  and  N_17 
REMARK       I    between atoms: N_17  and  C_18 
REMARK    8  A    between atoms: C_18  and  C_19 
ROOT
HETATM    1  C   UNL     1      42.401 -12.624   5.356  1.00  0.00     0.127 C 
ENDROOT
BRANCH   1   2
HETATM    2  C   UNL     1      42.271 -14.102   5.680  1.00  0.00    -0.032 A 
HETATM    3  C   UNL     1      43.253 -14.980   5.188  1.00  0.00     0.046 A 
HETATM    4  C   UNL     1      43.190 -16.351   5.443  1.00  0.00     0.076 A 
HETATM    5  C   UNL     1      42.157 -16.864   6.228  1.00  0.00     0.037 A 
HETATM    6  C   UNL     1      41.160 -16.010   6.700  1.00  0.00     0.003 A 
HETATM    7  C   UNL     1      41.207 -14.642   6.417  1.00  0.00     0.009 A 
BRANCH   4   8
HETATM    8  O   UNL     1      44.228 -17.110   4.958  1.00  0.00    -0.311 OA
BRANCH   8   9
HETATM    9  C   UNL     1      43.940 -18.201   4.170  1.00  0.00     0.076 A 
HETATM   10  C   UNL     1      43.464 -18.105   2.861  1.00  0.00     0.037 A 
HETATM   11  C   UNL     1      43.240 -19.266   2.117  1.00  0.00     0.003 A 
HETATM   12  C   UNL     1      43.514 -20.516   2.673  1.00  0.00     0.000 A 
HETATM   13  C   UNL     1      44.019 -20.609   3.970  1.00  0.00     0.003 A 
HETATM   14  C   UNL     1      44.237 -19.451   4.716  1.00  0.00     0.037 A 
ENDBRANCH   8   9
ENDBRANCH   4   8
ENDBRANCH   1   2
BRANCH   1  15
HETATM   15  N   UNL     1      41.155 -11.966   5.733  1.00  0.00    -0.339 N 
HETATM   16  C   UNL     1      40.274 -11.527   4.796  1.00  0.00     0.292 C 
HETATM   17  N   UNL     1      39.211 -10.888   5.344  1.00  0.00    -0.254 NA
HETATM   18  O   UNL     1      40.391 -11.674   3.590  1.00  0.00    -0.254 OA
HETATM   19  H   UNL     1      38.861 -11.259   6.216  1.00  0.00     0.128 HD
HETATM   20  H   UNL     1      38.493 -10.661   4.668  1.00  0.00     0.128 HD
HETATM   21  H   UNL     1      41.123 -11.505   6.630  1.00  0.00     0.164 HD
ENDBRANCH   1  15
BRANCH   1  22
HETATM   22  C   UNL     1      43.607 -11.896   5.962  1.00  0.00     0.134 C 
BRANCH  22  23
HETATM   23  C   UNL     1      43.305 -10.922   7.082  1.00  0.00     0.238 C 
HETATM   24  N   UNL     1      43.653 -11.308   8.360  1.00  0.00    -0.267 N 
HETATM   25  H   UNL     1      43.707 -12.290   8.627  1.00  0.00     0.190 HD
HETATM   26  O   UNL     1      42.855  -9.799   6.841  1.00  0.00    -0.272 OA
BRANCH  24  27
HETATM   27  N   UNL     1      43.258 -10.444   9.401  1.00  0.00    -0.262 N 
HETATM   28  C   UNL     1      44.096 -10.302  10.494  1.00  0.00     0.293 C 
HETATM   29  O   UNL     1      45.264 -10.691  10.471  1.00  0.00    -0.264 OA
HETATM   30  H   UNL     1      42.252 -10.343   9.546  1.00  0.00     0.190 HD
BRANCH  28  31
HETATM   31  C   UNL     1      43.471  -9.672  11.637  1.00  0.00     0.144 A 
HETATM   32  O   UNL     1      42.614 -10.401  12.422  1.00  0.00    -0.317 OA
HETATM   33  C   UNL     1      42.165  -9.577  13.403  1.00  0.00     0.143 A 
HETATM   34  C   UNL     1      42.724  -8.327  13.274  1.00  0.00     0.027 A 
HETATM   35  C   UNL     1      43.565  -8.386  12.138  1.00  0.00     0.045 A 
ENDBRANCH  28  31
ENDBRANCH  24  27
ENDBRANCH  22  23
ENDBRANCH   1  22
TORSDOF 8
ENDMDL
MODEL 7
REMARK VINA RESULT:      -8.8      3.562      6.619
REMARK  8 active torsions:
REMARK  status: ('A' for Active; 'I' for Inactive)
REMARK    1  A    between atoms: C_4  and  O_5 
REMARK    2  A    between atoms: O_5  and  C_6 
REMARK    3  A    between atoms: C_8  and  C_9 
REMARK    4  A    between atoms: C_9  and  N_10 
REMARK    5  A    between atoms: C_9  and  C_14 
REMARK       I    between atoms: N_10  and  C_11 
REMARK       I    between atoms: C_11  and  N_12 
REMARK    6  A    between atoms: C_14  and  C_15 
REMARK       I    between atoms: C_15  and  N_16 
REMARK    7  A    between atoms: N_16  and  N_17 
REMARK       I    between atoms: N_17  and  C_18 
REMARK    8  A    between atoms: C_18  and  C_19 
ROOT
HETATM    1  C   UNL     1      40.756 -14.905   5.023  1.00  0.00     0.127 C 
ENDROOT
BRANCH   1   2
HETATM    2  C   UNL     1      41.888 -15.521   5.826  1.00  0.00    -0.032 A 
HETATM    3  C   UNL     1      42.827 -16.319   5.149  1.00  0.00     0.046 A 
HETATM    4  C   UNL     1      43.887 -16.922   5.829  1.00  0.00     0.076 A 
HETATM    5  C   UNL     1      44.047 -16.706   7.197  1.00  0.00     0.037 A 
HETATM    6  C   UNL     1      43.108 -15.939   7.888  1.00  0.00     0.003 A 
HETATM    7  C   UNL     1      42.029 -15.362   7.213  1.00  0.00     0.009 A 
BRANCH   4   8
HETATM    8  O   UNL     1      44.774 -17.639   5.062  1.00  0.00    -0.311 OA
BRANCH   8   9
HETATM    9  C   UNL     1      44.286 -18.600   4.207  1.00  0.00     0.076 A 
HETATM   10  C   UNL     1      43.878 -18.335   2.898  1.00  0.00     0.037 A 
HETATM   11  C   UNL     1      43.436 -19.380   2.084  1.00  0.00     0.003 A 
HETATM   12  C   UNL     1      43.424 -20.689   2.569  1.00  0.00     0.000 A 
HETATM   13  C   UNL     1      43.860 -20.956   3.867  1.00  0.00     0.003 A 
HETATM   14  C   UNL     1      44.297 -19.912   4.683  1.00  0.00     0.037 A 
ENDBRANCH   8   9
ENDBRANCH   4   8
ENDBRANCH   1   2
BRANCH   1  15
HETATM   15  N   UNL     1      40.955 -13.460   4.997  1.00  0.00    -0.339 N 
HETATM   16  C   UNL     1      40.095 -12.615   5.625  1.00  0.00     0.292 C 
HETATM   17  N   UNL     1      40.415 -11.312   5.431  1.00  0.00    -0.254 NA
HETATM   18  O   UNL     1      39.134 -12.954   6.298  1.00  0.00    -0.254 OA
HETATM   19  H   UNL     1      41.399 -11.087   5.407  1.00  0.00     0.128 HD
HETATM   20  H   UNL     1      39.854 -10.679   5.987  1.00  0.00     0.128 HD
HETATM   21  H   UNL     1      41.480 -13.074   4.226  1.00  0.00     0.164 HD
ENDBRANCH   1  15
BRANCH   1  22
HETATM   22  C   UNL     1      40.549 -15.452   3.605  1.00  0.00     0.134 C 
BRANCH  22  23
HETATM   23  C   UNL     1      40.621 -14.439   2.482  1.00  0.00     0.238 C 
HETATM   24  N   UNL     1      39.434 -14.099   1.865  1.00  0.00    -0.267 N 
HETATM   25  H   UNL     1      38.644 -14.742   1.834  1.00  0.00     0.190 HD
HETATM   26  O   UNL     1      41.684 -13.879   2.201  1.00  0.00    -0.272 OA
BRANCH  24  27
HETATM   27  N   UNL     1      39.534 -13.248   0.747  1.00  0.00    -0.262 N 
HETATM   28  C   UNL     1      39.744 -13.816  -0.499  1.00  0.00     0.293 C 
HETATM   29  O   UNL     1      39.591 -15.022  -0.695  1.00  0.00    -0.264 OA
HETATM   30  H   UNL     1      39.910 -12.314   0.922  1.00  0.00     0.190 HD
BRANCH  28  31
HETATM   31  C   UNL     1      40.159 -12.872  -1.514  1.00  0.00     0.144 A 
HETATM   32  O   UNL     1      40.099 -11.528  -1.247  1.00  0.00    -0.317 OA
HETATM   33  C   UNL     1      40.528 -10.877  -2.358  1.00  0.00     0.143 A 
HETATM   34  C   UNL     1      40.874 -11.776  -3.339  1.00  0.00     0.027 A 
HETATM   35  C   UNL     1      40.638 -13.062  -2.797  1.00  0.00     0.045 A 
ENDBRANCH  28  31
ENDBRANCH  24  27
ENDBRANCH  22  23
ENDBRANCH   1  22
TORSDOF 8
ENDMDL
MODEL 8
REMARK VINA RESULT:      -8.6      2.184      8.810
REMARK  8 active torsions:
REMARK  status: ('A' for Active; 'I' for Inactive)
REMARK    1  A    between atoms: C_4  and  O_5 
REMARK    2  A    between atoms: O_5  and  C_6 
REMARK    3  A    between atoms: C_8  and  C_9 
REMARK    4  A    between atoms: C_9  and  N_10 
REMARK    5  A    between atoms: C_9  and  C_14 
REMARK       I    between atoms: N_10  and  C_11 
REMARK       I    between atoms: C_11  and  N_12 
REMARK    6  A    between atoms: C_14  and  C_15 
REMARK       I    between atoms: C_15  and  N_16 
REMARK    7  A    between atoms: N_16  and  N_17 
REMARK       I    between atoms: N_17  and  C_18 
REMARK    8  A    between atoms: C_18  and  C_19 
ROOT
HETATM    1  C   UNL     1      42.686 -12.555   5.864  1.00  0.00     0.127 C 
ENDROOT
BRANCH   1   2
HETATM    2  C   UNL     1      43.676 -11.666   6.597  1.00  0.00    -0.032 A 
HETATM    3  C   UNL     1      43.173 -10.585   7.343  1.00  0.00     0.046 A 
HETATM    4  C   UNL     1      44.027  -9.724   8.034  1.00  0.00     0.076 A 
HETATM    5  C   UNL     1      45.403  -9.952   8.019  1.00  0.00     0.037 A 
HETATM    6  C   UNL     1      45.919 -11.004   7.262  1.00  0.00     0.003 A 
HETATM    7  C   UNL     1      45.065 -11.846   6.544  1.00  0.00     0.009 A 
BRANCH   4   8
HETATM    8  O   UNL     1      43.427  -8.732   8.771  1.00  0.00    -0.311 OA
BRANCH   8   9
HETATM    9  C   UNL     1      43.230  -8.933  10.118  1.00  0.00     0.076 A 
HETATM   10  C   UNL     1      43.291 -10.187  10.729  1.00  0.00     0.037 A 
HETATM   11  C   UNL     1      43.121 -10.294  12.112  1.00  0.00     0.003 A 
HETATM   12  C   UNL     1      42.916  -9.148  12.882  1.00  0.00     0.000 A 
HETATM   13  C   UNL     1      42.886  -7.893  12.274  1.00  0.00     0.003 A 
HETATM   14  C   UNL     1      43.049  -7.786  10.892  1.00  0.00     0.037 A 
ENDBRANCH   8   9
ENDBRANCH   4   8
ENDBRANCH   1   2
BRANCH   1  15
HETATM   15  N   UNL     1      41.352 -11.996   6.050  1.00  0.00    -0.339 N 
HETATM   16  C   UNL     1      40.266 -12.796   6.224  1.00  0.00     0.292 C 
HETATM   17  N   UNL     1      39.113 -12.089   6.315  1.00  0.00    -0.254 NA
HETATM   18  O   UNL     1      40.289 -14.014   6.299  1.00  0.00    -0.254 OA
HETATM   19  H   UNL     1      39.160 -11.207   6.804  1.00  0.00     0.128 HD
HETATM   20  H   UNL     1      38.316 -12.662   6.562  1.00  0.00     0.128 HD
HETATM   21  H   UNL     1      41.175 -11.075   5.677  1.00  0.00     0.164 HD
ENDBRANCH   1  15
BRANCH   1  22
HETATM   22  C   UNL     1      42.968 -12.811   4.379  1.00  0.00     0.134 C 
BRANCH  22  23
HETATM   23  C   UNL     1      42.762 -14.231   3.895  1.00  0.00     0.238 C 
HETATM   24  N   UNL     1      42.672 -15.216   4.858  1.00  0.00    -0.267 N 
HETATM   25  H   UNL     1      43.119 -15.117   5.768  1.00  0.00     0.190 HD
HETATM   26  O   UNL     1      42.588 -14.474   2.698  1.00  0.00    -0.272 OA
BRANCH  24  27
HETATM   27  N   UNL     1      42.599 -16.542   4.387  1.00  0.00    -0.262 N 
HETATM   28  C   UNL     1      43.723 -17.344   4.497  1.00  0.00     0.293 C 
HETATM   29  O   UNL     1      44.676 -17.029   5.209  1.00  0.00    -0.264 OA
HETATM   30  H   UNL     1      41.958 -16.711   3.610  1.00  0.00     0.190 HD
BRANCH  28  31
HETATM   31  C   UNL     1      43.663 -18.553   3.704  1.00  0.00     0.144 A 
HETATM   32  O   UNL     1      43.966 -19.756   4.289  1.00  0.00    -0.317 OA
HETATM   33  C   UNL     1      43.844 -20.712   3.332  1.00  0.00     0.143 A 
HETATM   34  C   UNL     1      43.459 -20.149   2.138  1.00  0.00     0.027 A 
HETATM   35  C   UNL     1      43.341 -18.759   2.375  1.00  0.00     0.045 A 
ENDBRANCH  28  31
ENDBRANCH  24  27
ENDBRANCH  22  23
ENDBRANCH   1  22
TORSDOF 8
ENDMDL
MODEL 9
REMARK VINA RESULT:      -8.6      1.918      2.603
REMARK  8 active torsions:
REMARK  status: ('A' for Active; 'I' for Inactive)
REMARK    1  A    between atoms: C_4  and  O_5 
REMARK    2  A    between atoms: O_5  and  C_6 
REMARK    3  A    between atoms: C_8  and  C_9 
REMARK    4  A    between atoms: C_9  and  N_10 
REMARK    5  A    between atoms: C_9  and  C_14 
REMARK       I    between atoms: N_10  and  C_11 
REMARK       I    between atoms: C_11  and  N_12 
REMARK    6  A    between atoms: C_14  and  C_15 
REMARK       I    between atoms: C_15  and  N_16 
REMARK    7  A    between atoms: N_16  and  N_17 
REMARK       I    between atoms: N_17  and  C_18 
REMARK    8  A    between atoms: C_18  and  C_19 
ROOT
HETATM    1  C   UNL     1      41.590 -13.061   4.084  1.00  0.00     0.127 C 
ENDROOT
BRANCH   1   2
HETATM    2  C   UNL     1      41.539 -14.443   3.455  1.00  0.00    -0.032 A 
HETATM    3  C   UNL     1      42.721 -15.205   3.430  1.00  0.00     0.046 A 
HETATM    4  C   UNL     1      42.746 -16.479   2.860  1.00  0.00     0.076 A 
HETATM    5  C   UNL     1      41.576 -17.029   2.336  1.00  0.00     0.037 A 
HETATM    6  C   UNL     1      40.403 -16.274   2.329  1.00  0.00     0.003 A 
HETATM    7  C   UNL     1      40.386 -14.986   2.871  1.00  0.00     0.009 A 
BRANCH   4   8
HETATM    8  O   UNL     1      43.939 -17.157   2.934  1.00  0.00    -0.311 OA
BRANCH   8   9
HETATM    9  C   UNL     1      43.958 -18.408   3.507  1.00  0.00     0.076 A 
HETATM   10  C   UNL     1      44.017 -18.625   4.886  1.00  0.00     0.037 A 
HETATM   11  C   UNL     1      43.987 -19.930   5.383  1.00  0.00     0.003 A 
HETATM   12  C   UNL     1      43.875 -21.011   4.508  1.00  0.00     0.000 A 
HETATM   13  C   UNL     1      43.785 -20.790   3.133  1.00  0.00     0.003 A 
HETATM   14  C   UNL     1      43.821 -19.488   2.634  1.00  0.00     0.037 A 
ENDBRANCH   8   9
ENDBRANCH   4   8
ENDBRANCH   1   2
BRANCH   1  15
HETATM   15  N   UNL     1      41.560 -12.074   3.011  1.00  0.00    -0.339 N 
HETATM   16  C   UNL     1      42.530 -11.130   2.889  1.00  0.00     0.292 C 
HETATM   17  N   UNL     1      42.289 -10.269   1.870  1.00  0.00    -0.254 NA
HETATM   18  O   UNL     1      43.521 -11.038   3.596  1.00  0.00    -0.254 OA
HETATM   19  H   UNL     1      41.873 -10.660   1.037  1.00  0.00     0.128 HD
HETATM   20  H   UNL     1      43.060  -9.636   1.695  1.00  0.00     0.128 HD
HETATM   21  H   UNL     1      40.662 -11.849   2.608  1.00  0.00     0.164 HD
ENDBRANCH   1  15
BRANCH   1  22
HETATM   22  C   UNL     1      40.520 -12.752   5.139  1.00  0.00     0.134 C 
BRANCH  22  23
HETATM   23  C   UNL     1      40.886 -11.709   6.174  1.00  0.00     0.238 C 
HETATM   24  N   UNL     1      42.223 -11.572   6.483  1.00  0.00    -0.267 N 
HETATM   25  H   UNL     1      42.878 -12.346   6.383  1.00  0.00     0.190 HD
HETATM   26  O   UNL     1      40.029 -10.955   6.644  1.00  0.00    -0.272 OA
BRANCH  24  27
HETATM   27  N   UNL     1      42.533 -10.682   7.531  1.00  0.00    -0.262 N 
HETATM   28  C   UNL     1      43.646 -10.944   8.312  1.00  0.00     0.293 C 
HETATM   29  O   UNL     1      44.500 -11.762   7.970  1.00  0.00    -0.264 OA
HETATM   30  H   UNL     1      41.742 -10.198   7.961  1.00  0.00     0.190 HD
BRANCH  28  31
HETATM   31  C   UNL     1      43.694 -10.183   9.542  1.00  0.00     0.144 A 
HETATM   32  O   UNL     1      43.501 -10.826  10.739  1.00  0.00    -0.317 OA
HETATM   33  C   UNL     1      43.584  -9.889  11.718  1.00  0.00     0.143 A 
HETATM   34  C   UNL     1      43.836  -8.650  11.177  1.00  0.00     0.027 A 
HETATM   35  C   UNL     1      43.908  -8.837   9.776  1.00  0.00     0.045 A 
ENDBRANCH  28  31
ENDBRANCH  24  27
ENDBRANCH  22  23
ENDBRANCH   1  22
TORSDOF 8
ENDMDL
MODEL 10
REMARK VINA RESULT:      -8.3      2.826      6.767
REMARK  8 active torsions:
REMARK  status: ('A' for Active; 'I' for Inactive)
REMARK    1  A    between atoms: C_4  and  O_5 
REMARK    2  A    between atoms: O_5  and  C_6 
REMARK    3  A    between atoms: C_8  and  C_9 
REMARK    4  A    between atoms: C_9  and  N_10 
REMARK    5  A    between atoms: C_9  and  C_14 
REMARK       I    between atoms: N_10  and  C_11 
REMARK       I    between atoms: C_11  and  N_12 
REMARK    6  A    between atoms: C_14  and  C_15 
REMARK       I    between atoms: C_15  and  N_16 
REMARK    7  A    between atoms: N_16  and  N_17 
REMARK       I    between atoms: N_17  and  C_18 
REMARK    8  A    between atoms: C_18  and  C_19 
ROOT
HETATM    1  C   UNL     1      40.744 -11.874   5.655  1.00  0.00     0.127 C 
ENDROOT
BRANCH   1   2
HETATM    2  C   UNL     1      41.875 -12.833   5.983  1.00  0.00    -0.032 A 
HETATM    3  C   UNL     1      41.622 -14.213   5.899  1.00  0.00     0.046 A 
HETATM    4  C   UNL     1      42.614 -15.149   6.194  1.00  0.00     0.076 A 
HETATM    5  C   UNL     1      43.894 -14.717   6.545  1.00  0.00     0.037 A 
HETATM    6  C   UNL     1      44.153 -13.351   6.659  1.00  0.00     0.003 A 
HETATM    7  C   UNL     1      43.149 -12.415   6.394  1.00  0.00     0.009 A 
BRANCH   4   8
HETATM    8  O   UNL     1      42.274 -16.471   6.032  1.00  0.00    -0.311 OA
BRANCH   8   9
HETATM    9  C   UNL     1      42.922 -17.208   5.067  1.00  0.00     0.076 A 
HETATM   10  C   UNL     1      43.794 -18.261   5.355  1.00  0.00     0.037 A 
HETATM   11  C   UNL     1      44.375 -18.985   4.312  1.00  0.00     0.003 A 
HETATM   12  C   UNL     1      44.066 -18.674   2.987  1.00  0.00     0.000 A 
HETATM   13  C   UNL     1      43.171 -17.643   2.702  1.00  0.00     0.003 A 
HETATM   14  C   UNL     1      42.595 -16.914   3.743  1.00  0.00     0.037 A 
ENDBRANCH   8   9
ENDBRANCH   4   8
ENDBRANCH   1   2
BRANCH   1  15
HETATM   15  N   UNL     1      41.249 -10.885   4.709  1.00  0.00    -0.339 N 
HETATM   16  C   UNL     1      41.265  -9.559   5.010  1.00  0.00     0.292 C 
HETATM   17  N   UNL     1      41.711  -8.800   3.980  1.00  0.00    -0.254 NA
HETATM   18  O   UNL     1      40.926  -9.072   6.077  1.00  0.00    -0.254 OA
HETATM   19  H   UNL     1      42.457  -9.188   3.422  1.00  0.00     0.128 HD
HETATM   20  H   UNL     1      41.838  -7.827   4.230  1.00  0.00     0.128 HD
HETATM   21  H   UNL     1      41.226 -11.121   3.728  1.00  0.00     0.164 HD
ENDBRANCH   1  15
BRANCH   1  22
HETATM   22  C   UNL     1      39.442 -12.503   5.142  1.00  0.00     0.134 C 
BRANCH  22  23
HETATM   23  C   UNL     1      39.216 -12.443   3.646  1.00  0.00     0.238 C 
HETATM   24  N   UNL     1      39.190 -13.643   2.967  1.00  0.00    -0.267 N 
HETATM   25  H   UNL     1      39.691 -14.463   3.308  1.00  0.00     0.190 HD
HETATM   26  O   UNL     1      38.972 -11.372   3.085  1.00  0.00    -0.272 OA
BRANCH  24  27
HETATM   27  N   UNL     1      39.098 -13.563   1.562  1.00  0.00    -0.262 N 
HETATM   28  C   UNL     1      39.971 -14.320   0.799  1.00  0.00     0.293 C 
HETATM   29  O   UNL     1      40.634 -15.234   1.289  1.00  0.00    -0.264 OA
HETATM   30  H   UNL     1      38.768 -12.674   1.182  1.00  0.00     0.190 HD
BRANCH  28  31
HETATM   31  C   UNL     1      40.026 -13.929  -0.593  1.00  0.00     0.144 A 
HETATM   32  O   UNL     1      40.729 -12.805  -0.949  1.00  0.00    -0.317 OA
HETATM   33  C   UNL     1      40.608 -12.664  -2.294  1.00  0.00     0.143 A 
HETATM   34  C   UNL     1      39.846 -13.680  -2.818  1.00  0.00     0.027 A 
HETATM   35  C   UNL     1      39.470 -14.497  -1.725  1.00  0.00     0.045 A 
ENDBRANCH  28  31
ENDBRANCH  24  27
ENDBRANCH  22  23
ENDBRANCH   1  22
TORSDOF 8
ENDMDL
