MODEL 1
REMARK VINA RESULT:      -9.0      0.000      0.000
REMARK  4 active torsions:
REMARK  status: ('A' for Active; 'I' for Inactive)
REMARK    1  A    between atoms: C_6  and  C_7 
REMARK       I    between atoms: C_7  and  N_8 
REMARK    2  A    between atoms: N_8  and  C_9 
REMARK    3  A    between atoms: C_16  and  C_17 
REMARK       I    between atoms: C_17  and  N_18 
REMARK    4  A    between atoms: C_25  and  O_26 
ROOT
HETATM    1  C   UNL     1      40.583 -15.013   2.648  1.00  0.00     0.259 C 
HETATM    2  N   UNL     1      40.839 -13.934   1.823  1.00  0.00    -0.323 N 
HETATM    3  O   UNL     1      39.541 -15.656   2.678  1.00  0.00    -0.267 OA
HETATM    4  H   UNL     1      41.772 -13.553   1.861  1.00  0.00     0.169 HD
ENDROOT
BRANCH   2   5
HETATM    5  C   UNL     1      39.976 -13.352   0.867  1.00  0.00     0.036 A 
HETATM    6  C   UNL     1      39.552 -14.000  -0.302  1.00  0.00     0.046 A 
HETATM    7  C   UNL     1      38.711 -13.321  -1.211  1.00  0.00     0.030 A 
HETATM    8  C   UNL     1      38.303 -12.028  -0.911  1.00  0.00     0.063 A 
HETATM    9  C   UNL     1      38.116 -13.612  -2.477  1.00  0.00     0.156 A 
HETATM   10  N   UNL     1      37.506 -11.647  -1.954  1.00  0.00    -0.277 N 
HETATM   11  C   UNL     1      38.695 -11.356   0.248  1.00  0.00     0.034 A 
HETATM   12  H   UNL     1      37.028 -10.762  -2.070  1.00  0.00     0.189 HD
HETATM   13  N   UNL     1      37.375 -12.571  -2.920  1.00  0.00    -0.168 NA
HETATM   14  C   UNL     1      39.546 -12.042   1.124  1.00  0.00     0.032 A 
BRANCH   9  15
HETATM   15  C   UNL     1      38.250 -14.842  -3.269  1.00  0.00     0.270 C 
HETATM   16  N   UNL     1      38.399 -15.978  -2.519  1.00  0.00    -0.365 N 
HETATM   17  H   UNL     1      38.391 -15.896  -1.509  1.00  0.00     0.159 HD
HETATM   18  H   UNL     1      38.473 -16.872  -2.977  1.00  0.00     0.159 HD
HETATM   19  O   UNL     1      38.227 -14.891  -4.494  1.00  0.00    -0.266 OA
ENDBRANCH   9  15
ENDBRANCH   2   5
BRANCH   1  20
HETATM   20  C   UNL     1      41.710 -15.388   3.500  1.00  0.00     0.074 A 
HETATM   21  C   UNL     1      42.183 -14.582   4.529  1.00  0.00     0.066 A 
HETATM   22  C   UNL     1      41.778 -13.254   5.043  1.00  0.00     0.078 C 
HETATM   23  O   UNL     1      43.213 -15.183   5.180  1.00  0.00    -0.314 OA
HETATM   24  C   UNL     1      43.442 -16.367   4.561  1.00  0.00     0.087 A 
HETATM   25  C   UNL     1      42.561 -16.547   3.501  1.00  0.00     0.019 A 
HETATM   26  C   UNL     1      44.432 -17.275   4.928  1.00  0.00     0.041 A 
HETATM   27  C   UNL     1      42.705 -17.720   2.719  1.00  0.00     0.052 A 
HETATM   28  C   UNL     1      43.683 -18.665   3.068  1.00  0.00     0.069 A 
HETATM   29  C   UNL     1      44.530 -18.435   4.158  1.00  0.00     0.039 A 
BRANCH  28  30
HETATM   30  O   UNL     1      43.918 -19.846   2.416  1.00  0.00    -0.356 OA
HETATM   31  C   UNL     1      43.883 -21.036   3.192  1.00  0.00     0.210 C 
ENDBRANCH  28  30
ENDBRANCH   1  20
TORSDOF 4
ENDMDL
MODEL 2
REMARK VINA RESULT:      -9.0      1.596      2.033
REMARK  4 active torsions:
REMARK  status: ('A' for Active; 'I' for Inactive)
REMARK    1  A    between atoms: C_6  and  C_7 
REMARK       I    between atoms: C_7  and  N_8 
REMARK    2  A    between atoms: N_8  and  C_9 
REMARK    3  A    between atoms: C_16  and  C_17 
REMARK       I    between atoms: C_17  and  N_18 
REMARK    4  A    between atoms: C_25  and  O_26 
ROOT
HETATM    1  C   UNL     1      42.555 -15.206   3.441  1.00  0.00     0.259 C 
HETATM    2  N   UNL     1      41.186 -15.111   3.271  1.00  0.00    -0.323 N 
HETATM    3  O   UNL     1      43.392 -14.522   2.865  1.00  0.00    -0.267 OA
HETATM    4  H   UNL     1      40.620 -15.692   3.871  1.00  0.00     0.169 HD
ENDROOT
BRANCH   2   5
HETATM    5  C   UNL     1      40.478 -14.236   2.418  1.00  0.00     0.036 A 
HETATM    6  C   UNL     1      40.282 -14.465   1.049  1.00  0.00     0.046 A 
HETATM    7  C   UNL     1      39.582 -13.513   0.274  1.00  0.00     0.030 A 
HETATM    8  C   UNL     1      39.082 -12.377   0.897  1.00  0.00     0.063 A 
HETATM    9  C   UNL     1      39.222 -13.370  -1.101  1.00  0.00     0.156 A 
HETATM   10  N   UNL     1      38.460 -11.666  -0.090  1.00  0.00    -0.277 N 
HETATM   11  C   UNL     1      39.247 -12.122   2.259  1.00  0.00     0.034 A 
HETATM   12  H   UNL     1      37.976 -10.780   0.003  1.00  0.00     0.189 HD
HETATM   13  N   UNL     1      38.528 -12.227  -1.308  1.00  0.00    -0.168 NA
HETATM   14  C   UNL     1      39.963 -13.070   3.002  1.00  0.00     0.032 A 
BRANCH   9  15
HETATM   15  C   UNL     1      39.533 -14.282  -2.209  1.00  0.00     0.270 C 
HETATM   16  N   UNL     1      38.696 -15.362  -2.297  1.00  0.00    -0.365 N 
HETATM   17  H   UNL     1      37.941 -15.447  -1.627  1.00  0.00     0.159 HD
HETATM   18  H   UNL     1      38.819 -16.029  -3.043  1.00  0.00     0.159 HD
HETATM   19  O   UNL     1      40.446 -14.121  -3.012  1.00  0.00    -0.266 OA
ENDBRANCH   9  15
ENDBRANCH   2   5
BRANCH   1  20
HETATM   20  C   UNL     1      42.962 -16.196   4.435  1.00  0.00     0.074 A 
HETATM   21  C   UNL     1      43.102 -15.900   5.786  1.00  0.00     0.066 A 
HETATM   22  C   UNL     1      42.925 -14.660   6.575  1.00  0.00     0.078 C 
HETATM   23  O   UNL     1      43.456 -17.007   6.490  1.00  0.00    -0.314 OA
HETATM   24  C   UNL     1      43.583 -18.024   5.602  1.00  0.00     0.087 A 
HETATM   25  C   UNL     1      43.310 -17.586   4.311  1.00  0.00     0.019 A 
HETATM   26  C   UNL     1      43.947 -19.325   5.934  1.00  0.00     0.041 A 
HETATM   27  C   UNL     1      43.447 -18.522   3.257  1.00  0.00     0.052 A 
HETATM   28  C   UNL     1      43.799 -19.848   3.555  1.00  0.00     0.069 A 
HETATM   29  C   UNL     1      44.044 -20.234   4.877  1.00  0.00     0.039 A 
BRANCH  28  30
HETATM   30  O   UNL     1      43.947 -20.858   2.642  1.00  0.00    -0.356 OA
HETATM   31  C   UNL     1      43.574 -20.580   1.299  1.00  0.00     0.210 C 
ENDBRANCH  28  30
ENDBRANCH   1  20
TORSDOF 4
ENDMDL
MODEL 3
REMARK VINA RESULT:      -9.0      3.121      8.400
REMARK  4 active torsions:
REMARK  status: ('A' for Active; 'I' for Inactive)
REMARK    1  A    between atoms: C_6  and  C_7 
REMARK       I    between atoms: C_7  and  N_8 
REMARK    2  A    between atoms: N_8  and  C_9 
REMARK    3  A    between atoms: C_16  and  C_17 
REMARK       I    between atoms: C_17  and  N_18 
REMARK    4  A    between atoms: C_25  and  O_26 
ROOT
HETATM    1  C   UNL     1      41.159 -13.957   1.813  1.00  0.00     0.259 C 
HETATM    2  N   UNL     1      42.369 -14.625   1.829  1.00  0.00    -0.323 N 
HETATM    3  O   UNL     1      40.190 -14.224   2.512  1.00  0.00    -0.267 OA
HETATM    4  H   UNL     1      43.100 -14.242   1.248  1.00  0.00     0.169 HD
ENDROOT
BRANCH   2   5
HETATM    5  C   UNL     1      42.737 -15.732   2.626  1.00  0.00     0.036 A 
HETATM    6  C   UNL     1      42.599 -15.772   4.021  1.00  0.00     0.046 A 
HETATM    7  C   UNL     1      43.023 -16.917   4.732  1.00  0.00     0.030 A 
HETATM    8  C   UNL     1      43.548 -17.990   4.025  1.00  0.00     0.063 A 
HETATM    9  C   UNL     1      43.081 -17.313   6.104  1.00  0.00     0.156 A 
HETATM   10  N   UNL     1      43.853 -18.932   4.968  1.00  0.00    -0.277 N 
HETATM   11  C   UNL     1      43.689 -17.991   2.637  1.00  0.00     0.034 A 
HETATM   12  H   UNL     1      44.252 -19.850   4.812  1.00  0.00     0.189 HD
HETATM   13  N   UNL     1      43.594 -18.558   6.231  1.00  0.00    -0.168 NA
HETATM   14  C   UNL     1      43.281 -16.837   1.955  1.00  0.00     0.032 A 
BRANCH   9  15
HETATM   15  C   UNL     1      42.677 -16.532   7.281  1.00  0.00     0.270 C 
HETATM   16  N   UNL     1      43.608 -16.510   8.284  1.00  0.00    -0.365 N 
HETATM   17  H   UNL     1      44.482 -17.003   8.146  1.00  0.00     0.159 HD
HETATM   18  H   UNL     1      43.427 -15.979   9.120  1.00  0.00     0.159 HD
HETATM   19  O   UNL     1      41.614 -15.930   7.389  1.00  0.00    -0.266 OA
ENDBRANCH   9  15
ENDBRANCH   2   5
BRANCH   1  20
HETATM   20  C   UNL     1      41.121 -12.823   0.892  1.00  0.00     0.074 A 
HETATM   21  C   UNL     1      41.562 -11.551   1.237  1.00  0.00     0.066 A 
HETATM   22  C   UNL     1      42.132 -10.979   2.478  1.00  0.00     0.078 C 
HETATM   23  O   UNL     1      41.445 -10.697   0.187  1.00  0.00    -0.314 OA
HETATM   24  C   UNL     1      40.896 -11.394  -0.838  1.00  0.00     0.087 A 
HETATM   25  C   UNL     1      40.653 -12.711  -0.463  1.00  0.00     0.019 A 
HETATM   26  C   UNL     1      40.605 -10.864  -2.092  1.00  0.00     0.041 A 
HETATM   27  C   UNL     1      40.033 -13.560  -1.412  1.00  0.00     0.052 A 
HETATM   28  C   UNL     1      39.738 -13.064  -2.692  1.00  0.00     0.069 A 
HETATM   29  C   UNL     1      40.023 -11.733  -3.016  1.00  0.00     0.039 A 
BRANCH  28  30
HETATM   30  O   UNL     1      39.160 -13.776  -3.709  1.00  0.00    -0.356 OA
HETATM   31  C   UNL     1      38.333 -14.874  -3.346  1.00  0.00     0.210 C 
ENDBRANCH  28  30
ENDBRANCH   1  20
TORSDOF 4
ENDMDL
MODEL 4
REMARK VINA RESULT:      -8.8      5.042      9.050
REMARK  4 active torsions:
REMARK  status: ('A' for Active; 'I' for Inactive)
REMARK    1  A    between atoms: C_6  and  C_7 
REMARK       I    between atoms: C_7  and  N_8 
REMARK    2  A    between atoms: N_8  and  C_9 
REMARK    3  A    between atoms: C_16  and  C_17 
REMARK       I    between atoms: C_17  and  N_18 
REMARK    4  A    between atoms: C_25  and  O_26 
ROOT
HETATM    1  C   UNL     1      43.015 -14.050   6.133  1.00  0.00     0.259 C 
HETATM    2  N   UNL     1      43.527 -12.788   5.901  1.00  0.00    -0.323 N 
HETATM    3  O   UNL     1      43.063 -14.653   7.197  1.00  0.00    -0.267 OA
HETATM    4  H   UNL     1      43.346 -12.392   4.990  1.00  0.00     0.169 HD
ENDROOT
BRANCH   2   5
HETATM    5  C   UNL     1      44.202 -11.945   6.813  1.00  0.00     0.036 A 
HETATM    6  C   UNL     1      43.740 -11.666   8.107  1.00  0.00     0.046 A 
HETATM    7  C   UNL     1      44.474 -10.786   8.935  1.00  0.00     0.030 A 
HETATM    8  C   UNL     1      45.653 -10.236   8.451  1.00  0.00     0.063 A 
HETATM    9  C   UNL     1      44.323 -10.242  10.247  1.00  0.00     0.156 A 
HETATM   10  N   UNL     1      46.130  -9.451   9.464  1.00  0.00    -0.277 N 
HETATM   11  C   UNL     1      46.149 -10.501   7.174  1.00  0.00     0.034 A 
HETATM   12  H   UNL     1      46.979  -8.898   9.465  1.00  0.00     0.189 HD
HETATM   13  N   UNL     1      45.353  -9.423  10.558  1.00  0.00    -0.168 NA
HETATM   14  C   UNL     1      45.394 -11.360   6.364  1.00  0.00     0.032 A 
BRANCH   9  15
HETATM   15  C   UNL     1      43.222 -10.474  11.193  1.00  0.00     0.270 C 
HETATM   16  N   UNL     1      43.489 -11.426  12.140  1.00  0.00    -0.365 N 
HETATM   17  H   UNL     1      44.397 -11.878  12.132  1.00  0.00     0.159 HD
HETATM   18  H   UNL     1      42.801 -11.634  12.845  1.00  0.00     0.159 HD
HETATM   19  O   UNL     1      42.149  -9.881  11.176  1.00  0.00    -0.266 OA
ENDBRANCH   9  15
ENDBRANCH   2   5
BRANCH   1  20
HETATM   20  C   UNL     1      42.339 -14.637   4.978  1.00  0.00     0.074 A 
HETATM   21  C   UNL     1      41.202 -14.081   4.402  1.00  0.00     0.066 A 
HETATM   22  C   UNL     1      40.391 -12.883   4.715  1.00  0.00     0.078 C 
HETATM   23  O   UNL     1      40.801 -14.807   3.326  1.00  0.00    -0.314 OA
HETATM   24  C   UNL     1      41.650 -15.858   3.211  1.00  0.00     0.087 A 
HETATM   25  C   UNL     1      42.613 -15.824   4.213  1.00  0.00     0.019 A 
HETATM   26  C   UNL     1      41.563 -16.844   2.232  1.00  0.00     0.041 A 
HETATM   27  C   UNL     1      43.549 -16.886   4.260  1.00  0.00     0.052 A 
HETATM   28  C   UNL     1      43.501 -17.891   3.281  1.00  0.00     0.069 A 
HETATM   29  C   UNL     1      42.518 -17.861   2.286  1.00  0.00     0.039 A 
BRANCH  28  30
HETATM   30  O   UNL     1      44.352 -18.960   3.194  1.00  0.00    -0.356 OA
HETATM   31  C   UNL     1      43.913 -20.082   2.440  1.00  0.00     0.210 C 
ENDBRANCH  28  30
ENDBRANCH   1  20
TORSDOF 4
ENDMDL
MODEL 5
REMARK VINA RESULT:      -8.6      4.008      7.624
REMARK  4 active torsions:
REMARK  status: ('A' for Active; 'I' for Inactive)
REMARK    1  A    between atoms: C_6  and  C_7 
REMARK       I    between atoms: C_7  and  N_8 
REMARK    2  A    between atoms: N_8  and  C_9 
REMARK    3  A    between atoms: C_16  and  C_17 
REMARK       I    between atoms: C_17  and  N_18 
REMARK    4  A    between atoms: C_25  and  O_26 
ROOT
HETATM    1  C   UNL     1      41.538 -14.450   4.971  1.00  0.00     0.259 C 
HETATM    2  N   UNL     1      42.129 -13.244   4.642  1.00  0.00    -0.323 N 
HETATM    3  O   UNL     1      40.949 -14.692   6.017  1.00  0.00    -0.267 OA
HETATM    4  H   UNL     1      42.513 -13.173   3.712  1.00  0.00     0.169 HD
ENDROOT
BRANCH   2   5
HETATM    5  C   UNL     1      42.183 -12.066   5.420  1.00  0.00     0.036 A 
HETATM    6  C   UNL     1      43.280 -11.703   6.214  1.00  0.00     0.046 A 
HETATM    7  C   UNL     1      43.225 -10.516   6.979  1.00  0.00     0.030 A 
HETATM    8  C   UNL     1      42.088  -9.722   6.907  1.00  0.00     0.063 A 
HETATM    9  C   UNL     1      44.085  -9.847   7.903  1.00  0.00     0.156 A 
HETATM   10  N   UNL     1      42.333  -8.661   7.734  1.00  0.00    -0.277 N 
HETATM   11  C   UNL     1      40.983 -10.046   6.118  1.00  0.00     0.034 A 
HETATM   12  H   UNL     1      41.720  -7.876   7.923  1.00  0.00     0.189 HD
HETATM   13  N   UNL     1      43.521  -8.704   8.357  1.00  0.00    -0.168 NA
HETATM   14  C   UNL     1      41.052 -11.238   5.385  1.00  0.00     0.032 A 
BRANCH   9  15
HETATM   15  C   UNL     1      45.412 -10.277   8.366  1.00  0.00     0.270 C 
HETATM   16  N   UNL     1      46.436  -9.941   7.522  1.00  0.00    -0.365 N 
HETATM   17  H   UNL     1      46.218  -9.427   6.676  1.00  0.00     0.159 HD
HETATM   18  H   UNL     1      47.383 -10.174   7.771  1.00  0.00     0.159 HD
HETATM   19  O   UNL     1      45.625 -10.876   9.415  1.00  0.00    -0.266 OA
ENDBRANCH   9  15
ENDBRANCH   2   5
BRANCH   1  20
HETATM   20  C   UNL     1      41.629 -15.460   3.919  1.00  0.00     0.074 A 
HETATM   21  C   UNL     1      40.883 -15.404   2.748  1.00  0.00     0.066 A 
HETATM   22  C   UNL     1      39.878 -14.447   2.233  1.00  0.00     0.078 C 
HETATM   23  O   UNL     1      41.186 -16.446   1.931  1.00  0.00    -0.314 OA
HETATM   24  C   UNL     1      42.103 -17.209   2.576  1.00  0.00     0.087 A 
HETATM   25  C   UNL     1      42.407 -16.666   3.819  1.00  0.00     0.019 A 
HETATM   26  C   UNL     1      42.657 -18.381   2.069  1.00  0.00     0.041 A 
HETATM   27  C   UNL     1      43.317 -17.375   4.641  1.00  0.00     0.052 A 
HETATM   28  C   UNL     1      43.907 -18.554   4.157  1.00  0.00     0.069 A 
HETATM   29  C   UNL     1      43.574 -19.041   2.889  1.00  0.00     0.039 A 
BRANCH  28  30
HETATM   30  O   UNL     1      44.814 -19.326   4.832  1.00  0.00    -0.356 OA
HETATM   31  C   UNL     1      44.406 -20.638   5.200  1.00  0.00     0.210 C 
ENDBRANCH  28  30
ENDBRANCH   1  20
TORSDOF 4
ENDMDL
MODEL 6
REMARK VINA RESULT:      -8.6      1.926      2.700
REMARK  4 active torsions:
REMARK  status: ('A' for Active; 'I' for Inactive)
REMARK    1  A    between atoms: C_6  and  C_7 
REMARK       I    between atoms: C_7  and  N_8 
REMARK    2  A    between atoms: N_8  and  C_9 
REMARK    3  A    between atoms: C_16  and  C_17 
REMARK       I    between atoms: C_17  and  N_18 
REMARK    4  A    between atoms: C_25  and  O_26 
ROOT
HETATM    1  C   UNL     1      41.030 -14.492   2.594  1.00  0.00     0.259 C 
HETATM    2  N   UNL     1      41.477 -14.372   1.292  1.00  0.00    -0.323 N 
HETATM    3  O   UNL     1      39.913 -14.189   2.994  1.00  0.00    -0.267 OA
HETATM    4  H   UNL     1      42.400 -14.733   1.100  1.00  0.00     0.169 HD
ENDROOT
BRANCH   2   5
HETATM    5  C   UNL     1      40.765 -13.883   0.173  1.00  0.00     0.036 A 
HETATM    6  C   UNL     1      40.876 -12.573  -0.313  1.00  0.00     0.046 A 
HETATM    7  C   UNL     1      40.098 -12.171  -1.422  1.00  0.00     0.030 A 
HETATM    8  C   UNL     1      39.256 -13.098  -2.022  1.00  0.00     0.063 A 
HETATM    9  C   UNL     1      39.907 -10.964  -2.162  1.00  0.00     0.156 A 
HETATM   10  N   UNL     1      38.656 -12.430  -3.052  1.00  0.00    -0.277 N 
HETATM   11  C   UNL     1      39.129 -14.413  -1.573  1.00  0.00     0.034 A 
HETATM   12  H   UNL     1      37.980 -12.798  -3.712  1.00  0.00     0.189 HD
HETATM   13  N   UNL     1      39.016 -11.142  -3.165  1.00  0.00    -0.168 NA
HETATM   14  C   UNL     1      39.894 -14.782  -0.458  1.00  0.00     0.032 A 
BRANCH   9  15
HETATM   15  C   UNL     1      40.537  -9.658  -1.926  1.00  0.00     0.270 C 
HETATM   16  N   UNL     1      39.652  -8.620  -1.820  1.00  0.00    -0.365 N 
HETATM   17  H   UNL     1      38.660  -8.818  -1.894  1.00  0.00     0.159 HD
HETATM   18  H   UNL     1      39.993  -7.691  -1.633  1.00  0.00     0.159 HD
HETATM   19  O   UNL     1      41.745  -9.475  -1.818  1.00  0.00    -0.266 OA
ENDBRANCH   9  15
ENDBRANCH   2   5
BRANCH   1  20
HETATM   20  C   UNL     1      42.012 -15.074   3.506  1.00  0.00     0.074 A 
HETATM   21  C   UNL     1      42.506 -14.402   4.618  1.00  0.00     0.066 A 
HETATM   22  C   UNL     1      42.257 -13.056   5.181  1.00  0.00     0.078 C 
HETATM   23  O   UNL     1      43.377 -15.184   5.309  1.00  0.00    -0.314 OA
HETATM   24  C   UNL     1      43.484 -16.357   4.636  1.00  0.00     0.087 A 
HETATM   25  C   UNL     1      42.681 -16.348   3.501  1.00  0.00     0.019 A 
HETATM   26  C   UNL     1      44.295 -17.420   5.022  1.00  0.00     0.041 A 
HETATM   27  C   UNL     1      42.719 -17.488   2.661  1.00  0.00     0.052 A 
HETATM   28  C   UNL     1      43.514 -18.586   3.025  1.00  0.00     0.069 A 
HETATM   29  C   UNL     1      44.288 -18.542   4.190  1.00  0.00     0.039 A 
BRANCH  28  30
HETATM   30  O   UNL     1      43.630 -19.754   2.321  1.00  0.00    -0.356 OA
HETATM   31  C   UNL     1      43.924 -20.933   3.059  1.00  0.00     0.210 C 
ENDBRANCH  28  30
ENDBRANCH   1  20
TORSDOF 4
ENDMDL
MODEL 7
REMARK VINA RESULT:      -8.5      4.762      8.296
REMARK  4 active torsions:
REMARK  status: ('A' for Active; 'I' for Inactive)
REMARK    1  A    between atoms: C_6  and  C_7 
REMARK       I    between atoms: C_7  and  N_8 
REMARK    2  A    between atoms: N_8  and  C_9 
REMARK    3  A    between atoms: C_16  and  C_17 
REMARK       I    between atoms: C_17  and  N_18 
REMARK    4  A    between atoms: C_25  and  O_26 
ROOT
HETATM    1  C   UNL     1      42.842 -13.681   5.441  1.00  0.00     0.259 C 
HETATM    2  N   UNL     1      43.883 -12.772   5.413  1.00  0.00    -0.323 N 
HETATM    3  O   UNL     1      41.992 -13.763   6.318  1.00  0.00    -0.267 OA
HETATM    4  H   UNL     1      44.461 -12.779   4.586  1.00  0.00     0.169 HD
ENDROOT
BRANCH   2   5
HETATM    5  C   UNL     1      44.185 -11.773   6.365  1.00  0.00     0.036 A 
HETATM    6  C   UNL     1      43.217 -11.056   7.081  1.00  0.00     0.046 A 
HETATM    7  C   UNL     1      43.621 -10.054   7.992  1.00  0.00     0.030 A 
HETATM    8  C   UNL     1      44.978  -9.819   8.173  1.00  0.00     0.063 A 
HETATM    9  C   UNL     1      42.966  -9.118   8.850  1.00  0.00     0.156 A 
HETATM   10  N   UNL     1      45.053  -8.820   9.103  1.00  0.00    -0.277 N 
HETATM   11  C   UNL     1      45.970 -10.521   7.487  1.00  0.00     0.034 A 
HETATM   12  H   UNL     1      45.891  -8.396   9.483  1.00  0.00     0.189 HD
HETATM   13  N   UNL     1      43.863  -8.367   9.529  1.00  0.00    -0.168 NA
HETATM   14  C   UNL     1      45.544 -11.495   6.574  1.00  0.00     0.032 A 
BRANCH   9  15
HETATM   15  C   UNL     1      41.521  -8.918   9.021  1.00  0.00     0.270 C 
HETATM   16  N   UNL     1      40.981  -9.610  10.072  1.00  0.00    -0.365 N 
HETATM   17  H   UNL     1      41.594 -10.179  10.645  1.00  0.00     0.159 HD
HETATM   18  H   UNL     1      40.001  -9.514  10.281  1.00  0.00     0.159 HD
HETATM   19  O   UNL     1      40.826  -8.196   8.314  1.00  0.00    -0.266 OA
ENDBRANCH   9  15
ENDBRANCH   2   5
BRANCH   1  20
HETATM   20  C   UNL     1      42.792 -14.560   4.274  1.00  0.00     0.074 A 
HETATM   21  C   UNL     1      42.318 -14.147   3.035  1.00  0.00     0.066 A 
HETATM   22  C   UNL     1      41.770 -12.865   2.536  1.00  0.00     0.078 C 
HETATM   23  O   UNL     1      42.414 -15.149   2.122  1.00  0.00    -0.314 OA
HETATM   24  C   UNL     1      42.917 -16.231   2.765  1.00  0.00     0.087 A 
HETATM   25  C   UNL     1      43.155 -15.941   4.103  1.00  0.00     0.019 A 
HETATM   26  C   UNL     1      43.153 -17.467   2.170  1.00  0.00     0.041 A 
HETATM   27  C   UNL     1      43.638 -16.988   4.926  1.00  0.00     0.052 A 
HETATM   28  C   UNL     1      43.901 -18.245   4.359  1.00  0.00     0.069 A 
HETATM   29  C   UNL     1      43.658 -18.471   3.000  1.00  0.00     0.039 A 
BRANCH  28  30
HETATM   30  O   UNL     1      44.387 -19.336   5.029  1.00  0.00    -0.356 OA
HETATM   31  C   UNL     1      44.070 -20.617   4.502  1.00  0.00     0.210 C 
ENDBRANCH  28  30
ENDBRANCH   1  20
TORSDOF 4
ENDMDL
MODEL 8
REMARK VINA RESULT:      -8.4      1.635      3.387
REMARK  4 active torsions:
REMARK  status: ('A' for Active; 'I' for Inactive)
REMARK    1  A    between atoms: C_6  and  C_7 
REMARK       I    between atoms: C_7  and  N_8 
REMARK    2  A    between atoms: N_8  and  C_9 
REMARK    3  A    between atoms: C_16  and  C_17 
REMARK       I    between atoms: C_17  and  N_18 
REMARK    4  A    between atoms: C_25  and  O_26 
ROOT
HETATM    1  C   UNL     1      41.225 -15.482   2.615  1.00  0.00     0.259 C 
HETATM    2  N   UNL     1      41.722 -14.543   1.731  1.00  0.00    -0.323 N 
HETATM    3  O   UNL     1      40.052 -15.823   2.706  1.00  0.00    -0.267 OA
HETATM    4  H   UNL     1      42.724 -14.422   1.723  1.00  0.00     0.169 HD
ENDROOT
BRANCH   2   5
HETATM    5  C   UNL     1      41.005 -13.792   0.771  1.00  0.00     0.036 A 
HETATM    6  C   UNL     1      40.264 -14.362  -0.273  1.00  0.00     0.046 A 
HETATM    7  C   UNL     1      39.604 -13.523  -1.199  1.00  0.00     0.030 A 
HETATM    8  C   UNL     1      39.689 -12.147  -1.038  1.00  0.00     0.063 A 
HETATM    9  C   UNL     1      38.812 -13.710  -2.373  1.00  0.00     0.156 A 
HETATM   10  N   UNL     1      38.957 -11.615  -2.062  1.00  0.00    -0.277 N 
HETATM   11  C   UNL     1      40.408 -11.545  -0.004  1.00  0.00     0.034 A 
HETATM   12  H   UNL     1      38.794 -10.633  -2.255  1.00  0.00     0.189 HD
HETATM   13  N   UNL     1      38.419 -12.523  -2.891  1.00  0.00    -0.168 NA
HETATM   14  C   UNL     1      41.071 -12.397   0.890  1.00  0.00     0.032 A 
BRANCH   9  15
HETATM   15  C   UNL     1      38.438 -14.979  -3.011  1.00  0.00     0.270 C 
HETATM   16  N   UNL     1      37.990 -14.849  -4.298  1.00  0.00    -0.365 N 
HETATM   17  H   UNL     1      37.961 -13.924  -4.710  1.00  0.00     0.159 HD
HETATM   18  H   UNL     1      37.735 -15.670  -4.822  1.00  0.00     0.159 HD
HETATM   19  O   UNL     1      38.517 -16.080  -2.476  1.00  0.00    -0.266 OA
ENDBRANCH   9  15
ENDBRANCH   2   5
BRANCH   1  20
HETATM   20  C   UNL     1      42.247 -16.106   3.452  1.00  0.00     0.074 A 
HETATM   21  C   UNL     1      42.801 -17.349   3.170  1.00  0.00     0.066 A 
HETATM   22  C   UNL     1      42.579 -18.335   2.089  1.00  0.00     0.078 C 
HETATM   23  O   UNL     1      43.749 -17.676   4.088  1.00  0.00    -0.314 OA
HETATM   24  C   UNL     1      43.795 -16.668   4.993  1.00  0.00     0.087 A 
HETATM   25  C   UNL     1      42.878 -15.674   4.670  1.00  0.00     0.019 A 
HETATM   26  C   UNL     1      44.637 -16.636   6.101  1.00  0.00     0.041 A 
HETATM   27  C   UNL     1      42.769 -14.570   5.550  1.00  0.00     0.052 A 
HETATM   28  C   UNL     1      43.612 -14.496   6.671  1.00  0.00     0.069 A 
HETATM   29  C   UNL     1      44.528 -15.520   6.934  1.00  0.00     0.039 A 
BRANCH  28  30
HETATM   30  O   UNL     1      43.628 -13.481   7.590  1.00  0.00    -0.356 OA
HETATM   31  C   UNL     1      44.107 -12.216   7.153  1.00  0.00     0.210 C 
ENDBRANCH  28  30
ENDBRANCH   1  20
TORSDOF 4
ENDMDL
MODEL 9
REMARK VINA RESULT:      -8.4      3.381      8.839
REMARK  4 active torsions:
REMARK  status: ('A' for Active; 'I' for Inactive)
REMARK    1  A    between atoms: C_6  and  C_7 
REMARK       I    between atoms: C_7  and  N_8 
REMARK    2  A    between atoms: N_8  and  C_9 
REMARK    3  A    between atoms: C_16  and  C_17 
REMARK       I    between atoms: C_17  and  N_18 
REMARK    4  A    between atoms: C_25  and  O_26 
ROOT
HETATM    1  C   UNL     1      40.643 -13.911   0.646  1.00  0.00     0.259 C 
HETATM    2  N   UNL     1      41.918 -14.420   0.806  1.00  0.00    -0.323 N 
HETATM    3  O   UNL     1      39.727 -14.021   1.451  1.00  0.00    -0.267 OA
HETATM    4  H   UNL     1      42.587 -14.183   0.089  1.00  0.00     0.169 HD
ENDROOT
BRANCH   2   5
HETATM    5  C   UNL     1      42.424 -15.161   1.898  1.00  0.00     0.036 A 
HETATM    6  C   UNL     1      42.540 -14.655   3.200  1.00  0.00     0.046 A 
HETATM    7  C   UNL     1      43.086 -15.468   4.218  1.00  0.00     0.030 A 
HETATM    8  C   UNL     1      43.476 -16.763   3.907  1.00  0.00     0.063 A 
HETATM    9  C   UNL     1      43.391 -15.313   5.606  1.00  0.00     0.156 A 
HETATM   10  N   UNL     1      43.947 -17.292   5.076  1.00  0.00    -0.277 N 
HETATM   11  C   UNL     1      43.364 -17.304   2.625  1.00  0.00     0.034 A 
HETATM   12  H   UNL     1      44.311 -18.226   5.225  1.00  0.00     0.189 HD
HETATM   13  N   UNL     1      43.919 -16.448   6.119  1.00  0.00    -0.168 NA
HETATM   14  C   UNL     1      42.839 -16.472   1.627  1.00  0.00     0.032 A 
BRANCH   9  15
HETATM   15  C   UNL     1      43.205 -14.116   6.437  1.00  0.00     0.270 C 
HETATM   16  N   UNL     1      41.904 -13.874   6.787  1.00  0.00    -0.365 N 
HETATM   17  H   UNL     1      41.189 -14.521   6.474  1.00  0.00     0.159 HD
HETATM   18  H   UNL     1      41.685 -13.088   7.378  1.00  0.00     0.159 HD
HETATM   19  O   UNL     1      44.110 -13.378   6.812  1.00  0.00    -0.266 OA
ENDBRANCH   9  15
ENDBRANCH   2   5
BRANCH   1  20
HETATM   20  C   UNL     1      40.458 -13.155  -0.590  1.00  0.00     0.074 A 
HETATM   21  C   UNL     1      39.770 -13.655  -1.689  1.00  0.00     0.066 A 
HETATM   22  C   UNL     1      39.091 -14.944  -1.958  1.00  0.00     0.078 C 
HETATM   23  O   UNL     1      39.717 -12.736  -2.688  1.00  0.00    -0.314 OA
HETATM   24  C   UNL     1      40.398 -11.643  -2.264  1.00  0.00     0.087 A 
HETATM   25  C   UNL     1      40.899 -11.843  -0.982  1.00  0.00     0.019 A 
HETATM   26  C   UNL     1      40.583 -10.484  -3.012  1.00  0.00     0.041 A 
HETATM   27  C   UNL     1      41.680 -10.807  -0.413  1.00  0.00     0.052 A 
HETATM   28  C   UNL     1      41.875  -9.617  -1.133  1.00  0.00     0.069 A 
HETATM   29  C   UNL     1      41.331  -9.468  -2.412  1.00  0.00     0.039 A 
BRANCH  28  30
HETATM   30  O   UNL     1      42.588  -8.531  -0.698  1.00  0.00    -0.356 OA
HETATM   31  C   UNL     1      42.513  -7.348  -1.482  1.00  0.00     0.210 C 
ENDBRANCH  28  30
ENDBRANCH   1  20
TORSDOF 4
ENDMDL
MODEL 10
REMARK VINA RESULT:      -8.3      4.940      8.758
REMARK  4 active torsions:
REMARK  status: ('A' for Active; 'I' for Inactive)
REMARK    1  A    between atoms: C_6  and  C_7 
REMARK       I    between atoms: C_7  and  N_8 
REMARK    2  A    between atoms: N_8  and  C_9 
REMARK    3  A    between atoms: C_16  and  C_17 
REMARK       I    between atoms: C_17  and  N_18 
REMARK    4  A    between atoms: C_25  and  O_26 
ROOT
HETATM    1  C   UNL     1      43.472 -12.237   3.959  1.00  0.00     0.259 C 
HETATM    2  N   UNL     1      43.439 -12.497   5.316  1.00  0.00    -0.323 N 
HETATM    3  O   UNL     1      44.008 -11.271   3.433  1.00  0.00    -0.267 OA
HETATM    4  H   UNL     1      43.022 -13.373   5.594  1.00  0.00     0.169 HD
ENDROOT
BRANCH   2   5
HETATM    5  C   UNL     1      43.998 -11.725   6.360  1.00  0.00     0.036 A 
HETATM    6  C   UNL     1      43.242 -11.097   7.359  1.00  0.00     0.046 A 
HETATM    7  C   UNL     1      43.894 -10.322   8.345  1.00  0.00     0.030 A 
HETATM    8  C   UNL     1      45.278 -10.221   8.312  1.00  0.00     0.063 A 
HETATM    9  C   UNL     1      43.491  -9.528   9.462  1.00  0.00     0.156 A 
HETATM   10  N   UNL     1      45.610  -9.430   9.376  1.00  0.00    -0.277 N 
HETATM   11  C   UNL     1      46.064 -10.842   7.340  1.00  0.00     0.034 A 
HETATM   12  H   UNL     1      46.539  -9.146   9.664  1.00  0.00     0.189 HD
HETATM   13  N   UNL     1      44.561  -8.987  10.088  1.00  0.00    -0.168 NA
HETATM   14  C   UNL     1      45.393 -11.588   6.361  1.00  0.00     0.032 A 
BRANCH   9  15
HETATM   15  C   UNL     1      42.123  -9.267   9.930  1.00  0.00     0.270 C 
HETATM   16  N   UNL     1      41.713 -10.088  10.946  1.00  0.00    -0.365 N 
HETATM   17  H   UNL     1      42.361 -10.782  11.301  1.00  0.00     0.159 HD
HETATM   18  H   UNL     1      40.798  -9.965  11.348  1.00  0.00     0.159 HD
HETATM   19  O   UNL     1      41.386  -8.395   9.484  1.00  0.00    -0.266 OA
ENDBRANCH   9  15
ENDBRANCH   2   5
BRANCH   1  20
HETATM   20  C   UNL     1      42.827 -13.263   3.143  1.00  0.00     0.074 A 
HETATM   21  C   UNL     1      41.970 -12.967   2.090  1.00  0.00     0.066 A 
HETATM   22  C   UNL     1      41.474 -11.696   1.515  1.00  0.00     0.078 C 
HETATM   23  O   UNL     1      41.539 -14.103   1.482  1.00  0.00    -0.314 OA
HETATM   24  C   UNL     1      42.083 -15.148   2.153  1.00  0.00     0.087 A 
HETATM   25  C   UNL     1      42.874 -14.700   3.204  1.00  0.00     0.019 A 
HETATM   26  C   UNL     1      41.869 -16.488   1.841  1.00  0.00     0.041 A 
HETATM   27  C   UNL     1      43.476 -15.675   4.036  1.00  0.00     0.052 A 
HETATM   28  C   UNL     1      43.295 -17.037   3.744  1.00  0.00     0.069 A 
HETATM   29  C   UNL     1      42.500 -17.426   2.660  1.00  0.00     0.039 A 
BRANCH  28  30
HETATM   30  O   UNL     1      43.832 -18.081   4.448  1.00  0.00    -0.356 OA
HETATM   31  C   UNL     1      43.517 -18.163   5.832  1.00  0.00     0.210 C 
ENDBRANCH  28  30
ENDBRANCH   1  20
TORSDOF 4
ENDMDL
