MODEL 1
REMARK VINA RESULT:      -9.1      0.000      0.000
REMARK  7 active torsions:
REMARK  status: ('A' for Active; 'I' for Inactive)
REMARK    1  A    between atoms: O_2  and  C_3 
REMARK    2  A    between atoms: C_5  and  C_6 
REMARK       I    between atoms: C_6  and  N_7 
REMARK    3  A    between atoms: N_7  and  C_8 
REMARK    4  A    between atoms: C_8  and  N_9 
REMARK    5  A    between atoms: N_9  and  C_10 
REMARK    6  A    between atoms: C_13  and  N_14 
REMARK       I    between atoms: N_17  and  C_18 
REMARK    7  A    between atoms: C_18  and  C_19 
ROOT
HETATM    1  C   UNL     1      40.066 -10.151   6.746  1.00  0.00     0.034 A 
HETATM    2  C   UNL     1      41.113 -10.003   5.840  1.00  0.00     0.032 A 
HETATM    3  C   UNL     1      41.489 -11.058   4.994  1.00  0.00     0.031 A 
HETATM    4  C   UNL     1      40.848 -12.307   5.030  1.00  0.00     0.030 A 
HETATM    5  C   UNL     1      39.791 -12.425   5.950  1.00  0.00     0.031 A 
HETATM    6  C   UNL     1      39.392 -11.366   6.785  1.00  0.00     0.032 A 
ENDROOT
BRANCH   1   7
HETATM    7  N   UNL     1      39.842  -9.095   7.660  1.00  0.00    -0.333 N 
HETATM    8  H   UNL     1      39.735  -8.189   7.218  1.00  0.00     0.168 HD
BRANCH   7   9
HETATM    9  C   UNL     1      40.190  -9.035   8.967  1.00  0.00     0.179 C 
HETATM   10  S   UNL     1      39.155  -8.305  10.061  1.00  0.00    -0.040 SA
BRANCH   9  11
HETATM   11  N   UNL     1      41.326  -9.619   9.439  1.00  0.00    -0.299 N 
HETATM   12  C   UNL     1      42.502  -8.891   9.575  1.00  0.00     0.257 C 
HETATM   13  O   UNL     1      42.621  -7.895  10.280  1.00  0.00    -0.267 OA
HETATM   14  H   UNL     1      41.437 -10.521   9.003  1.00  0.00     0.171 HD
BRANCH  12  15
HETATM   15  C   UNL     1      43.721  -9.428   8.877  1.00  0.00     0.035 A 
HETATM   16  C   UNL     1      43.747 -10.651   8.190  1.00  0.00     0.053 A 
HETATM   17  C   UNL     1      44.907 -11.083   7.532  1.00  0.00     0.069 A 
HETATM   18  C   UNL     1      46.045 -10.279   7.537  1.00  0.00     0.037 A 
HETATM   19  C   UNL     1      46.026  -9.051   8.201  1.00  0.00     0.004 A 
HETATM   20  C   UNL     1      44.874  -8.630   8.867  1.00  0.00     0.017 A 
BRANCH  17  21
HETATM   21  O   UNL     1      44.787 -12.302   6.921  1.00  0.00    -0.356 OA
HETATM   22  C   UNL     1      43.626 -13.066   7.223  1.00  0.00     0.210 C 
ENDBRANCH  17  21
ENDBRANCH  12  15
ENDBRANCH   9  11
ENDBRANCH   7   9
ENDBRANCH   1   7
BRANCH   4  23
HETATM   23  N   UNL     1      41.273 -13.409   4.267  1.00  0.00    -0.378 N 
HETATM   24  C   UNL     1      41.391 -14.724   4.940  1.00  0.00     0.143 C 
HETATM   25  C   UNL     1      41.555 -15.870   3.925  1.00  0.00     0.146 C 
HETATM   26  N   UNL     1      42.623 -15.617   2.950  1.00  0.00    -0.345 N 
HETATM   27  C   UNL     1      43.210 -16.644   2.209  1.00  0.00     0.253 C 
HETATM   28  C   UNL     1      42.520 -14.309   2.301  1.00  0.00     0.146 C 
HETATM   29  O   UNL     1      43.606 -16.502   1.054  1.00  0.00    -0.267 OA
HETATM   30  C   UNL     1      42.381 -13.154   3.310  1.00  0.00     0.143 C 
BRANCH  27  31
HETATM   31  C   UNL     1      43.416 -17.964   2.852  1.00  0.00     0.032 A 
HETATM   32  C   UNL     1      43.148 -19.126   2.120  1.00  0.00     0.017 A 
HETATM   33  C   UNL     1      43.384 -20.376   2.693  1.00  0.00     0.001 A 
HETATM   34  C   UNL     1      43.900 -20.465   3.987  1.00  0.00     0.000 A 
HETATM   35  C   UNL     1      44.190 -19.306   4.709  1.00  0.00     0.001 A 
HETATM   36  C   UNL     1      43.957 -18.053   4.140  1.00  0.00     0.017 A 
ENDBRANCH  27  31
ENDBRANCH   4  23
TORSDOF 7
ENDMDL
MODEL 2
REMARK VINA RESULT:      -8.9      1.322      1.800
REMARK  7 active torsions:
REMARK  status: ('A' for Active; 'I' for Inactive)
REMARK    1  A    between atoms: O_2  and  C_3 
REMARK    2  A    between atoms: C_5  and  C_6 
REMARK       I    between atoms: C_6  and  N_7 
REMARK    3  A    between atoms: N_7  and  C_8 
REMARK    4  A    between atoms: C_8  and  N_9 
REMARK    5  A    between atoms: N_9  and  C_10 
REMARK    6  A    between atoms: C_13  and  N_14 
REMARK       I    between atoms: N_17  and  C_18 
REMARK    7  A    between atoms: C_18  and  C_19 
ROOT
HETATM    1  C   UNL     1      39.996 -10.118   6.947  1.00  0.00     0.034 A 
HETATM    2  C   UNL     1      39.128 -11.180   6.703  1.00  0.00     0.032 A 
HETATM    3  C   UNL     1      39.548 -12.300   5.969  1.00  0.00     0.031 A 
HETATM    4  C   UNL     1      40.842 -12.399   5.435  1.00  0.00     0.030 A 
HETATM    5  C   UNL     1      41.699 -11.315   5.703  1.00  0.00     0.031 A 
HETATM    6  C   UNL     1      41.294 -10.200   6.457  1.00  0.00     0.032 A 
ENDROOT
BRANCH   1   7
HETATM    7  N   UNL     1      39.457  -8.967   7.568  1.00  0.00    -0.333 N 
HETATM    8  H   UNL     1      38.444  -8.958   7.601  1.00  0.00     0.168 HD
BRANCH   7   9
HETATM    9  C   UNL     1      40.025  -7.746   7.697  1.00  0.00     0.179 C 
HETATM   10  S   UNL     1      39.494  -6.486   6.733  1.00  0.00    -0.040 SA
BRANCH   9  11
HETATM   11  N   UNL     1      40.969  -7.485   8.644  1.00  0.00    -0.299 N 
HETATM   12  C   UNL     1      42.320  -7.466   8.321  1.00  0.00     0.257 C 
HETATM   13  O   UNL     1      42.823  -6.715   7.492  1.00  0.00    -0.267 OA
HETATM   14  H   UNL     1      40.743  -7.997   9.482  1.00  0.00     0.171 HD
BRANCH  12  15
HETATM   15  C   UNL     1      43.224  -8.369   9.114  1.00  0.00     0.035 A 
HETATM   16  C   UNL     1      44.105  -9.293   8.532  1.00  0.00     0.053 A 
HETATM   17  C   UNL     1      44.945 -10.086   9.324  1.00  0.00     0.069 A 
HETATM   18  C   UNL     1      44.926  -9.942  10.710  1.00  0.00     0.037 A 
HETATM   19  C   UNL     1      44.068  -9.013  11.301  1.00  0.00     0.004 A 
HETATM   20  C   UNL     1      43.222  -8.235  10.510  1.00  0.00     0.017 A 
BRANCH  17  21
HETATM   21  O   UNL     1      45.735 -10.951   8.618  1.00  0.00    -0.356 OA
HETATM   22  C   UNL     1      45.433 -11.125   7.238  1.00  0.00     0.210 C 
ENDBRANCH  17  21
ENDBRANCH  12  15
ENDBRANCH   9  11
ENDBRANCH   7   9
ENDBRANCH   1   7
BRANCH   4  23
HETATM   23  N   UNL     1      41.253 -13.461   4.611  1.00  0.00    -0.378 N 
HETATM   24  C   UNL     1      41.415 -14.802   5.221  1.00  0.00     0.143 C 
HETATM   25  C   UNL     1      41.557 -15.901   4.152  1.00  0.00     0.146 C 
HETATM   26  N   UNL     1      42.583 -15.590   3.149  1.00  0.00    -0.345 N 
HETATM   27  C   UNL     1      43.155 -16.575   2.344  1.00  0.00     0.253 C 
HETATM   28  C   UNL     1      42.437 -14.257   2.562  1.00  0.00     0.146 C 
HETATM   29  O   UNL     1      43.505 -16.378   1.181  1.00  0.00    -0.267 OA
HETATM   30  C   UNL     1      42.320 -13.149   3.624  1.00  0.00     0.143 C 
BRANCH  27  31
HETATM   31  C   UNL     1      43.404 -17.918   2.921  1.00  0.00     0.032 A 
HETATM   32  C   UNL     1      43.131 -19.051   2.148  1.00  0.00     0.017 A 
HETATM   33  C   UNL     1      43.407 -20.321   2.658  1.00  0.00     0.001 A 
HETATM   34  C   UNL     1      43.967 -20.456   3.929  1.00  0.00     0.000 A 
HETATM   35  C   UNL     1      44.262 -19.325   4.691  1.00  0.00     0.001 A 
HETATM   36  C   UNL     1      43.990 -18.052   4.185  1.00  0.00     0.017 A 
ENDBRANCH  27  31
ENDBRANCH   4  23
TORSDOF 7
ENDMDL
MODEL 3
REMARK VINA RESULT:      -8.9      2.980      9.544
REMARK  7 active torsions:
REMARK  status: ('A' for Active; 'I' for Inactive)
REMARK    1  A    between atoms: O_2  and  C_3 
REMARK    2  A    between atoms: C_5  and  C_6 
REMARK       I    between atoms: C_6  and  N_7 
REMARK    3  A    between atoms: N_7  and  C_8 
REMARK    4  A    between atoms: C_8  and  N_9 
REMARK    5  A    between atoms: N_9  and  C_10 
REMARK    6  A    between atoms: C_13  and  N_14 
REMARK       I    between atoms: N_17  and  C_18 
REMARK    7  A    between atoms: C_18  and  C_19 
ROOT
HETATM    1  C   UNL     1      41.825 -12.748   2.274  1.00  0.00     0.034 A 
HETATM    2  C   UNL     1      43.138 -12.822   2.734  1.00  0.00     0.032 A 
HETATM    3  C   UNL     1      43.476 -12.383   4.023  1.00  0.00     0.031 A 
HETATM    4  C   UNL     1      42.525 -11.837   4.899  1.00  0.00     0.030 A 
HETATM    5  C   UNL     1      41.207 -11.780   4.411  1.00  0.00     0.031 A 
HETATM    6  C   UNL     1      40.853 -12.240   3.130  1.00  0.00     0.032 A 
ENDROOT
BRANCH   1   7
HETATM    7  N   UNL     1      41.590 -13.074   0.919  1.00  0.00    -0.333 N 
HETATM    8  H   UNL     1      41.709 -12.292   0.285  1.00  0.00     0.168 HD
BRANCH   7   9
HETATM    9  C   UNL     1      40.832 -14.079   0.422  1.00  0.00     0.179 C 
HETATM   10  S   UNL     1      39.677 -13.739  -0.741  1.00  0.00    -0.040 SA
BRANCH   9  11
HETATM   11  N   UNL     1      41.028 -15.378   0.782  1.00  0.00    -0.299 N 
HETATM   12  C   UNL     1      40.627 -15.843   2.028  1.00  0.00     0.257 C 
HETATM   13  O   UNL     1      39.471 -15.817   2.437  1.00  0.00    -0.267 OA
HETATM   14  H   UNL     1      41.956 -15.658   0.506  1.00  0.00     0.171 HD
BRANCH  12  15
HETATM   15  C   UNL     1      41.676 -16.502   2.880  1.00  0.00     0.035 A 
HETATM   16  C   UNL     1      42.514 -17.530   2.423  1.00  0.00     0.053 A 
HETATM   17  C   UNL     1      43.496 -18.085   3.256  1.00  0.00     0.069 A 
HETATM   18  C   UNL     1      43.660 -17.594   4.550  1.00  0.00     0.037 A 
HETATM   19  C   UNL     1      42.845 -16.559   5.011  1.00  0.00     0.004 A 
HETATM   20  C   UNL     1      41.860 -16.019   4.184  1.00  0.00     0.017 A 
BRANCH  17  21
HETATM   21  O   UNL     1      44.224 -19.089   2.679  1.00  0.00    -0.356 OA
HETATM   22  C   UNL     1      43.506 -20.228   2.220  1.00  0.00     0.210 C 
ENDBRANCH  17  21
ENDBRANCH  12  15
ENDBRANCH   9  11
ENDBRANCH   7   9
ENDBRANCH   1   7
BRANCH   4  23
HETATM   23  N   UNL     1      42.858 -11.296   6.153  1.00  0.00    -0.378 N 
HETATM   24  C   UNL     1      42.064 -10.151   6.657  1.00  0.00     0.143 C 
HETATM   25  C   UNL     1      42.335  -9.882   8.149  1.00  0.00     0.146 C 
HETATM   26  N   UNL     1      43.768  -9.778   8.456  1.00  0.00    -0.345 N 
HETATM   27  C   UNL     1      44.234  -9.161   9.617  1.00  0.00     0.253 C 
HETATM   28  C   UNL     1      44.556 -10.898   7.939  1.00  0.00     0.146 C 
HETATM   29  O   UNL     1      45.239  -9.531  10.222  1.00  0.00    -0.267 OA
HETATM   30  C   UNL     1      44.309 -11.158   6.442  1.00  0.00     0.143 C 
BRANCH  27  31
HETATM   31  C   UNL     1      43.519  -7.968  10.132  1.00  0.00     0.032 A 
HETATM   32  C   UNL     1      42.977  -8.003  11.420  1.00  0.00     0.017 A 
HETATM   33  C   UNL     1      42.346  -6.872  11.939  1.00  0.00     0.001 A 
HETATM   34  C   UNL     1      42.269  -5.705  11.177  1.00  0.00     0.000 A 
HETATM   35  C   UNL     1      42.830  -5.661   9.900  1.00  0.00     0.001 A 
HETATM   36  C   UNL     1      43.465  -6.790   9.378  1.00  0.00     0.017 A 
ENDBRANCH  27  31
ENDBRANCH   4  23
TORSDOF 7
ENDMDL
MODEL 4
REMARK VINA RESULT:      -8.6      3.042      9.336
REMARK  7 active torsions:
REMARK  status: ('A' for Active; 'I' for Inactive)
REMARK    1  A    between atoms: O_2  and  C_3 
REMARK    2  A    between atoms: C_5  and  C_6 
REMARK       I    between atoms: C_6  and  N_7 
REMARK    3  A    between atoms: N_7  and  C_8 
REMARK    4  A    between atoms: C_8  and  N_9 
REMARK    5  A    between atoms: N_9  and  C_10 
REMARK    6  A    between atoms: C_13  and  N_14 
REMARK       I    between atoms: N_17  and  C_18 
REMARK    7  A    between atoms: C_18  and  C_19 
ROOT
HETATM    1  C   UNL     1      41.860 -12.729   2.269  1.00  0.00     0.034 A 
HETATM    2  C   UNL     1      43.194 -12.735   2.670  1.00  0.00     0.032 A 
HETATM    3  C   UNL     1      43.561 -12.312   3.957  1.00  0.00     0.031 A 
HETATM    4  C   UNL     1      42.618 -11.850   4.888  1.00  0.00     0.030 A 
HETATM    5  C   UNL     1      41.278 -11.862   4.458  1.00  0.00     0.031 A 
HETATM    6  C   UNL     1      40.898 -12.306   3.179  1.00  0.00     0.032 A 
ENDROOT
BRANCH   1   7
HETATM    7  N   UNL     1      41.587 -13.032   0.915  1.00  0.00    -0.333 N 
HETATM    8  H   UNL     1      41.630 -12.227   0.301  1.00  0.00     0.168 HD
BRANCH   7   9
HETATM    9  C   UNL     1      40.870 -14.068   0.420  1.00  0.00     0.179 C 
HETATM   10  S   UNL     1      39.709 -13.779  -0.750  1.00  0.00    -0.040 SA
BRANCH   9  11
HETATM   11  N   UNL     1      41.114 -15.356   0.789  1.00  0.00    -0.299 N 
HETATM   12  C   UNL     1      40.724 -15.830   2.035  1.00  0.00     0.257 C 
HETATM   13  O   UNL     1      39.566 -15.845   2.438  1.00  0.00    -0.267 OA
HETATM   14  H   UNL     1      42.053 -15.602   0.519  1.00  0.00     0.171 HD
BRANCH  12  15
HETATM   15  C   UNL     1      41.794 -16.443   2.896  1.00  0.00     0.035 A 
HETATM   16  C   UNL     1      41.976 -16.127   4.251  1.00  0.00     0.053 A 
HETATM   17  C   UNL     1      42.972 -16.756   5.011  1.00  0.00     0.069 A 
HETATM   18  C   UNL     1      43.780 -17.727   4.422  1.00  0.00     0.037 A 
HETATM   19  C   UNL     1      43.596 -18.064   3.080  1.00  0.00     0.004 A 
HETATM   20  C   UNL     1      42.613 -17.426   2.323  1.00  0.00     0.017 A 
BRANCH  17  21
HETATM   21  O   UNL     1      43.041 -16.334   6.310  1.00  0.00    -0.356 OA
HETATM   22  C   UNL     1      43.613 -15.052   6.545  1.00  0.00     0.210 C 
ENDBRANCH  17  21
ENDBRANCH  12  15
ENDBRANCH   9  11
ENDBRANCH   7   9
ENDBRANCH   1   7
BRANCH   4  23
HETATM   23  N   UNL     1      42.972 -11.325   6.143  1.00  0.00    -0.378 N 
HETATM   24  C   UNL     1      42.183 -10.190   6.677  1.00  0.00     0.143 C 
HETATM   25  C   UNL     1      42.481  -9.940   8.167  1.00  0.00     0.146 C 
HETATM   26  N   UNL     1      43.918  -9.834   8.449  1.00  0.00    -0.345 N 
HETATM   27  C   UNL     1      44.404  -9.230   9.609  1.00  0.00     0.253 C 
HETATM   28  C   UNL     1      44.701 -10.943   7.902  1.00  0.00     0.146 C 
HETATM   29  O   UNL     1      45.421  -9.605  10.190  1.00  0.00    -0.267 OA
HETATM   30  C   UNL     1      44.428 -11.184   6.406  1.00  0.00     0.143 C 
BRANCH  27  31
HETATM   31  C   UNL     1      43.694  -8.048  10.154  1.00  0.00     0.032 A 
HETATM   32  C   UNL     1      43.522  -6.924   9.339  1.00  0.00     0.017 A 
HETATM   33  C   UNL     1      42.813  -5.821   9.819  1.00  0.00     0.001 A 
HETATM   34  C   UNL     1      42.265  -5.849  11.102  1.00  0.00     0.000 A 
HETATM   35  C   UNL     1      42.416  -6.979  11.907  1.00  0.00     0.001 A 
HETATM   36  C   UNL     1      43.123  -8.085  11.431  1.00  0.00     0.017 A 
ENDBRANCH  27  31
ENDBRANCH   4  23
TORSDOF 7
ENDMDL
MODEL 5
REMARK VINA RESULT:      -8.5      3.060      9.294
REMARK  7 active torsions:
REMARK  status: ('A' for Active; 'I' for Inactive)
REMARK    1  A    between atoms: O_2  and  C_3 
REMARK    2  A    between atoms: C_5  and  C_6 
REMARK       I    between atoms: C_6  and  N_7 
REMARK    3  A    between atoms: N_7  and  C_8 
REMARK    4  A    between atoms: C_8  and  N_9 
REMARK    5  A    between atoms: N_9  and  C_10 
REMARK    6  A    between atoms: C_13  and  N_14 
REMARK       I    between atoms: N_17  and  C_18 
REMARK    7  A    between atoms: C_18  and  C_19 
ROOT
HETATM    1  C   UNL     1      42.245 -12.719   1.997  1.00  0.00     0.034 A 
HETATM    2  C   UNL     1      41.273 -11.734   2.150  1.00  0.00     0.032 A 
HETATM    3  C   UNL     1      41.320 -10.835   3.228  1.00  0.00     0.031 A 
HETATM    4  C   UNL     1      42.327 -10.894   4.204  1.00  0.00     0.030 A 
HETATM    5  C   UNL     1      43.298 -11.894   4.020  1.00  0.00     0.031 A 
HETATM    6  C   UNL     1      43.273 -12.784   2.932  1.00  0.00     0.032 A 
ENDROOT
BRANCH   1   7
HETATM    7  N   UNL     1      42.050 -13.673   0.971  1.00  0.00    -0.333 N 
HETATM    8  H   UNL     1      42.512 -13.436   0.101  1.00  0.00     0.168 HD
BRANCH   7   9
HETATM    9  C   UNL     1      41.032 -14.554   0.835  1.00  0.00     0.179 C 
HETATM   10  S   UNL     1      39.851 -14.275  -0.317  1.00  0.00    -0.040 SA
BRANCH   9  11
HETATM   11  N   UNL     1      40.975 -15.709   1.556  1.00  0.00    -0.299 N 
HETATM   12  C   UNL     1      41.195 -15.707   2.928  1.00  0.00     0.257 C 
HETATM   13  O   UNL     1      40.525 -15.070   3.735  1.00  0.00    -0.267 OA
HETATM   14  H   UNL     1      41.460 -16.434   1.053  1.00  0.00     0.171 HD
BRANCH  12  15
HETATM   15  C   UNL     1      42.269 -16.621   3.448  1.00  0.00     0.035 A 
HETATM   16  C   UNL     1      42.687 -17.784   2.785  1.00  0.00     0.053 A 
HETATM   17  C   UNL     1      43.716 -18.581   3.305  1.00  0.00     0.069 A 
HETATM   18  C   UNL     1      44.353 -18.202   4.485  1.00  0.00     0.037 A 
HETATM   19  C   UNL     1      43.961 -17.036   5.144  1.00  0.00     0.004 A 
HETATM   20  C   UNL     1      42.926 -16.253   4.631  1.00  0.00     0.017 A 
BRANCH  17  21
HETATM   21  O   UNL     1      44.002 -19.691   2.559  1.00  0.00    -0.356 OA
HETATM   22  C   UNL     1      43.916 -20.951   3.214  1.00  0.00     0.210 C 
ENDBRANCH  17  21
ENDBRANCH  12  15
ENDBRANCH   9  11
ENDBRANCH   7   9
ENDBRANCH   1   7
BRANCH   4  23
HETATM   23  N   UNL     1      42.337 -10.074   5.345  1.00  0.00    -0.378 N 
HETATM   24  C   UNL     1      42.746 -10.673   6.637  1.00  0.00     0.143 C 
HETATM   25  C   UNL     1      43.008  -9.597   7.707  1.00  0.00     0.146 C 
HETATM   26  N   UNL     1      41.901  -8.641   7.834  1.00  0.00    -0.345 N 
HETATM   27  C   UNL     1      41.733  -7.847   8.969  1.00  0.00     0.253 C 
HETATM   28  C   UNL     1      41.482  -8.065   6.555  1.00  0.00     0.146 C 
HETATM   29  O   UNL     1      41.286  -6.702   8.932  1.00  0.00    -0.267 OA
HETATM   30  C   UNL     1      41.193  -9.135   5.487  1.00  0.00     0.143 C 
BRANCH  27  31
HETATM   31  C   UNL     1      42.062  -8.417  10.298  1.00  0.00     0.032 A 
HETATM   32  C   UNL     1      43.162  -7.914  11.000  1.00  0.00     0.017 A 
HETATM   33  C   UNL     1      43.455  -8.404  12.274  1.00  0.00     0.001 A 
HETATM   34  C   UNL     1      42.643  -9.383  12.848  1.00  0.00     0.000 A 
HETATM   35  C   UNL     1      41.532  -9.869  12.158  1.00  0.00     0.001 A 
HETATM   36  C   UNL     1      41.233  -9.380  10.884  1.00  0.00     0.017 A 
ENDBRANCH  27  31
ENDBRANCH   4  23
TORSDOF 7
ENDMDL
MODEL 6
REMARK VINA RESULT:      -8.3      4.239      7.615
REMARK  7 active torsions:
REMARK  status: ('A' for Active; 'I' for Inactive)
REMARK    1  A    between atoms: O_2  and  C_3 
REMARK    2  A    between atoms: C_5  and  C_6 
REMARK       I    between atoms: C_6  and  N_7 
REMARK    3  A    between atoms: N_7  and  C_8 
REMARK    4  A    between atoms: C_8  and  N_9 
REMARK    5  A    between atoms: N_9  and  C_10 
REMARK    6  A    between atoms: C_13  and  N_14 
REMARK       I    between atoms: N_17  and  C_18 
REMARK    7  A    between atoms: C_18  and  C_19 
ROOT
HETATM    1  C   UNL     1      41.970  -7.946  14.646  1.00  0.00     0.034 A 
HETATM    2  C   UNL     1      41.467  -9.085  14.022  1.00  0.00     0.032 A 
HETATM    3  C   UNL     1      42.021  -9.551  12.820  1.00  0.00     0.031 A 
HETATM    4  C   UNL     1      43.085  -8.893  12.184  1.00  0.00     0.030 A 
HETATM    5  C   UNL     1      43.576  -7.750  12.840  1.00  0.00     0.031 A 
HETATM    6  C   UNL     1      43.043  -7.288  14.057  1.00  0.00     0.032 A 
ENDROOT
BRANCH   1   7
HETATM    7  N   UNL     1      41.268  -7.458  15.773  1.00  0.00    -0.333 N 
HETATM    8  H   UNL     1      41.159  -8.143  16.513  1.00  0.00     0.168 HD
BRANCH   7   9
HETATM    9  C   UNL     1      40.376  -6.441  15.825  1.00  0.00     0.179 C 
HETATM   10  S   UNL     1      39.825  -5.907  17.313  1.00  0.00    -0.040 SA
BRANCH   9  11
HETATM   11  N   UNL     1      39.967  -5.782  14.706  1.00  0.00    -0.299 N 
HETATM   12  C   UNL     1      38.967  -6.303  13.894  1.00  0.00     0.257 C 
HETATM   13  O   UNL     1      37.825  -6.545  14.272  1.00  0.00    -0.267 OA
HETATM   14  H   UNL     1      40.776  -5.441  14.212  1.00  0.00     0.171 HD
BRANCH  12  15
HETATM   15  C   UNL     1      39.298  -6.492  12.440  1.00  0.00     0.035 A 
HETATM   16  C   UNL     1      38.688  -7.455  11.623  1.00  0.00     0.053 A 
HETATM   17  C   UNL     1      39.017  -7.562  10.265  1.00  0.00     0.069 A 
HETATM   18  C   UNL     1      39.946  -6.685   9.709  1.00  0.00     0.037 A 
HETATM   19  C   UNL     1      40.546  -5.710  10.506  1.00  0.00     0.004 A 
HETATM   20  C   UNL     1      40.227  -5.615  11.861  1.00  0.00     0.017 A 
BRANCH  17  21
HETATM   21  O   UNL     1      38.354  -8.558   9.601  1.00  0.00    -0.356 OA
HETATM   22  C   UNL     1      39.005  -9.820   9.510  1.00  0.00     0.210 C 
ENDBRANCH  17  21
ENDBRANCH  12  15
ENDBRANCH   9  11
ENDBRANCH   7   9
ENDBRANCH   1   7
BRANCH   4  23
HETATM   23  N   UNL     1      43.588  -9.281  10.929  1.00  0.00    -0.378 N 
HETATM   24  C   UNL     1      42.680  -9.991   9.998  1.00  0.00     0.143 C 
HETATM   25  C   UNL     1      43.266 -10.065   8.576  1.00  0.00     0.146 C 
HETATM   26  N   UNL     1      44.641 -10.579   8.555  1.00  0.00    -0.345 N 
HETATM   27  C   UNL     1      45.220 -11.099   7.396  1.00  0.00     0.253 C 
HETATM   28  C   UNL     1      45.533  -9.893   9.490  1.00  0.00     0.146 C 
HETATM   29  O   UNL     1      46.414 -10.979   7.126  1.00  0.00    -0.267 OA
HETATM   30  C   UNL     1      44.966  -9.837  10.920  1.00  0.00     0.143 C 
BRANCH  27  31
HETATM   31  C   UNL     1      44.375 -11.877   6.459  1.00  0.00     0.032 A 
HETATM   32  C   UNL     1      43.908 -13.135   6.850  1.00  0.00     0.017 A 
HETATM   33  C   UNL     1      43.070 -13.860   6.000  1.00  0.00     0.001 A 
HETATM   34  C   UNL     1      42.690 -13.321   4.770  1.00  0.00     0.000 A 
HETATM   35  C   UNL     1      43.137 -12.055   4.389  1.00  0.00     0.001 A 
HETATM   36  C   UNL     1      43.974 -11.326   5.236  1.00  0.00     0.017 A 
ENDBRANCH  27  31
ENDBRANCH   4  23
TORSDOF 7
ENDMDL
MODEL 7
REMARK VINA RESULT:      -8.2      3.227      9.344
REMARK  7 active torsions:
REMARK  status: ('A' for Active; 'I' for Inactive)
REMARK    1  A    between atoms: O_2  and  C_3 
REMARK    2  A    between atoms: C_5  and  C_6 
REMARK       I    between atoms: C_6  and  N_7 
REMARK    3  A    between atoms: N_7  and  C_8 
REMARK    4  A    between atoms: C_8  and  N_9 
REMARK    5  A    between atoms: N_9  and  C_10 
REMARK    6  A    between atoms: C_13  and  N_14 
REMARK       I    between atoms: N_17  and  C_18 
REMARK    7  A    between atoms: C_18  and  C_19 
ROOT
HETATM    1  C   UNL     1      41.488 -12.087   1.994  1.00  0.00     0.034 A 
HETATM    2  C   UNL     1      40.248 -12.215   2.615  1.00  0.00     0.032 A 
HETATM    3  C   UNL     1      39.982 -11.571   3.834  1.00  0.00     0.031 A 
HETATM    4  C   UNL     1      40.945 -10.789   4.490  1.00  0.00     0.030 A 
HETATM    5  C   UNL     1      42.186 -10.672   3.837  1.00  0.00     0.031 A 
HETATM    6  C   UNL     1      42.454 -11.294   2.605  1.00  0.00     0.032 A 
ENDROOT
BRANCH   1   7
HETATM    7  N   UNL     1      41.727 -12.879   0.847  1.00  0.00    -0.333 N 
HETATM    8  H   UNL     1      42.326 -12.433   0.162  1.00  0.00     0.168 HD
BRANCH   7   9
HETATM    9  C   UNL     1      40.959 -13.874   0.347  1.00  0.00     0.179 C 
HETATM   10  S   UNL     1      39.746 -13.507  -0.746  1.00  0.00    -0.040 SA
BRANCH   9  11
HETATM   11  N   UNL     1      41.189 -15.183   0.645  1.00  0.00    -0.299 N 
HETATM   12  C   UNL     1      40.723 -15.740   1.829  1.00  0.00     0.257 C 
HETATM   13  O   UNL     1      39.540 -15.787   2.153  1.00  0.00    -0.267 OA
HETATM   14  H   UNL     1      42.146 -15.407   0.422  1.00  0.00     0.171 HD
BRANCH  12  15
HETATM   15  C   UNL     1      41.738 -16.405   2.717  1.00  0.00     0.035 A 
HETATM   16  C   UNL     1      41.798 -16.215   4.106  1.00  0.00     0.053 A 
HETATM   17  C   UNL     1      42.750 -16.887   4.885  1.00  0.00     0.069 A 
HETATM   18  C   UNL     1      43.635 -17.776   4.278  1.00  0.00     0.037 A 
HETATM   19  C   UNL     1      43.573 -17.988   2.900  1.00  0.00     0.004 A 
HETATM   20  C   UNL     1      42.634 -17.307   2.125  1.00  0.00     0.017 A 
BRANCH  17  21
HETATM   21  O   UNL     1      42.699 -16.589   6.219  1.00  0.00    -0.356 OA
HETATM   22  C   UNL     1      43.476 -17.399   7.094  1.00  0.00     0.210 C 
ENDBRANCH  17  21
ENDBRANCH  12  15
ENDBRANCH   9  11
ENDBRANCH   7   9
ENDBRANCH   1   7
BRANCH   4  23
HETATM   23  N   UNL     1      40.737 -10.220   5.759  1.00  0.00    -0.378 N 
HETATM   24  C   UNL     1      41.924  -9.845   6.563  1.00  0.00     0.143 C 
HETATM   25  C   UNL     1      41.541  -8.963   7.765  1.00  0.00     0.146 C 
HETATM   26  N   UNL     1      40.452  -9.534   8.566  1.00  0.00    -0.345 N 
HETATM   27  C   UNL     1      40.210  -9.136   9.882  1.00  0.00     0.253 C 
HETATM   28  C   UNL     1      39.288  -9.925   7.769  1.00  0.00     0.146 C 
HETATM   29  O   UNL     1      39.085  -9.075  10.373  1.00  0.00    -0.267 OA
HETATM   30  C   UNL     1      39.658 -10.829   6.580  1.00  0.00     0.143 C 
BRANCH  27  31
HETATM   31  C   UNL     1      41.364  -8.814  10.756  1.00  0.00     0.032 A 
HETATM   32  C   UNL     1      41.490  -7.517  11.264  1.00  0.00     0.017 A 
HETATM   33  C   UNL     1      42.542  -7.210  12.129  1.00  0.00     0.001 A 
HETATM   34  C   UNL     1      43.455  -8.200  12.495  1.00  0.00     0.000 A 
HETATM   35  C   UNL     1      43.316  -9.500  12.008  1.00  0.00     0.001 A 
HETATM   36  C   UNL     1      42.265  -9.812  11.144  1.00  0.00     0.017 A 
ENDBRANCH  27  31
ENDBRANCH   4  23
TORSDOF 7
ENDMDL
MODEL 8
REMARK VINA RESULT:      -8.1      5.535     12.009
REMARK  7 active torsions:
REMARK  status: ('A' for Active; 'I' for Inactive)
REMARK    1  A    between atoms: O_2  and  C_3 
REMARK    2  A    between atoms: C_5  and  C_6 
REMARK       I    between atoms: C_6  and  N_7 
REMARK    3  A    between atoms: N_7  and  C_8 
REMARK    4  A    between atoms: C_8  and  N_9 
REMARK    5  A    between atoms: N_9  and  C_10 
REMARK    6  A    between atoms: C_13  and  N_14 
REMARK       I    between atoms: N_17  and  C_18 
REMARK    7  A    between atoms: C_18  and  C_19 
ROOT
HETATM    1  C   UNL     1      43.305 -10.199   9.827  1.00  0.00     0.034 A 
HETATM    2  C   UNL     1      42.243  -9.326   9.603  1.00  0.00     0.032 A 
HETATM    3  C   UNL     1      41.733  -8.530  10.640  1.00  0.00     0.031 A 
HETATM    4  C   UNL     1      42.250  -8.583  11.944  1.00  0.00     0.030 A 
HETATM    5  C   UNL     1      43.326  -9.468  12.139  1.00  0.00     0.031 A 
HETATM    6  C   UNL     1      43.858 -10.253  11.101  1.00  0.00     0.032 A 
ENDROOT
BRANCH   1   7
HETATM    7  N   UNL     1      43.666 -11.069   8.772  1.00  0.00    -0.333 N 
HETATM    8  H   UNL     1      43.579 -12.052   9.007  1.00  0.00     0.168 HD
BRANCH   7   9
HETATM    9  C   UNL     1      44.494 -10.820   7.731  1.00  0.00     0.179 C 
HETATM   10  S   UNL     1      45.809  -9.808   7.951  1.00  0.00    -0.040 SA
BRANCH   9  11
HETATM   11  N   UNL     1      44.338 -11.428   6.523  1.00  0.00    -0.299 N 
HETATM   12  C   UNL     1      43.145 -12.056   6.186  1.00  0.00     0.257 C 
HETATM   13  O   UNL     1      42.056 -11.492   6.138  1.00  0.00    -0.267 OA
HETATM   14  H   UNL     1      45.168 -11.960   6.314  1.00  0.00     0.171 HD
BRANCH  12  15
HETATM   15  C   UNL     1      43.227 -13.498   5.769  1.00  0.00     0.035 A 
HETATM   16  C   UNL     1      42.838 -13.963   4.504  1.00  0.00     0.053 A 
HETATM   17  C   UNL     1      42.967 -15.317   4.163  1.00  0.00     0.069 A 
HETATM   18  C   UNL     1      43.511 -16.212   5.082  1.00  0.00     0.037 A 
HETATM   19  C   UNL     1      43.919 -15.758   6.338  1.00  0.00     0.004 A 
HETATM   20  C   UNL     1      43.776 -14.413   6.679  1.00  0.00     0.017 A 
BRANCH  17  21
HETATM   21  O   UNL     1      42.532 -15.625   2.903  1.00  0.00    -0.356 OA
HETATM   22  C   UNL     1      42.561 -16.996   2.525  1.00  0.00     0.210 C 
ENDBRANCH  17  21
ENDBRANCH  12  15
ENDBRANCH   9  11
ENDBRANCH   7   9
ENDBRANCH   1   7
BRANCH   4  23
HETATM   23  N   UNL     1      41.690  -7.873  13.020  1.00  0.00    -0.378 N 
HETATM   24  C   UNL     1      42.175  -8.174  14.388  1.00  0.00     0.143 C 
HETATM   25  C   UNL     1      41.708  -7.115  15.404  1.00  0.00     0.146 C 
HETATM   26  N   UNL     1      40.263  -6.866  15.340  1.00  0.00    -0.345 N 
HETATM   27  C   UNL     1      39.566  -6.270  16.392  1.00  0.00     0.253 C 
HETATM   28  C   UNL     1      39.779  -6.590  13.986  1.00  0.00     0.146 C 
HETATM   29  O   UNL     1      38.606  -5.519  16.227  1.00  0.00    -0.267 OA
HETATM   30  C   UNL     1      40.221  -7.658  12.969  1.00  0.00     0.143 C 
BRANCH  27  31
HETATM   31  C   UNL     1      39.963  -6.586  17.786  1.00  0.00     0.032 A 
HETATM   32  C   UNL     1      40.497  -5.573  18.588  1.00  0.00     0.017 A 
HETATM   33  C   UNL     1      40.829  -5.842  19.916  1.00  0.00     0.001 A 
HETATM   34  C   UNL     1      40.614  -7.116  20.445  1.00  0.00     0.000 A 
HETATM   35  C   UNL     1      40.058  -8.121  19.652  1.00  0.00     0.001 A 
HETATM   36  C   UNL     1      39.723  -7.856  18.323  1.00  0.00     0.017 A 
ENDBRANCH  27  31
ENDBRANCH   4  23
TORSDOF 7
ENDMDL
MODEL 9
REMARK VINA RESULT:      -8.0      6.891      9.659
REMARK  7 active torsions:
REMARK  status: ('A' for Active; 'I' for Inactive)
REMARK    1  A    between atoms: O_2  and  C_3 
REMARK    2  A    between atoms: C_5  and  C_6 
REMARK       I    between atoms: C_6  and  N_7 
REMARK    3  A    between atoms: N_7  and  C_8 
REMARK    4  A    between atoms: C_8  and  N_9 
REMARK    5  A    between atoms: N_9  and  C_10 
REMARK    6  A    between atoms: C_13  and  N_14 
REMARK       I    between atoms: N_17  and  C_18 
REMARK    7  A    between atoms: C_18  and  C_19 
ROOT
HETATM    1  C   UNL     1      41.762  -8.346  14.657  1.00  0.00     0.034 A 
HETATM    2  C   UNL     1      42.866  -7.650  14.168  1.00  0.00     0.032 A 
HETATM    3  C   UNL     1      43.394  -7.936  12.899  1.00  0.00     0.031 A 
HETATM    4  C   UNL     1      42.855  -8.937  12.076  1.00  0.00     0.030 A 
HETATM    5  C   UNL     1      41.738  -9.619  12.593  1.00  0.00     0.031 A 
HETATM    6  C   UNL     1      41.187  -9.323  13.852  1.00  0.00     0.032 A 
ENDROOT
BRANCH   1   7
HETATM    7  N   UNL     1      41.380  -8.101  15.996  1.00  0.00    -0.333 N 
HETATM    8  H   UNL     1      41.486  -8.905  16.604  1.00  0.00     0.168 HD
BRANCH   7   9
HETATM    9  C   UNL     1      40.516  -7.167  16.459  1.00  0.00     0.179 C 
HETATM   10  S   UNL     1      39.735  -6.160  15.374  1.00  0.00    -0.040 SA
BRANCH   9  11
HETATM   11  N   UNL     1      40.199  -7.069  17.780  1.00  0.00    -0.299 N 
HETATM   12  C   UNL     1      41.180  -6.835  18.736  1.00  0.00     0.257 C 
HETATM   13  O   UNL     1      41.910  -5.850  18.751  1.00  0.00    -0.267 OA
HETATM   14  H   UNL     1      39.546  -7.799  18.016  1.00  0.00     0.171 HD
BRANCH  12  15
HETATM   15  C   UNL     1      41.277  -7.819  19.868  1.00  0.00     0.035 A 
HETATM   16  C   UNL     1      42.437  -8.551  20.164  1.00  0.00     0.053 A 
HETATM   17  C   UNL     1      42.476  -9.432  21.254  1.00  0.00     0.069 A 
HETATM   18  C   UNL     1      41.356  -9.569  22.071  1.00  0.00     0.037 A 
HETATM   19  C   UNL     1      40.202  -8.832  21.799  1.00  0.00     0.004 A 
HETATM   20  C   UNL     1      40.162  -7.967  20.706  1.00  0.00     0.017 A 
BRANCH  17  21
HETATM   21  O   UNL     1      43.667 -10.087  21.407  1.00  0.00    -0.356 OA
HETATM   22  C   UNL     1      43.612 -11.436  21.856  1.00  0.00     0.210 C 
ENDBRANCH  17  21
ENDBRANCH  12  15
ENDBRANCH   9  11
ENDBRANCH   7   9
ENDBRANCH   1   7
BRANCH   4  23
HETATM   23  N   UNL     1      43.429  -9.312  10.848  1.00  0.00    -0.378 N 
HETATM   24  C   UNL     1      42.580 -10.023   9.864  1.00  0.00     0.143 C 
HETATM   25  C   UNL     1      43.243 -10.081   8.476  1.00  0.00     0.146 C 
HETATM   26  N   UNL     1      44.622 -10.584   8.526  1.00  0.00    -0.345 N 
HETATM   27  C   UNL     1      45.268 -11.090   7.398  1.00  0.00     0.253 C 
HETATM   28  C   UNL     1      45.456  -9.896   9.514  1.00  0.00     0.146 C 
HETATM   29  O   UNL     1      46.474 -10.958   7.194  1.00  0.00    -0.267 OA
HETATM   30  C   UNL     1      44.811  -9.856  10.911  1.00  0.00     0.143 C 
BRANCH  27  31
HETATM   31  C   UNL     1      44.483 -11.869   6.410  1.00  0.00     0.032 A 
HETATM   32  C   UNL     1      43.987 -13.125   6.775  1.00  0.00     0.017 A 
HETATM   33  C   UNL     1      43.203 -13.849   5.875  1.00  0.00     0.001 A 
HETATM   34  C   UNL     1      42.905 -13.313   4.621  1.00  0.00     0.000 A 
HETATM   35  C   UNL     1      43.380 -12.050   4.266  1.00  0.00     0.001 A 
HETATM   36  C   UNL     1      44.162 -11.321   5.163  1.00  0.00     0.017 A 
ENDBRANCH  27  31
ENDBRANCH   4  23
TORSDOF 7
ENDMDL
MODEL 10
REMARK VINA RESULT:      -8.0      2.657      4.187
REMARK  7 active torsions:
REMARK  status: ('A' for Active; 'I' for Inactive)
REMARK    1  A    between atoms: O_2  and  C_3 
REMARK    2  A    between atoms: C_5  and  C_6 
REMARK       I    between atoms: C_6  and  N_7 
REMARK    3  A    between atoms: N_7  and  C_8 
REMARK    4  A    between atoms: C_8  and  N_9 
REMARK    5  A    between atoms: N_9  and  C_10 
REMARK    6  A    between atoms: C_13  and  N_14 
REMARK       I    between atoms: N_17  and  C_18 
REMARK    7  A    between atoms: C_18  and  C_19 
ROOT
HETATM    1  C   UNL     1      41.377  -9.482   7.562  1.00  0.00     0.034 A 
HETATM    2  C   UNL     1      40.295 -10.131   6.971  1.00  0.00     0.032 A 
HETATM    3  C   UNL     1      40.488 -11.265   6.166  1.00  0.00     0.031 A 
HETATM    4  C   UNL     1      41.764 -11.786   5.904  1.00  0.00     0.030 A 
HETATM    5  C   UNL     1      42.837 -11.114   6.518  1.00  0.00     0.031 A 
HETATM    6  C   UNL     1      42.652  -9.991   7.345  1.00  0.00     0.032 A 
ENDROOT
BRANCH   1   7
HETATM    7  N   UNL     1      41.116  -8.267   8.238  1.00  0.00    -0.333 N 
HETATM    8  H   UNL     1      40.159  -8.176   8.558  1.00  0.00     0.168 HD
BRANCH   7   9
HETATM    9  C   UNL     1      41.775  -7.090   8.122  1.00  0.00     0.179 C 
HETATM   10  S   UNL     1      41.629  -6.201   6.711  1.00  0.00    -0.040 SA
BRANCH   9  11
HETATM   11  N   UNL     1      42.497  -6.563   9.150  1.00  0.00    -0.299 N 
HETATM   12  C   UNL     1      43.127  -7.385  10.077  1.00  0.00     0.257 C 
HETATM   13  O   UNL     1      43.980  -8.220   9.794  1.00  0.00    -0.267 OA
HETATM   14  H   UNL     1      41.985  -5.793   9.549  1.00  0.00     0.171 HD
BRANCH  12  15
HETATM   15  C   UNL     1      42.794  -7.158  11.526  1.00  0.00     0.035 A 
HETATM   16  C   UNL     1      41.959  -6.126  11.978  1.00  0.00     0.053 A 
HETATM   17  C   UNL     1      41.662  -5.984  13.341  1.00  0.00     0.069 A 
HETATM   18  C   UNL     1      42.182  -6.894  14.259  1.00  0.00     0.037 A 
HETATM   19  C   UNL     1      42.999  -7.937  13.820  1.00  0.00     0.004 A 
HETATM   20  C   UNL     1      43.304  -8.067  12.464  1.00  0.00     0.017 A 
BRANCH  17  21
HETATM   21  O   UNL     1      40.849  -4.923  13.633  1.00  0.00    -0.356 OA
HETATM   22  C   UNL     1      40.801  -4.499  14.990  1.00  0.00     0.210 C 
ENDBRANCH  17  21
ENDBRANCH  12  15
ENDBRANCH   9  11
ENDBRANCH   7   9
ENDBRANCH   1   7
BRANCH   4  23
HETATM   23  N   UNL     1      41.990 -12.855   5.020  1.00  0.00    -0.378 N 
HETATM   24  C   UNL     1      42.047 -14.227   5.577  1.00  0.00     0.143 C 
HETATM   25  C   UNL     1      41.983 -15.295   4.470  1.00  0.00     0.146 C 
HETATM   26  N   UNL     1      42.958 -15.061   3.398  1.00  0.00    -0.345 N 
HETATM   27  C   UNL     1      43.354 -16.072   2.521  1.00  0.00     0.253 C 
HETATM   28  C   UNL     1      42.917 -13.699   2.862  1.00  0.00     0.146 C 
HETATM   29  O   UNL     1      43.634 -15.872   1.341  1.00  0.00    -0.267 OA
HETATM   30  C   UNL     1      43.007 -12.625   3.961  1.00  0.00     0.143 C 
BRANCH  27  31
HETATM   31  C   UNL     1      43.495 -17.455   3.038  1.00  0.00     0.032 A 
HETATM   32  C   UNL     1      43.152 -18.529   2.211  1.00  0.00     0.017 A 
HETATM   33  C   UNL     1      43.326 -19.837   2.664  1.00  0.00     0.001 A 
HETATM   34  C   UNL     1      43.854 -20.071   3.935  1.00  0.00     0.000 A 
HETATM   35  C   UNL     1      44.219 -19.000   4.752  1.00  0.00     0.001 A 
HETATM   36  C   UNL     1      44.049 -17.689   4.303  1.00  0.00     0.017 A 
ENDBRANCH  27  31
ENDBRANCH   4  23
TORSDOF 7
ENDMDL
