MODEL 1
REMARK VINA RESULT:      -8.3      0.000      0.000
REMARK  7 active torsions:
REMARK  status: ('A' for Active; 'I' for Inactive)
REMARK    1  A    between atoms: O_2  and  C_3 
REMARK    2  A    between atoms: C_4  and  N_5 
REMARK       I    between atoms: N_5  and  C_6 
REMARK       I    between atoms: C_6  and  N_7 
REMARK    3  A    between atoms: N_7  and  C_8 
REMARK    4  A    between atoms: C_8  and  C_9 
REMARK    5  A    between atoms: C_9  and  C_10 
REMARK    6  A    between atoms: C_10  and  N_11 
REMARK    7  A    between atoms: C_12  and  C_13 
ROOT
HETATM    1  N   UNL     1      39.628 -13.726   0.514  1.00  0.00    -0.306 N 
HETATM    2  C   UNL     1      40.236 -14.803   1.123  1.00  0.00     0.320 C 
HETATM    3  N   UNL     1      39.489 -15.228   2.202  1.00  0.00    -0.343 N 
HETATM    4  O   UNL     1      41.317 -15.310   0.853  1.00  0.00    -0.247 OA
HETATM    5  H   UNL     1      39.140 -13.133   1.171  1.00  0.00     0.171 HD
HETATM    6  H   UNL     1      38.514 -14.962   2.230  1.00  0.00     0.164 HD
ENDROOT
BRANCH   3   7
HETATM    7  C   UNL     1      40.010 -16.126   3.204  1.00  0.00     0.126 C 
BRANCH   7   8
HETATM    8  C   UNL     1      40.806 -15.441   4.311  1.00  0.00     0.040 C 
BRANCH   8   9
HETATM    9  C   UNL     1      41.137 -16.359   5.487  1.00  0.00     0.131 C 
BRANCH   9  10
HETATM   10  N   UNL     1      42.578 -16.290   5.802  1.00  0.00    -0.341 N 
HETATM   11  C   UNL     1      43.585 -17.090   5.351  1.00  0.00     0.117 A 
HETATM   12  N   UNL     1      44.691 -16.597   5.953  1.00  0.00    -0.350 N 
HETATM   13  H   UNL     1      45.621 -16.973   5.808  1.00  0.00     0.166 HD
HETATM   14  C   UNL     1      44.422 -15.535   6.769  1.00  0.00     0.107 A 
HETATM   15  C   UNL     1      43.084 -15.334   6.684  1.00  0.00     0.109 A 
BRANCH  11  16
HETATM   16  C   UNL     1      43.618 -18.274   4.388  1.00  0.00     0.008 A 
HETATM   17  C   UNL     1      43.967 -19.569   4.775  1.00  0.00     0.015 A 
HETATM   18  C   UNL     1      43.977 -20.618   3.847  1.00  0.00     0.001 A 
HETATM   19  C   UNL     1      43.634 -20.387   2.519  1.00  0.00     0.000 A 
HETATM   20  C   UNL     1      43.281 -19.105   2.116  1.00  0.00     0.001 A 
HETATM   21  C   UNL     1      43.274 -18.055   3.041  1.00  0.00     0.015 A 
ENDBRANCH  11  16
ENDBRANCH   9  10
ENDBRANCH   8   9
ENDBRANCH   7   8
ENDBRANCH   3   7
BRANCH   1  22
HETATM   22  C   UNL     1      40.107 -13.079  -0.650  1.00  0.00     0.071 A 
HETATM   23  C   UNL     1      39.957 -13.589  -1.957  1.00  0.00     0.095 A 
HETATM   24  C   UNL     1      40.501 -12.871  -3.032  1.00  0.00     0.041 A 
HETATM   25  C   UNL     1      41.153 -11.652  -2.822  1.00  0.00     0.026 A 
HETATM   26  C   UNL     1      41.250 -11.133  -1.537  1.00  0.00     0.036 A 
HETATM   27  C   UNL     1      40.721 -11.832  -0.456  1.00  0.00     0.056 A 
HETATM   28 CL   UNL     1      42.031  -9.623  -1.278  1.00  0.00    -0.084 Cl
BRANCH  23  29
HETATM   29  O   UNL     1      39.201 -14.724  -2.105  1.00  0.00    -0.354 OA
HETATM   30  C   UNL     1      38.223 -14.728  -3.138  1.00  0.00     0.210 C 
ENDBRANCH  23  29
ENDBRANCH   1  22
TORSDOF 7
ENDMDL
MODEL 2
REMARK VINA RESULT:      -8.1      4.620      7.022
REMARK  7 active torsions:
REMARK  status: ('A' for Active; 'I' for Inactive)
REMARK    1  A    between atoms: O_2  and  C_3 
REMARK    2  A    between atoms: C_4  and  N_5 
REMARK       I    between atoms: N_5  and  C_6 
REMARK       I    between atoms: C_6  and  N_7 
REMARK    3  A    between atoms: N_7  and  C_8 
REMARK    4  A    between atoms: C_8  and  C_9 
REMARK    5  A    between atoms: C_9  and  C_10 
REMARK    6  A    between atoms: C_10  and  N_11 
REMARK    7  A    between atoms: C_12  and  C_13 
ROOT
HETATM    1  N   UNL     1      42.835 -12.315   6.971  1.00  0.00    -0.306 N 
HETATM    2  C   UNL     1      42.753 -13.684   7.094  1.00  0.00     0.320 C 
HETATM    3  N   UNL     1      41.583 -14.147   6.528  1.00  0.00    -0.343 N 
HETATM    4  O   UNL     1      43.523 -14.437   7.675  1.00  0.00    -0.247 OA
HETATM    5  H   UNL     1      41.932 -11.865   7.021  1.00  0.00     0.171 HD
HETATM    6  H   UNL     1      41.120 -13.550   5.855  1.00  0.00     0.164 HD
ENDROOT
BRANCH   3   7
HETATM    7  C   UNL     1      41.076 -15.478   6.765  1.00  0.00     0.126 C 
BRANCH   7   8
HETATM    8  C   UNL     1      41.414 -16.483   5.669  1.00  0.00     0.040 C 
BRANCH   8   9
HETATM    9  C   UNL     1      40.822 -16.128   4.305  1.00  0.00     0.131 C 
BRANCH   9  10
HETATM   10  N   UNL     1      41.893 -15.744   3.365  1.00  0.00    -0.341 N 
HETATM   11  C   UNL     1      42.900 -16.514   2.864  1.00  0.00     0.117 A 
HETATM   12  N   UNL     1      43.594 -15.670   2.067  1.00  0.00    -0.350 N 
HETATM   13  H   UNL     1      44.406 -15.949   1.530  1.00  0.00     0.166 HD
HETATM   14  C   UNL     1      43.077 -14.406   2.057  1.00  0.00     0.107 A 
HETATM   15  C   UNL     1      42.001 -14.440   2.879  1.00  0.00     0.109 A 
BRANCH  11  16
HETATM   16  C   UNL     1      43.271 -17.983   3.045  1.00  0.00     0.008 A 
HETATM   17  C   UNL     1      43.932 -18.475   4.173  1.00  0.00     0.015 A 
HETATM   18  C   UNL     1      44.245 -19.835   4.286  1.00  0.00     0.001 A 
HETATM   19  C   UNL     1      43.898 -20.724   3.274  1.00  0.00     0.000 A 
HETATM   20  C   UNL     1      43.237 -20.254   2.146  1.00  0.00     0.001 A 
HETATM   21  C   UNL     1      42.926 -18.894   2.030  1.00  0.00     0.015 A 
ENDBRANCH  11  16
ENDBRANCH   9  10
ENDBRANCH   8   9
ENDBRANCH   7   8
ENDBRANCH   3   7
BRANCH   1  22
HETATM   22  C   UNL     1      43.930 -11.528   7.402  1.00  0.00     0.071 A 
HETATM   23  C   UNL     1      45.102 -11.320   6.644  1.00  0.00     0.095 A 
HETATM   24  C   UNL     1      46.135 -10.544   7.190  1.00  0.00     0.041 A 
HETATM   25  C   UNL     1      45.998  -9.955   8.451  1.00  0.00     0.026 A 
HETATM   26  C   UNL     1      44.819 -10.124   9.168  1.00  0.00     0.036 A 
HETATM   27  C   UNL     1      43.784 -10.894   8.646  1.00  0.00     0.056 A 
HETATM   28 CL   UNL     1      44.639  -9.382  10.709  1.00  0.00    -0.084 Cl
BRANCH  23  29
HETATM   29  O   UNL     1      45.121 -11.821   5.367  1.00  0.00    -0.354 OA
HETATM   30  C   UNL     1      44.114 -11.364   4.470  1.00  0.00     0.210 C 
ENDBRANCH  23  29
ENDBRANCH   1  22
TORSDOF 7
ENDMDL
MODEL 3
REMARK VINA RESULT:      -8.1      2.248      2.975
REMARK  7 active torsions:
REMARK  status: ('A' for Active; 'I' for Inactive)
REMARK    1  A    between atoms: O_2  and  C_3 
REMARK    2  A    between atoms: C_4  and  N_5 
REMARK       I    between atoms: N_5  and  C_6 
REMARK       I    between atoms: C_6  and  N_7 
REMARK    3  A    between atoms: N_7  and  C_8 
REMARK    4  A    between atoms: C_8  and  C_9 
REMARK    5  A    between atoms: C_9  and  C_10 
REMARK    6  A    between atoms: C_10  and  N_11 
REMARK    7  A    between atoms: C_12  and  C_13 
ROOT
HETATM    1  N   UNL     1      40.889 -13.891  -0.379  1.00  0.00    -0.306 N 
HETATM    2  C   UNL     1      40.953 -14.637   0.777  1.00  0.00     0.320 C 
HETATM    3  N   UNL     1      42.259 -14.745   1.206  1.00  0.00    -0.343 N 
HETATM    4  O   UNL     1      40.041 -15.216   1.353  1.00  0.00    -0.247 OA
HETATM    5  H   UNL     1      41.699 -14.018  -0.969  1.00  0.00     0.171 HD
HETATM    6  H   UNL     1      42.922 -14.062   0.865  1.00  0.00     0.164 HD
ENDROOT
BRANCH   3   7
HETATM    7  C   UNL     1      42.675 -15.703   2.203  1.00  0.00     0.126 C 
BRANCH   7   8
HETATM    8  C   UNL     1      42.850 -15.119   3.601  1.00  0.00     0.040 C 
BRANCH   8   9
HETATM    9  C   UNL     1      41.811 -15.613   4.607  1.00  0.00     0.131 C 
BRANCH   9  10
HETATM   10  N   UNL     1      42.450 -15.894   5.909  1.00  0.00    -0.341 N 
HETATM   11  C   UNL     1      43.118 -17.014   6.302  1.00  0.00     0.117 A 
HETATM   12  N   UNL     1      43.483 -16.748   7.577  1.00  0.00    -0.350 N 
HETATM   13  H   UNL     1      44.017 -17.390   8.151  1.00  0.00     0.166 HD
HETATM   14  C   UNL     1      43.063 -15.520   8.003  1.00  0.00     0.107 A 
HETATM   15  C   UNL     1      42.403 -14.971   6.955  1.00  0.00     0.109 A 
BRANCH  11  16
HETATM   16  C   UNL     1      43.469 -18.317   5.589  1.00  0.00     0.008 A 
HETATM   17  C   UNL     1      43.861 -18.379   4.250  1.00  0.00     0.015 A 
HETATM   18  C   UNL     1      44.173 -19.605   3.649  1.00  0.00     0.001 A 
HETATM   19  C   UNL     1      44.103 -20.786   4.380  1.00  0.00     0.000 A 
HETATM   20  C   UNL     1      43.719 -20.744   5.715  1.00  0.00     0.001 A 
HETATM   21  C   UNL     1      43.402 -19.520   6.316  1.00  0.00     0.015 A 
ENDBRANCH  11  16
ENDBRANCH   9  10
ENDBRANCH   8   9
ENDBRANCH   7   8
ENDBRANCH   3   7
BRANCH   1  22
HETATM   22  C   UNL     1      39.693 -13.549  -1.056  1.00  0.00     0.071 A 
HETATM   23  C   UNL     1      38.819 -12.520  -0.646  1.00  0.00     0.095 A 
HETATM   24  C   UNL     1      37.646 -12.294  -1.382  1.00  0.00     0.041 A 
HETATM   25  C   UNL     1      37.360 -13.048  -2.523  1.00  0.00     0.026 A 
HETATM   26  C   UNL     1      38.253 -14.024  -2.948  1.00  0.00     0.036 A 
HETATM   27  C   UNL     1      39.420 -14.268  -2.230  1.00  0.00     0.056 A 
HETATM   28 CL   UNL     1      37.914 -14.938  -4.365  1.00  0.00    -0.084 Cl
BRANCH  23  29
HETATM   29  O   UNL     1      39.220 -11.738   0.407  1.00  0.00    -0.354 OA
HETATM   30  C   UNL     1      38.231 -11.368   1.361  1.00  0.00     0.210 C 
ENDBRANCH  23  29
ENDBRANCH   1  22
TORSDOF 7
ENDMDL
MODEL 4
REMARK VINA RESULT:      -8.0      3.670      7.412
REMARK  7 active torsions:
REMARK  status: ('A' for Active; 'I' for Inactive)
REMARK    1  A    between atoms: O_2  and  C_3 
REMARK    2  A    between atoms: C_4  and  N_5 
REMARK       I    between atoms: N_5  and  C_6 
REMARK       I    between atoms: C_6  and  N_7 
REMARK    3  A    between atoms: N_7  and  C_8 
REMARK    4  A    between atoms: C_8  and  C_9 
REMARK    5  A    between atoms: C_9  and  C_10 
REMARK    6  A    between atoms: C_10  and  N_11 
REMARK    7  A    between atoms: C_12  and  C_13 
ROOT
HETATM    1  N   UNL     1      43.284 -15.558   2.777  1.00  0.00    -0.306 N 
HETATM    2  C   UNL     1      42.070 -15.095   2.320  1.00  0.00     0.320 C 
HETATM    3  N   UNL     1      42.198 -13.807   1.842  1.00  0.00    -0.343 N 
HETATM    4  O   UNL     1      40.982 -15.653   2.371  1.00  0.00    -0.247 OA
HETATM    5  H   UNL     1      43.852 -14.827   3.182  1.00  0.00     0.171 HD
HETATM    6  H   UNL     1      43.124 -13.493   1.586  1.00  0.00     0.164 HD
ENDROOT
BRANCH   3   7
HETATM    7  C   UNL     1      41.061 -12.957   1.582  1.00  0.00     0.126 C 
BRANCH   7   8
HETATM    8  C   UNL     1      40.543 -12.206   2.804  1.00  0.00     0.040 C 
BRANCH   8   9
HETATM    9  C   UNL     1      41.629 -11.877   3.828  1.00  0.00     0.131 C 
BRANCH   9  10
HETATM   10  N   UNL     1      41.507 -12.756   5.007  1.00  0.00    -0.341 N 
HETATM   11  C   UNL     1      42.340 -12.858   6.081  1.00  0.00     0.117 A 
HETATM   12  N   UNL     1      41.768 -13.812   6.851  1.00  0.00    -0.350 N 
HETATM   13  H   UNL     1      42.145 -14.111   7.742  1.00  0.00     0.166 HD
HETATM   14  C   UNL     1      40.625 -14.320   6.303  1.00  0.00     0.107 A 
HETATM   15  C   UNL     1      40.451 -13.661   5.132  1.00  0.00     0.109 A 
BRANCH  11  16
HETATM   16  C   UNL     1      43.624 -12.131   6.471  1.00  0.00     0.008 A 
HETATM   17  C   UNL     1      44.707 -11.967   5.605  1.00  0.00     0.015 A 
HETATM   18  C   UNL     1      45.860 -11.288   6.017  1.00  0.00     0.001 A 
HETATM   19  C   UNL     1      45.945 -10.759   7.300  1.00  0.00     0.000 A 
HETATM   20  C   UNL     1      44.875 -10.908   8.175  1.00  0.00     0.001 A 
HETATM   21  C   UNL     1      43.724 -11.590   7.766  1.00  0.00     0.015 A 
ENDBRANCH  11  16
ENDBRANCH   9  10
ENDBRANCH   8   9
ENDBRANCH   7   8
ENDBRANCH   3   7
BRANCH   1  22
HETATM   22  C   UNL     1      43.513 -16.858   3.288  1.00  0.00     0.071 A 
HETATM   23  C   UNL     1      43.760 -17.143   4.648  1.00  0.00     0.095 A 
HETATM   24  C   UNL     1      44.003 -18.470   5.030  1.00  0.00     0.041 A 
HETATM   25  C   UNL     1      43.969 -19.504   4.089  1.00  0.00     0.026 A 
HETATM   26  C   UNL     1      43.675 -19.220   2.762  1.00  0.00     0.036 A 
HETATM   27  C   UNL     1      43.435 -17.910   2.360  1.00  0.00     0.056 A 
HETATM   28 CL   UNL     1      43.610 -20.493   1.606  1.00  0.00    -0.084 Cl
BRANCH  23  29
HETATM   29  O   UNL     1      43.656 -16.102   5.535  1.00  0.00    -0.354 OA
HETATM   30  C   UNL     1      44.368 -16.215   6.762  1.00  0.00     0.210 C 
ENDBRANCH  23  29
ENDBRANCH   1  22
TORSDOF 7
ENDMDL
MODEL 5
REMARK VINA RESULT:      -7.8      2.096      2.874
REMARK  7 active torsions:
REMARK  status: ('A' for Active; 'I' for Inactive)
REMARK    1  A    between atoms: O_2  and  C_3 
REMARK    2  A    between atoms: C_4  and  N_5 
REMARK       I    between atoms: N_5  and  C_6 
REMARK       I    between atoms: C_6  and  N_7 
REMARK    3  A    between atoms: N_7  and  C_8 
REMARK    4  A    between atoms: C_8  and  C_9 
REMARK    5  A    between atoms: C_9  and  C_10 
REMARK    6  A    between atoms: C_10  and  N_11 
REMARK    7  A    between atoms: C_12  and  C_13 
ROOT
HETATM    1  N   UNL     1      40.938 -13.772   1.891  1.00  0.00    -0.306 N 
HETATM    2  C   UNL     1      40.183 -13.494   3.009  1.00  0.00     0.320 C 
HETATM    3  N   UNL     1      40.852 -13.888   4.149  1.00  0.00    -0.343 N 
HETATM    4  O   UNL     1      39.047 -13.041   3.059  1.00  0.00    -0.247 OA
HETATM    5  H   UNL     1      41.493 -14.609   1.995  1.00  0.00     0.171 HD
HETATM    6  H   UNL     1      41.854 -14.011   4.085  1.00  0.00     0.164 HD
ENDROOT
BRANCH   3   7
HETATM    7  C   UNL     1      40.202 -14.006   5.433  1.00  0.00     0.126 C 
BRANCH   7   8
HETATM    8  C   UNL     1      40.590 -15.250   6.223  1.00  0.00     0.040 C 
BRANCH   8   9
HETATM    9  C   UNL     1      41.304 -16.312   5.386  1.00  0.00     0.131 C 
BRANCH   9  10
HETATM   10  N   UNL     1      42.735 -16.369   5.742  1.00  0.00    -0.341 N 
HETATM   11  C   UNL     1      43.691 -17.226   5.282  1.00  0.00     0.117 A 
HETATM   12  N   UNL     1      44.813 -16.847   5.936  1.00  0.00    -0.350 N 
HETATM   13  H   UNL     1      45.715 -17.287   5.799  1.00  0.00     0.166 HD
HETATM   14  C   UNL     1      44.601 -15.803   6.791  1.00  0.00     0.107 A 
HETATM   15  C   UNL     1      43.287 -15.495   6.679  1.00  0.00     0.109 A 
BRANCH  11  16
HETATM   16  C   UNL     1      43.662 -18.366   4.268  1.00  0.00     0.008 A 
HETATM   17  C   UNL     1      43.342 -18.186   2.920  1.00  0.00     0.015 A 
HETATM   18  C   UNL     1      43.334 -19.271   2.034  1.00  0.00     0.001 A 
HETATM   19  C   UNL     1      43.649 -20.549   2.482  1.00  0.00     0.000 A 
HETATM   20  C   UNL     1      43.974 -20.746   3.818  1.00  0.00     0.001 A 
HETATM   21  C   UNL     1      43.979 -19.665   4.706  1.00  0.00     0.015 A 
ENDBRANCH  11  16
ENDBRANCH   9  10
ENDBRANCH   8   9
ENDBRANCH   7   8
ENDBRANCH   3   7
BRANCH   1  22
HETATM   22  C   UNL     1      40.566 -13.450   0.563  1.00  0.00     0.071 A 
HETATM   23  C   UNL     1      40.798 -12.197  -0.043  1.00  0.00     0.095 A 
HETATM   24  C   UNL     1      40.355 -11.987  -1.357  1.00  0.00     0.041 A 
HETATM   25  C   UNL     1      39.725 -13.009  -2.073  1.00  0.00     0.026 A 
HETATM   26  C   UNL     1      39.548 -14.255  -1.485  1.00  0.00     0.036 A 
HETATM   27  C   UNL     1      39.975 -14.484  -0.181  1.00  0.00     0.056 A 
HETATM   28 CL   UNL     1      38.792 -15.522  -2.371  1.00  0.00    -0.084 Cl
BRANCH  23  29
HETATM   29  O   UNL     1      41.530 -11.282   0.670  1.00  0.00    -0.354 OA
HETATM   30  C   UNL     1      40.815 -10.244   1.330  1.00  0.00     0.210 C 
ENDBRANCH  23  29
ENDBRANCH   1  22
TORSDOF 7
ENDMDL
MODEL 6
REMARK VINA RESULT:      -7.8      4.384      7.039
REMARK  7 active torsions:
REMARK  status: ('A' for Active; 'I' for Inactive)
REMARK    1  A    between atoms: O_2  and  C_3 
REMARK    2  A    between atoms: C_4  and  N_5 
REMARK       I    between atoms: N_5  and  C_6 
REMARK       I    between atoms: C_6  and  N_7 
REMARK    3  A    between atoms: N_7  and  C_8 
REMARK    4  A    between atoms: C_8  and  C_9 
REMARK    5  A    between atoms: C_9  and  C_10 
REMARK    6  A    between atoms: C_10  and  N_11 
REMARK    7  A    between atoms: C_12  and  C_13 
ROOT
HETATM    1  N   UNL     1      43.172 -13.767   5.895  1.00  0.00    -0.306 N 
HETATM    2  C   UNL     1      43.362 -14.756   6.835  1.00  0.00     0.320 C 
HETATM    3  N   UNL     1      43.828 -15.907   6.233  1.00  0.00    -0.343 N 
HETATM    4  O   UNL     1      43.104 -14.720   8.031  1.00  0.00    -0.247 OA
HETATM    5  H   UNL     1      42.875 -14.133   5.002  1.00  0.00     0.171 HD
HETATM    6  H   UNL     1      44.261 -15.817   5.324  1.00  0.00     0.164 HD
ENDROOT
BRANCH   3   7
HETATM    7  C   UNL     1      43.834 -17.187   6.900  1.00  0.00     0.126 C 
BRANCH   7   8
HETATM    8  C   UNL     1      43.580 -18.376   5.980  1.00  0.00     0.040 C 
BRANCH   8   9
HETATM    9  C   UNL     1      44.573 -18.482   4.823  1.00  0.00     0.131 C 
BRANCH   9  10
HETATM   10  N   UNL     1      43.895 -18.975   3.608  1.00  0.00    -0.341 N 
HETATM   11  C   UNL     1      43.120 -18.282   2.727  1.00  0.00     0.117 A 
HETATM   12  N   UNL     1      42.748 -19.209   1.815  1.00  0.00    -0.350 N 
HETATM   13  H   UNL     1      42.170 -19.001   1.010  1.00  0.00     0.166 HD
HETATM   14  C   UNL     1      43.245 -20.451   2.091  1.00  0.00     0.107 A 
HETATM   15  C   UNL     1      43.970 -20.316   3.227  1.00  0.00     0.109 A 
BRANCH  11  16
HETATM   16  C   UNL     1      42.700 -16.817   2.644  1.00  0.00     0.008 A 
HETATM   17  C   UNL     1      43.388 -15.863   1.891  1.00  0.00     0.015 A 
HETATM   18  C   UNL     1      42.954 -14.531   1.850  1.00  0.00     0.001 A 
HETATM   19  C   UNL     1      41.824 -14.137   2.558  1.00  0.00     0.000 A 
HETATM   20  C   UNL     1      41.125 -15.073   3.309  1.00  0.00     0.001 A 
HETATM   21  C   UNL     1      41.559 -16.402   3.355  1.00  0.00     0.015 A 
ENDBRANCH  11  16
ENDBRANCH   9  10
ENDBRANCH   8   9
ENDBRANCH   7   8
ENDBRANCH   3   7
BRANCH   1  22
HETATM   22  C   UNL     1      42.746 -12.449   6.184  1.00  0.00     0.071 A 
HETATM   23  C   UNL     1      43.597 -11.429   6.661  1.00  0.00     0.095 A 
HETATM   24  C   UNL     1      43.053 -10.167   6.940  1.00  0.00     0.041 A 
HETATM   25  C   UNL     1      41.698  -9.906   6.719  1.00  0.00     0.026 A 
HETATM   26  C   UNL     1      40.879 -10.901   6.200  1.00  0.00     0.036 A 
HETATM   27  C   UNL     1      41.397 -12.162   5.920  1.00  0.00     0.056 A 
HETATM   28 CL   UNL     1      39.216 -10.577   5.906  1.00  0.00    -0.084 Cl
BRANCH  23  29
HETATM   29  O   UNL     1      44.937 -11.715   6.737  1.00  0.00    -0.354 OA
HETATM   30  C   UNL     1      45.731 -10.902   7.594  1.00  0.00     0.210 C 
ENDBRANCH  23  29
ENDBRANCH   1  22
TORSDOF 7
ENDMDL
MODEL 7
REMARK VINA RESULT:      -7.6      5.830      8.517
REMARK  7 active torsions:
REMARK  status: ('A' for Active; 'I' for Inactive)
REMARK    1  A    between atoms: O_2  and  C_3 
REMARK    2  A    between atoms: C_4  and  N_5 
REMARK       I    between atoms: N_5  and  C_6 
REMARK       I    between atoms: C_6  and  N_7 
REMARK    3  A    between atoms: N_7  and  C_8 
REMARK    4  A    between atoms: C_8  and  C_9 
REMARK    5  A    between atoms: C_9  and  C_10 
REMARK    6  A    between atoms: C_10  and  N_11 
REMARK    7  A    between atoms: C_12  and  C_13 
ROOT
HETATM    1  N   UNL     1      44.120 -10.159   7.639  1.00  0.00    -0.306 N 
HETATM    2  C   UNL     1      43.179 -10.572   6.721  1.00  0.00     0.320 C 
HETATM    3  N   UNL     1      43.797 -11.109   5.610  1.00  0.00    -0.343 N 
HETATM    4  O   UNL     1      41.963 -10.443   6.777  1.00  0.00    -0.247 OA
HETATM    5  H   UNL     1      44.963  -9.815   7.203  1.00  0.00     0.171 HD
HETATM    6  H   UNL     1      44.752 -11.425   5.713  1.00  0.00     0.164 HD
ENDROOT
BRANCH   3   7
HETATM    7  C   UNL     1      43.099 -11.346   4.369  1.00  0.00     0.126 C 
BRANCH   7   8
HETATM    8  C   UNL     1      42.906 -12.819   4.028  1.00  0.00     0.040 C 
BRANCH   8   9
HETATM    9  C   UNL     1      43.280 -13.768   5.166  1.00  0.00     0.131 C 
BRANCH   9  10
HETATM   10  N   UNL     1      42.126 -14.614   5.530  1.00  0.00    -0.341 N 
HETATM   11  C   UNL     1      41.875 -15.906   5.178  1.00  0.00     0.117 A 
HETATM   12  N   UNL     1      40.690 -16.184   5.768  1.00  0.00    -0.350 N 
HETATM   13  H   UNL     1      40.233 -17.085   5.708  1.00  0.00     0.166 HD
HETATM   14  C   UNL     1      40.182 -15.122   6.461  1.00  0.00     0.107 A 
HETATM   15  C   UNL     1      41.082 -14.120   6.314  1.00  0.00     0.109 A 
BRANCH  11  16
HETATM   16  C   UNL     1      42.652 -16.925   4.349  1.00  0.00     0.008 A 
HETATM   17  C   UNL     1      42.400 -17.166   2.996  1.00  0.00     0.015 A 
HETATM   18  C   UNL     1      43.148 -18.113   2.285  1.00  0.00     0.001 A 
HETATM   19  C   UNL     1      44.160 -18.829   2.914  1.00  0.00     0.000 A 
HETATM   20  C   UNL     1      44.428 -18.600   4.258  1.00  0.00     0.001 A 
HETATM   21  C   UNL     1      43.679 -17.657   4.972  1.00  0.00     0.015 A 
ENDBRANCH  11  16
ENDBRANCH   9  10
ENDBRANCH   8   9
ENDBRANCH   7   8
ENDBRANCH   3   7
BRANCH   1  22
HETATM   22  C   UNL     1      43.823  -9.608   8.908  1.00  0.00     0.071 A 
HETATM   23  C   UNL     1      43.568  -8.239   9.137  1.00  0.00     0.095 A 
HETATM   24  C   UNL     1      43.315  -7.806  10.446  1.00  0.00     0.041 A 
HETATM   25  C   UNL     1      43.280  -8.715  11.508  1.00  0.00     0.026 A 
HETATM   26  C   UNL     1      43.482 -10.068  11.265  1.00  0.00     0.036 A 
HETATM   27  C   UNL     1      43.739 -10.519   9.974  1.00  0.00     0.056 A 
HETATM   28 CL   UNL     1      43.417 -11.192  12.565  1.00  0.00    -0.084 Cl
BRANCH  23  29
HETATM   29  O   UNL     1      43.494  -7.423   8.037  1.00  0.00    -0.354 OA
HETATM   30  C   UNL     1      42.213  -6.913   7.686  1.00  0.00     0.210 C 
ENDBRANCH  23  29
ENDBRANCH   1  22
TORSDOF 7
ENDMDL
MODEL 8
REMARK VINA RESULT:      -7.6      4.075      6.608
REMARK  7 active torsions:
REMARK  status: ('A' for Active; 'I' for Inactive)
REMARK    1  A    between atoms: O_2  and  C_3 
REMARK    2  A    between atoms: C_4  and  N_5 
REMARK       I    between atoms: N_5  and  C_6 
REMARK       I    between atoms: C_6  and  N_7 
REMARK    3  A    between atoms: N_7  and  C_8 
REMARK    4  A    between atoms: C_8  and  C_9 
REMARK    5  A    between atoms: C_9  and  C_10 
REMARK    6  A    between atoms: C_10  and  N_11 
REMARK    7  A    between atoms: C_12  and  C_13 
ROOT
HETATM    1  N   UNL     1      42.601 -12.958   5.034  1.00  0.00    -0.306 N 
HETATM    2  C   UNL     1      42.929 -12.928   3.696  1.00  0.00     0.320 C 
HETATM    3  N   UNL     1      42.525 -14.093   3.078  1.00  0.00    -0.343 N 
HETATM    4  O   UNL     1      43.555 -12.068   3.092  1.00  0.00    -0.247 OA
HETATM    5  H   UNL     1      42.652 -13.888   5.426  1.00  0.00     0.171 HD
HETATM    6  H   UNL     1      41.808 -14.641   3.534  1.00  0.00     0.164 HD
ENDROOT
BRANCH   3   7
HETATM    7  C   UNL     1      42.989 -14.481   1.767  1.00  0.00     0.126 C 
BRANCH   7   8
HETATM    8  C   UNL     1      43.400 -15.945   1.654  1.00  0.00     0.040 C 
BRANCH   8   9
HETATM    9  C   UNL     1      42.347 -16.922   2.177  1.00  0.00     0.131 C 
BRANCH   9  10
HETATM   10  N   UNL     1      42.995 -18.060   2.857  1.00  0.00    -0.341 N 
HETATM   11  C   UNL     1      43.380 -18.163   4.161  1.00  0.00     0.117 A 
HETATM   12  N   UNL     1      43.924 -19.398   4.246  1.00  0.00    -0.350 N 
HETATM   13  H   UNL     1      44.296 -19.787   5.104  1.00  0.00     0.166 HD
HETATM   14  C   UNL     1      43.909 -20.067   3.055  1.00  0.00     0.107 A 
HETATM   15  C   UNL     1      43.326 -19.227   2.167  1.00  0.00     0.109 A 
BRANCH  11  16
HETATM   16  C   UNL     1      43.273 -17.215   5.352  1.00  0.00     0.008 A 
HETATM   17  C   UNL     1      42.057 -16.825   5.916  1.00  0.00     0.015 A 
HETATM   18  C   UNL     1      42.020 -15.954   7.012  1.00  0.00     0.001 A 
HETATM   19  C   UNL     1      43.199 -15.464   7.562  1.00  0.00     0.000 A 
HETATM   20  C   UNL     1      44.419 -15.844   7.017  1.00  0.00     0.001 A 
HETATM   21  C   UNL     1      44.458 -16.711   5.920  1.00  0.00     0.015 A 
ENDBRANCH  11  16
ENDBRANCH   9  10
ENDBRANCH   8   9
ENDBRANCH   7   8
ENDBRANCH   3   7
BRANCH   1  22
HETATM   22  C   UNL     1      42.831 -11.901   5.947  1.00  0.00     0.071 A 
HETATM   23  C   UNL     1      41.839 -10.992   6.372  1.00  0.00     0.095 A 
HETATM   24  C   UNL     1      42.195  -9.965   7.258  1.00  0.00     0.041 A 
HETATM   25  C   UNL     1      43.502  -9.858   7.743  1.00  0.00     0.026 A 
HETATM   26  C   UNL     1      44.459 -10.789   7.359  1.00  0.00     0.036 A 
HETATM   27  C   UNL     1      44.129 -11.813   6.477  1.00  0.00     0.056 A 
HETATM   28 CL   UNL     1      46.062 -10.673   7.972  1.00  0.00    -0.084 Cl
BRANCH  23  29
HETATM   29  O   UNL     1      40.554 -11.228   5.956  1.00  0.00    -0.354 OA
HETATM   30  C   UNL     1      39.505 -10.606   6.690  1.00  0.00     0.210 C 
ENDBRANCH  23  29
ENDBRANCH   1  22
TORSDOF 7
ENDMDL
MODEL 9
REMARK VINA RESULT:      -7.5      5.278      8.383
REMARK  7 active torsions:
REMARK  status: ('A' for Active; 'I' for Inactive)
REMARK    1  A    between atoms: O_2  and  C_3 
REMARK    2  A    between atoms: C_4  and  N_5 
REMARK       I    between atoms: N_5  and  C_6 
REMARK       I    between atoms: C_6  and  N_7 
REMARK    3  A    between atoms: N_7  and  C_8 
REMARK    4  A    between atoms: C_8  and  C_9 
REMARK    5  A    between atoms: C_9  and  C_10 
REMARK    6  A    between atoms: C_10  and  N_11 
REMARK    7  A    between atoms: C_12  and  C_13 
ROOT
HETATM    1  N   UNL     1      43.136 -10.406   7.161  1.00  0.00    -0.306 N 
HETATM    2  C   UNL     1      43.350 -11.651   6.610  1.00  0.00     0.320 C 
HETATM    3  N   UNL     1      43.053 -11.635   5.263  1.00  0.00    -0.343 N 
HETATM    4  O   UNL     1      43.676 -12.682   7.182  1.00  0.00    -0.247 OA
HETATM    5  H   UNL     1      42.367  -9.915   6.726  1.00  0.00     0.171 HD
HETATM    6  H   UNL     1      43.042 -10.739   4.796  1.00  0.00     0.164 HD
ENDROOT
BRANCH   3   7
HETATM    7  C   UNL     1      42.889 -12.842   4.488  1.00  0.00     0.126 C 
BRANCH   7   8
HETATM    8  C   UNL     1      43.279 -12.705   3.020  1.00  0.00     0.040 C 
BRANCH   8   9
HETATM    9  C   UNL     1      43.364 -14.040   2.280  1.00  0.00     0.131 C 
BRANCH   9  10
HETATM   10  N   UNL     1      42.064 -14.738   2.330  1.00  0.00    -0.341 N 
HETATM   11  C   UNL     1      41.802 -16.019   2.715  1.00  0.00     0.117 A 
HETATM   12  N   UNL     1      40.464 -16.142   2.560  1.00  0.00    -0.350 N 
HETATM   13  H   UNL     1      39.951 -16.987   2.780  1.00  0.00     0.166 HD
HETATM   14  C   UNL     1      39.879 -15.003   2.084  1.00  0.00     0.107 A 
HETATM   15  C   UNL     1      40.884 -14.107   1.931  1.00  0.00     0.109 A 
BRANCH  11  16
HETATM   16  C   UNL     1      42.688 -17.148   3.236  1.00  0.00     0.008 A 
HETATM   17  C   UNL     1      43.200 -17.184   4.534  1.00  0.00     0.015 A 
HETATM   18  C   UNL     1      44.006 -18.249   4.958  1.00  0.00     0.001 A 
HETATM   19  C   UNL     1      44.308 -19.292   4.091  1.00  0.00     0.000 A 
HETATM   20  C   UNL     1      43.804 -19.275   2.796  1.00  0.00     0.001 A 
HETATM   21  C   UNL     1      43.001 -18.211   2.370  1.00  0.00     0.015 A 
ENDBRANCH  11  16
ENDBRANCH   9  10
ENDBRANCH   8   9
ENDBRANCH   7   8
ENDBRANCH   3   7
BRANCH   1  22
HETATM   22  C   UNL     1      43.389 -10.065   8.511  1.00  0.00     0.071 A 
HETATM   23  C   UNL     1      44.662 -10.124   9.118  1.00  0.00     0.095 A 
HETATM   24  C   UNL     1      44.783  -9.789  10.474  1.00  0.00     0.041 A 
HETATM   25  C   UNL     1      43.671  -9.371  11.211  1.00  0.00     0.026 A 
HETATM   26  C   UNL     1      42.432  -9.266  10.591  1.00  0.00     0.036 A 
HETATM   27  C   UNL     1      42.289  -9.598   9.247  1.00  0.00     0.056 A 
HETATM   28 CL   UNL     1      41.067  -8.729  11.489  1.00  0.00    -0.084 Cl
BRANCH  23  29
HETATM   29  O   UNL     1      45.728 -10.422   8.308  1.00  0.00    -0.354 OA
HETATM   30  C   UNL     1      46.542  -9.339   7.873  1.00  0.00     0.210 C 
ENDBRANCH  23  29
ENDBRANCH   1  22
TORSDOF 7
ENDMDL
MODEL 10
REMARK VINA RESULT:      -7.5      6.627      9.394
REMARK  7 active torsions:
REMARK  status: ('A' for Active; 'I' for Inactive)
REMARK    1  A    between atoms: O_2  and  C_3 
REMARK    2  A    between atoms: C_4  and  N_5 
REMARK       I    between atoms: N_5  and  C_6 
REMARK       I    between atoms: C_6  and  N_7 
REMARK    3  A    between atoms: N_7  and  C_8 
REMARK    4  A    between atoms: C_8  and  C_9 
REMARK    5  A    between atoms: C_9  and  C_10 
REMARK    6  A    between atoms: C_10  and  N_11 
REMARK    7  A    between atoms: C_12  and  C_13 
ROOT
HETATM    1  N   UNL     1      42.657 -10.217   9.991  1.00  0.00    -0.306 N 
HETATM    2  C   UNL     1      43.470 -10.105   8.884  1.00  0.00     0.320 C 
HETATM    3  N   UNL     1      43.733 -11.351   8.354  1.00  0.00    -0.343 N 
HETATM    4  O   UNL     1      43.987  -9.094   8.428  1.00  0.00    -0.247 OA
HETATM    5  H   UNL     1      42.831 -11.063  10.516  1.00  0.00     0.171 HD
HETATM    6  H   UNL     1      43.101 -12.104   8.592  1.00  0.00     0.164 HD
ENDROOT
BRANCH   3   7
HETATM    7  C   UNL     1      44.783 -11.582   7.390  1.00  0.00     0.126 C 
BRANCH   7   8
HETATM    8  C   UNL     1      44.419 -12.573   6.290  1.00  0.00     0.040 C 
BRANCH   8   9
HETATM    9  C   UNL     1      43.523 -13.716   6.765  1.00  0.00     0.131 C 
BRANCH   9  10
HETATM   10  N   UNL     1      42.324 -13.817   5.909  1.00  0.00    -0.341 N 
HETATM   11  C   UNL     1      42.022 -14.767   4.979  1.00  0.00     0.117 A 
HETATM   12  N   UNL     1      40.823 -14.377   4.488  1.00  0.00    -0.350 N 
HETATM   13  H   UNL     1      40.315 -14.891   3.779  1.00  0.00     0.166 HD
HETATM   14  C   UNL     1      40.368 -13.222   5.059  1.00  0.00     0.107 A 
HETATM   15  C   UNL     1      41.313 -12.856   5.958  1.00  0.00     0.109 A 
BRANCH  11  16
HETATM   16  C   UNL     1      42.744 -16.027   4.510  1.00  0.00     0.008 A 
HETATM   17  C   UNL     1      43.448 -16.873   5.370  1.00  0.00     0.015 A 
HETATM   18  C   UNL     1      44.090 -18.019   4.882  1.00  0.00     0.001 A 
HETATM   19  C   UNL     1      44.033 -18.337   3.530  1.00  0.00     0.000 A 
HETATM   20  C   UNL     1      43.333 -17.509   2.660  1.00  0.00     0.001 A 
HETATM   21  C   UNL     1      42.695 -16.362   3.145  1.00  0.00     0.015 A 
ENDBRANCH  11  16
ENDBRANCH   9  10
ENDBRANCH   8   9
ENDBRANCH   7   8
ENDBRANCH   3   7
BRANCH   1  22
HETATM   22  C   UNL     1      42.159  -9.126  10.743  1.00  0.00     0.071 A 
HETATM   23  C   UNL     1      40.968  -8.434  10.439  1.00  0.00     0.095 A 
HETATM   24  C   UNL     1      40.591  -7.347  11.242  1.00  0.00     0.041 A 
HETATM   25  C   UNL     1      41.361  -6.972  12.347  1.00  0.00     0.026 A 
HETATM   26  C   UNL     1      42.505  -7.693  12.668  1.00  0.00     0.036 A 
HETATM   27  C   UNL     1      42.899  -8.772  11.882  1.00  0.00     0.056 A 
HETATM   28 CL   UNL     1      43.441  -7.248  14.040  1.00  0.00    -0.084 Cl
BRANCH  23  29
HETATM   29  O   UNL     1      40.197  -8.930   9.419  1.00  0.00    -0.354 OA
HETATM   30  C   UNL     1      39.106  -9.772   9.773  1.00  0.00     0.210 C 
ENDBRANCH  23  29
ENDBRANCH   1  22
TORSDOF 7
ENDMDL
