MODEL 1
REMARK VINA RESULT:      -8.6      0.000      0.000
REMARK  9 active torsions:
REMARK  status: ('A' for Active; 'I' for Inactive)
REMARK    1  A    between atoms: C_2  and  C_3 
REMARK    2  A    between atoms: C_3  and  N_4 
REMARK    3  A    between atoms: N_4  and  C_7 
REMARK    4  A    between atoms: C_7  and  C_8 
REMARK       I    between atoms: C_8  and  N_9 
REMARK    5  A    between atoms: N_9  and  C_10 
REMARK    6  A    between atoms: C_16  and  C_17 
REMARK    7  A    between atoms: C_22  and  C_23 
REMARK       I    between atoms: C_23  and  N_24 
REMARK    8  A    between atoms: N_24  and  C_25 
REMARK    9  A    between atoms: C_28  and  O_29 
ROOT
HETATM    1  C   UNL     1      41.850 -11.535   3.731  1.00  0.00     0.093 A 
HETATM    2  S   UNL     1      41.547 -10.084   4.543  1.00  0.00    -0.075 SA
HETATM    3  C   UNL     1      42.601 -10.500   5.804  1.00  0.00    -0.008 A 
HETATM    4  C   UNL     1      43.232 -11.717   5.602  1.00  0.00    -0.026 A 
HETATM    5  C   UNL     1      44.202 -12.238   6.626  1.00  0.00     0.041 C 
HETATM    6  C   UNL     1      44.050 -11.549   7.990  1.00  0.00     0.010 C 
HETATM    7  C   UNL     1      43.979 -10.003   7.862  1.00  0.00    -0.002 C 
HETATM    8  C   UNL     1      42.739  -9.617   7.012  1.00  0.00     0.052 C 
HETATM    9  C   UNL     1      42.800 -12.337   4.361  1.00  0.00     0.073 A 
ENDROOT
BRANCH   1  10
HETATM   10  N   UNL     1      41.153 -11.873   2.579  1.00  0.00    -0.319 N 
HETATM   11  C   UNL     1      41.244 -11.279   1.343  1.00  0.00     0.248 C 
HETATM   12  O   UNL     1      42.027 -10.411   0.962  1.00  0.00    -0.271 OA
HETATM   13  H   UNL     1      40.574 -12.709   2.702  1.00  0.00     0.169 HD
BRANCH  11  14
HETATM   14  C   UNL     1      40.284 -11.870   0.310  1.00  0.00     0.335 C 
BRANCH  14  15
HETATM   15  N   UNL     1      40.982 -12.954  -0.483  1.00  0.00    -0.067 N 
HETATM   16  H   UNL     1      41.659 -13.375   0.179  1.00  0.00     0.277 HD
HETATM   17  H   UNL     1      41.526 -12.543  -1.250  1.00  0.00     0.277 HD
BRANCH  15  18
HETATM   18  C   UNL     1      40.070 -14.026  -0.983  1.00  0.00     0.236 C 
BRANCH  18  19
HETATM   19  C   UNL     1      40.122 -14.111  -2.513  1.00  0.00     0.003 C 
HETATM   20  C   UNL     1      40.725 -12.820  -3.072  1.00  0.00     0.011 C 
HETATM   21  C   UNL     1      38.745 -14.351  -3.133  1.00  0.00     0.011 C 
ENDBRANCH  18  19
ENDBRANCH  15  18
ENDBRANCH  14  15
ENDBRANCH  11  14
ENDBRANCH   1  10
BRANCH   9  22
HETATM   22  C   UNL     1      43.184 -13.630   3.750  1.00  0.00     0.259 C 
HETATM   23  N   UNL     1      43.090 -14.736   4.569  1.00  0.00    -0.323 N 
HETATM   24  H   UNL     1      42.903 -14.569   5.546  1.00  0.00     0.169 HD
HETATM   25  O   UNL     1      43.622 -13.641   2.599  1.00  0.00    -0.267 OA
BRANCH  23  26
HETATM   26  C   UNL     1      43.289 -16.087   4.214  1.00  0.00     0.035 A 
HETATM   27  C   UNL     1      44.082 -16.978   4.938  1.00  0.00     0.032 A 
HETATM   28  C   UNL     1      44.247 -18.296   4.499  1.00  0.00     0.039 A 
HETATM   29  C   UNL     1      43.636 -18.743   3.327  1.00  0.00     0.068 A 
HETATM   30  C   UNL     1      42.840 -17.861   2.601  1.00  0.00     0.039 A 
HETATM   31  C   UNL     1      42.668 -16.541   3.044  1.00  0.00     0.032 A 
BRANCH  29  32
HETATM   32  O   UNL     1      43.892 -20.047   3.010  1.00  0.00    -0.356 OA
HETATM   33  C   UNL     1      43.629 -20.449   1.671  1.00  0.00     0.210 C 
ENDBRANCH  29  32
ENDBRANCH  23  26
ENDBRANCH   9  22
BRANCH   7  34
HETATM   34  C   UNL     1      44.045  -9.258   9.248  1.00  0.00    -0.047 C 
HETATM   35  C   UNL     1      45.350  -9.641   9.982  1.00  0.00     0.015 C 
HETATM   36  C   UNL     1      44.064  -7.727   9.053  1.00  0.00     0.015 C 
HETATM   37  C   UNL     1      42.857  -9.610  10.165  1.00  0.00     0.015 C 
ENDBRANCH   7  34
TORSDOF 9
ENDMDL
MODEL 2
REMARK VINA RESULT:      -8.6      1.929      7.892
REMARK  9 active torsions:
REMARK  status: ('A' for Active; 'I' for Inactive)
REMARK    1  A    between atoms: C_2  and  C_3 
REMARK    2  A    between atoms: C_3  and  N_4 
REMARK    3  A    between atoms: N_4  and  C_7 
REMARK    4  A    between atoms: C_7  and  C_8 
REMARK       I    between atoms: C_8  and  N_9 
REMARK    5  A    between atoms: N_9  and  C_10 
REMARK    6  A    between atoms: C_16  and  C_17 
REMARK    7  A    between atoms: C_22  and  C_23 
REMARK       I    between atoms: C_23  and  N_24 
REMARK    8  A    between atoms: N_24  and  C_25 
REMARK    9  A    between atoms: C_28  and  O_29 
ROOT
HETATM    1  C   UNL     1      42.380 -11.808   2.538  1.00  0.00     0.093 A 
HETATM    2  S   UNL     1      41.327 -10.581   2.045  1.00  0.00    -0.075 SA
HETATM    3  C   UNL     1      40.606 -11.584   0.883  1.00  0.00    -0.008 A 
HETATM    4  C   UNL     1      41.118 -12.871   0.889  1.00  0.00    -0.026 A 
HETATM    5  C   UNL     1      40.589 -13.892  -0.080  1.00  0.00     0.041 C 
HETATM    6  C   UNL     1      39.835 -13.257  -1.258  1.00  0.00     0.010 C 
HETATM    7  C   UNL     1      38.813 -12.185  -0.791  1.00  0.00    -0.002 C 
HETATM    8  C   UNL     1      39.568 -11.043  -0.059  1.00  0.00     0.052 C 
HETATM    9  C   UNL     1      42.168 -13.019   1.881  1.00  0.00     0.073 A 
ENDROOT
BRANCH   1  10
HETATM   10  N   UNL     1      43.378 -11.567   3.472  1.00  0.00    -0.319 N 
HETATM   11  C   UNL     1      43.394 -11.942   4.793  1.00  0.00     0.248 C 
HETATM   12  O   UNL     1      42.599 -12.658   5.400  1.00  0.00    -0.271 OA
HETATM   13  H   UNL     1      44.201 -11.117   3.060  1.00  0.00     0.169 HD
BRANCH  11  14
HETATM   14  C   UNL     1      44.630 -11.458   5.552  1.00  0.00     0.335 C 
BRANCH  14  15
HETATM   15  N   UNL     1      44.555 -11.900   6.997  1.00  0.00    -0.067 N 
HETATM   16  H   UNL     1      45.490 -12.297   7.204  1.00  0.00     0.277 HD
HETATM   17  H   UNL     1      43.875 -12.661   7.104  1.00  0.00     0.277 HD
BRANCH  15  18
HETATM   18  C   UNL     1      44.281 -10.792   7.961  1.00  0.00     0.236 C 
BRANCH  18  19
HETATM   19  C   UNL     1      45.557 -10.400   8.713  1.00  0.00     0.003 C 
HETATM   20  C   UNL     1      45.205 -10.046  10.160  1.00  0.00     0.011 C 
HETATM   21  C   UNL     1      46.286  -9.227   8.057  1.00  0.00     0.011 C 
ENDBRANCH  18  19
ENDBRANCH  15  18
ENDBRANCH  14  15
ENDBRANCH  11  14
ENDBRANCH   1  10
BRANCH   9  22
HETATM   22  C   UNL     1      43.003 -14.193   2.228  1.00  0.00     0.259 C 
HETATM   23  N   UNL     1      42.506 -15.015   3.216  1.00  0.00    -0.323 N 
HETATM   24  H   UNL     1      41.694 -14.691   3.719  1.00  0.00     0.169 HD
HETATM   25  O   UNL     1      44.099 -14.329   1.682  1.00  0.00    -0.267 OA
BRANCH  23  26
HETATM   26  C   UNL     1      43.040 -16.244   3.659  1.00  0.00     0.035 A 
HETATM   27  C   UNL     1      43.616 -16.441   4.915  1.00  0.00     0.032 A 
HETATM   28  C   UNL     1      44.146 -17.688   5.263  1.00  0.00     0.039 A 
HETATM   29  C   UNL     1      44.123 -18.754   4.363  1.00  0.00     0.068 A 
HETATM   30  C   UNL     1      43.545 -18.566   3.110  1.00  0.00     0.039 A 
HETATM   31  C   UNL     1      43.007 -17.319   2.762  1.00  0.00     0.032 A 
BRANCH  29  32
HETATM   32  O   UNL     1      44.685 -19.908   4.829  1.00  0.00    -0.356 OA
HETATM   33  C   UNL     1      43.839 -21.047   4.918  1.00  0.00     0.210 C 
ENDBRANCH  29  32
ENDBRANCH  23  26
ENDBRANCH   9  22
BRANCH   7  34
HETATM   34  C   UNL     1      37.872 -11.674  -1.946  1.00  0.00    -0.047 C 
HETATM   35  C   UNL     1      38.721 -11.005  -3.050  1.00  0.00     0.015 C 
HETATM   36  C   UNL     1      37.114 -12.848  -2.603  1.00  0.00     0.015 C 
HETATM   37  C   UNL     1      36.833 -10.649  -1.451  1.00  0.00     0.015 C 
ENDBRANCH   7  34
TORSDOF 9
ENDMDL
MODEL 3
REMARK VINA RESULT:      -8.2      2.103      5.970
REMARK  9 active torsions:
REMARK  status: ('A' for Active; 'I' for Inactive)
REMARK    1  A    between atoms: C_2  and  C_3 
REMARK    2  A    between atoms: C_3  and  N_4 
REMARK    3  A    between atoms: N_4  and  C_7 
REMARK    4  A    between atoms: C_7  and  C_8 
REMARK       I    between atoms: C_8  and  N_9 
REMARK    5  A    between atoms: N_9  and  C_10 
REMARK    6  A    between atoms: C_16  and  C_17 
REMARK    7  A    between atoms: C_22  and  C_23 
REMARK       I    between atoms: C_23  and  N_24 
REMARK    8  A    between atoms: N_24  and  C_25 
REMARK    9  A    between atoms: C_28  and  O_29 
ROOT
HETATM    1  C   UNL     1      42.649 -14.662   5.201  1.00  0.00     0.093 A 
HETATM    2  S   UNL     1      43.770 -14.523   6.457  1.00  0.00    -0.075 SA
HETATM    3  C   UNL     1      43.492 -12.856   6.601  1.00  0.00    -0.008 A 
HETATM    4  C   UNL     1      42.513 -12.395   5.737  1.00  0.00    -0.026 A 
HETATM    5  C   UNL     1      42.141 -10.938   5.734  1.00  0.00     0.041 C 
HETATM    6  C   UNL     1      43.206 -10.053   6.400  1.00  0.00     0.010 C 
HETATM    7  C   UNL     1      43.671 -10.622   7.767  1.00  0.00    -0.002 C 
HETATM    8  C   UNL     1      44.306 -12.022   7.550  1.00  0.00     0.052 C 
HETATM    9  C   UNL     1      41.994 -13.468   4.906  1.00  0.00     0.073 A 
ENDROOT
BRANCH   1  10
HETATM   10  N   UNL     1      42.472 -15.861   4.524  1.00  0.00    -0.319 N 
HETATM   11  C   UNL     1      42.879 -16.169   3.249  1.00  0.00     0.248 C 
HETATM   12  O   UNL     1      43.574 -15.506   2.482  1.00  0.00    -0.271 OA
HETATM   13  H   UNL     1      42.048 -16.585   5.113  1.00  0.00     0.169 HD
BRANCH  11  14
HETATM   14  C   UNL     1      42.464 -17.569   2.796  1.00  0.00     0.335 C 
BRANCH  14  15
HETATM   15  N   UNL     1      43.675 -18.475   2.746  1.00  0.00    -0.067 N 
HETATM   16  H   UNL     1      44.292 -18.057   2.025  1.00  0.00     0.277 HD
HETATM   17  H   UNL     1      43.409 -19.408   2.410  1.00  0.00     0.277 HD
BRANCH  15  18
HETATM   18  C   UNL     1      44.428 -18.560   4.033  1.00  0.00     0.236 C 
BRANCH  18  19
HETATM   19  C   UNL     1      43.668 -19.418   5.050  1.00  0.00     0.003 C 
HETATM   20  C   UNL     1      43.574 -18.666   6.380  1.00  0.00     0.011 C 
HETATM   21  C   UNL     1      44.323 -20.782   5.271  1.00  0.00     0.011 C 
ENDBRANCH  18  19
ENDBRANCH  15  18
ENDBRANCH  14  15
ENDBRANCH  11  14
ENDBRANCH   1  10
BRANCH   9  22
HETATM   22  C   UNL     1      40.965 -13.443   3.841  1.00  0.00     0.259 C 
HETATM   23  N   UNL     1      41.435 -13.325   2.550  1.00  0.00    -0.323 N 
HETATM   24  H   UNL     1      42.417 -13.128   2.435  1.00  0.00     0.169 HD
HETATM   25  O   UNL     1      39.775 -13.457   4.158  1.00  0.00    -0.267 OA
BRANCH  23  26
HETATM   26  C   UNL     1      40.687 -13.384   1.355  1.00  0.00     0.035 A 
HETATM   27  C   UNL     1      40.565 -14.525   0.562  1.00  0.00     0.032 A 
HETATM   28  C   UNL     1      39.825 -14.488  -0.624  1.00  0.00     0.039 A 
HETATM   29  C   UNL     1      39.204 -13.312  -1.045  1.00  0.00     0.068 A 
HETATM   30  C   UNL     1      39.316 -12.169  -0.256  1.00  0.00     0.039 A 
HETATM   31  C   UNL     1      40.053 -12.207   0.936  1.00  0.00     0.032 A 
BRANCH  29  32
HETATM   32  O   UNL     1      38.525 -13.414  -2.226  1.00  0.00    -0.356 OA
HETATM   33  C   UNL     1      38.689 -14.621  -2.961  1.00  0.00     0.210 C 
ENDBRANCH  29  32
ENDBRANCH  23  26
ENDBRANCH   9  22
BRANCH   7  34
HETATM   34  C   UNL     1      44.593  -9.634   8.574  1.00  0.00    -0.047 C 
HETATM   35  C   UNL     1      45.979  -9.545   7.896  1.00  0.00     0.015 C 
HETATM   36  C   UNL     1      44.000  -8.208   8.587  1.00  0.00     0.015 C 
HETATM   37  C   UNL     1      44.801 -10.080  10.035  1.00  0.00     0.015 C 
ENDBRANCH   7  34
TORSDOF 9
ENDMDL
MODEL 4
REMARK VINA RESULT:      -8.2      2.570      8.831
REMARK  9 active torsions:
REMARK  status: ('A' for Active; 'I' for Inactive)
REMARK    1  A    between atoms: C_2  and  C_3 
REMARK    2  A    between atoms: C_3  and  N_4 
REMARK    3  A    between atoms: N_4  and  C_7 
REMARK    4  A    between atoms: C_7  and  C_8 
REMARK       I    between atoms: C_8  and  N_9 
REMARK    5  A    between atoms: N_9  and  C_10 
REMARK    6  A    between atoms: C_16  and  C_17 
REMARK    7  A    between atoms: C_22  and  C_23 
REMARK       I    between atoms: C_23  and  N_24 
REMARK    8  A    between atoms: N_24  and  C_25 
REMARK    9  A    between atoms: C_28  and  O_29 
ROOT
HETATM    1  C   UNL     1      41.222 -15.646   3.479  1.00  0.00     0.093 A 
HETATM    2  S   UNL     1      40.964 -16.395   1.986  1.00  0.00    -0.075 SA
HETATM    3  C   UNL     1      40.444 -14.943   1.280  1.00  0.00    -0.008 A 
HETATM    4  C   UNL     1      40.507 -13.867   2.149  1.00  0.00    -0.026 A 
HETATM    5  C   UNL     1      40.082 -12.502   1.684  1.00  0.00     0.041 C 
HETATM    6  C   UNL     1      39.218 -12.551   0.415  1.00  0.00     0.010 C 
HETATM    7  C   UNL     1      39.829 -13.469  -0.676  1.00  0.00    -0.002 C 
HETATM    8  C   UNL     1      39.926 -14.919  -0.130  1.00  0.00     0.052 C 
HETATM    9  C   UNL     1      40.982 -14.273   3.461  1.00  0.00     0.073 A 
ENDROOT
BRANCH   1  10
HETATM   10  N   UNL     1      41.585 -16.381   4.599  1.00  0.00    -0.319 N 
HETATM   11  C   UNL     1      42.786 -16.350   5.265  1.00  0.00     0.248 C 
HETATM   12  O   UNL     1      43.743 -15.598   5.091  1.00  0.00    -0.271 OA
HETATM   13  H   UNL     1      40.811 -16.941   4.970  1.00  0.00     0.169 HD
BRANCH  11  14
HETATM   14  C   UNL     1      42.866 -17.338   6.429  1.00  0.00     0.335 C 
BRANCH  14  15
HETATM   15  N   UNL     1      43.515 -18.626   5.969  1.00  0.00    -0.067 N 
HETATM   16  H   UNL     1      42.726 -19.235   5.683  1.00  0.00     0.277 HD
HETATM   17  H   UNL     1      43.983 -19.091   6.756  1.00  0.00     0.277 HD
BRANCH  15  18
HETATM   18  C   UNL     1      44.442 -18.462   4.809  1.00  0.00     0.236 C 
BRANCH  18  19
HETATM   19  C   UNL     1      44.326 -19.652   3.851  1.00  0.00     0.003 C 
HETATM   20  C   UNL     1      43.424 -19.270   2.674  1.00  0.00     0.011 C 
HETATM   21  C   UNL     1      43.778 -20.905   4.537  1.00  0.00     0.011 C 
ENDBRANCH  18  19
ENDBRANCH  15  18
ENDBRANCH  14  15
ENDBRANCH  11  14
ENDBRANCH   1  10
BRANCH   9  22
HETATM   22  C   UNL     1      41.189 -13.480   4.695  1.00  0.00     0.259 C 
HETATM   23  N   UNL     1      42.383 -12.795   4.778  1.00  0.00    -0.323 N 
HETATM   24  H   UNL     1      43.075 -12.991   4.070  1.00  0.00     0.169 HD
HETATM   25  O   UNL     1      40.341 -13.528   5.587  1.00  0.00    -0.267 OA
BRANCH  23  26
HETATM   26  C   UNL     1      42.786 -11.890   5.783  1.00  0.00     0.035 A 
HETATM   27  C   UNL     1      42.186 -10.650   6.005  1.00  0.00     0.032 A 
HETATM   28  C   UNL     1      42.667  -9.801   7.008  1.00  0.00     0.039 A 
HETATM   29  C   UNL     1      43.758 -10.168   7.796  1.00  0.00     0.068 A 
HETATM   30  C   UNL     1      44.359 -11.406   7.583  1.00  0.00     0.039 A 
HETATM   31  C   UNL     1      43.874 -12.261   6.583  1.00  0.00     0.032 A 
BRANCH  29  32
HETATM   32  O   UNL     1      44.129  -9.240   8.727  1.00  0.00    -0.356 OA
HETATM   33  C   UNL     1      45.454  -8.731   8.637  1.00  0.00     0.210 C 
ENDBRANCH  29  32
ENDBRANCH  23  26
ENDBRANCH   9  22
BRANCH   7  34
HETATM   34  C   UNL     1      39.089 -13.370  -2.063  1.00  0.00    -0.047 C 
HETATM   35  C   UNL     1      37.697 -12.729  -1.864  1.00  0.00     0.015 C 
HETATM   36  C   UNL     1      39.869 -12.469  -3.044  1.00  0.00     0.015 C 
HETATM   37  C   UNL     1      38.893 -14.747  -2.727  1.00  0.00     0.015 C 
ENDBRANCH   7  34
TORSDOF 9
ENDMDL
MODEL 5
REMARK VINA RESULT:      -8.2      2.402      8.758
REMARK  9 active torsions:
REMARK  status: ('A' for Active; 'I' for Inactive)
REMARK    1  A    between atoms: C_2  and  C_3 
REMARK    2  A    between atoms: C_3  and  N_4 
REMARK    3  A    between atoms: N_4  and  C_7 
REMARK    4  A    between atoms: C_7  and  C_8 
REMARK       I    between atoms: C_8  and  N_9 
REMARK    5  A    between atoms: N_9  and  C_10 
REMARK    6  A    between atoms: C_16  and  C_17 
REMARK    7  A    between atoms: C_22  and  C_23 
REMARK       I    between atoms: C_23  and  N_24 
REMARK    8  A    between atoms: N_24  and  C_25 
REMARK    9  A    between atoms: C_28  and  O_29 
ROOT
HETATM    1  C   UNL     1      42.596 -14.576   3.244  1.00  0.00     0.093 A 
HETATM    2  S   UNL     1      41.809 -15.563   2.121  1.00  0.00    -0.075 SA
HETATM    3  C   UNL     1      41.277 -14.224   1.227  1.00  0.00    -0.008 A 
HETATM    4  C   UNL     1      41.729 -13.019   1.738  1.00  0.00    -0.026 A 
HETATM    5  C   UNL     1      41.349 -11.729   1.065  1.00  0.00     0.041 C 
HETATM    6  C   UNL     1      40.141 -11.882   0.129  1.00  0.00     0.010 C 
HETATM    7  C   UNL     1      40.277 -13.112  -0.809  1.00  0.00    -0.002 C 
HETATM    8  C   UNL     1      40.361 -14.403   0.049  1.00  0.00     0.052 C 
HETATM    9  C   UNL     1      42.529 -13.218   2.934  1.00  0.00     0.073 A 
ENDROOT
BRANCH   1  10
HETATM   10  N   UNL     1      43.193 -15.110   4.378  1.00  0.00    -0.319 N 
HETATM   11  C   UNL     1      42.571 -15.547   5.522  1.00  0.00     0.248 C 
HETATM   12  O   UNL     1      41.368 -15.665   5.747  1.00  0.00    -0.271 OA
HETATM   13  H   UNL     1      44.204 -15.235   4.267  1.00  0.00     0.169 HD
BRANCH  11  14
HETATM   14  C   UNL     1      43.543 -16.024   6.602  1.00  0.00     0.335 C 
BRANCH  14  15
HETATM   15  N   UNL     1      44.406 -17.143   6.063  1.00  0.00    -0.067 N 
HETATM   16  H   UNL     1      45.110 -17.318   6.803  1.00  0.00     0.277 HD
HETATM   17  H   UNL     1      44.918 -16.830   5.229  1.00  0.00     0.277 HD
BRANCH  15  18
HETATM   18  C   UNL     1      43.664 -18.412   5.795  1.00  0.00     0.236 C 
BRANCH  18  19
HETATM   19  C   UNL     1      44.329 -19.199   4.660  1.00  0.00     0.003 C 
HETATM   20  C   UNL     1      43.817 -18.680   3.314  1.00  0.00     0.011 C 
HETATM   21  C   UNL     1      44.076 -20.704   4.766  1.00  0.00     0.011 C 
ENDBRANCH  18  19
ENDBRANCH  15  18
ENDBRANCH  14  15
ENDBRANCH  11  14
ENDBRANCH   1  10
BRANCH   9  22
HETATM   22  C   UNL     1      43.195 -12.234   3.818  1.00  0.00     0.259 C 
HETATM   23  N   UNL     1      42.681 -12.122   5.093  1.00  0.00    -0.323 N 
HETATM   24  H   UNL     1      41.818 -12.608   5.284  1.00  0.00     0.169 HD
HETATM   25  O   UNL     1      44.101 -11.536   3.361  1.00  0.00    -0.267 OA
BRANCH  23  26
HETATM   26  C   UNL     1      43.187 -11.348   6.158  1.00  0.00     0.035 A 
HETATM   27  C   UNL     1      44.304 -11.697   6.918  1.00  0.00     0.032 A 
HETATM   28  C   UNL     1      44.723 -10.884   7.976  1.00  0.00     0.039 A 
HETATM   29  C   UNL     1      44.030  -9.718   8.302  1.00  0.00     0.068 A 
HETATM   30  C   UNL     1      42.916  -9.360   7.545  1.00  0.00     0.039 A 
HETATM   31  C   UNL     1      42.500 -10.171   6.480  1.00  0.00     0.032 A 
BRANCH  29  32
HETATM   32  O   UNL     1      44.540  -9.027   9.364  1.00  0.00    -0.356 OA
HETATM   33  C   UNL     1      45.241  -9.780  10.346  1.00  0.00     0.210 C 
ENDBRANCH  29  32
ENDBRANCH  23  26
ENDBRANCH   9  22
BRANCH   7  34
HETATM   34  C   UNL     1      39.167 -13.172  -1.925  1.00  0.00    -0.047 C 
HETATM   35  C   UNL     1      39.633 -12.376  -3.164  1.00  0.00     0.015 C 
HETATM   36  C   UNL     1      38.921 -14.626  -2.383  1.00  0.00     0.015 C 
HETATM   37  C   UNL     1      37.823 -12.584  -1.452  1.00  0.00     0.015 C 
ENDBRANCH   7  34
TORSDOF 9
ENDMDL
MODEL 6
REMARK VINA RESULT:      -7.9      1.576      2.382
REMARK  9 active torsions:
REMARK  status: ('A' for Active; 'I' for Inactive)
REMARK    1  A    between atoms: C_2  and  C_3 
REMARK    2  A    between atoms: C_3  and  N_4 
REMARK    3  A    between atoms: N_4  and  C_7 
REMARK    4  A    between atoms: C_7  and  C_8 
REMARK       I    between atoms: C_8  and  N_9 
REMARK    5  A    between atoms: N_9  and  C_10 
REMARK    6  A    between atoms: C_16  and  C_17 
REMARK    7  A    between atoms: C_22  and  C_23 
REMARK       I    between atoms: C_23  and  N_24 
REMARK    8  A    between atoms: N_24  and  C_25 
REMARK    9  A    between atoms: C_28  and  O_29 
ROOT
HETATM    1  C   UNL     1      41.474 -11.794   3.893  1.00  0.00     0.093 A 
HETATM    2  S   UNL     1      41.114 -10.385   4.753  1.00  0.00    -0.075 SA
HETATM    3  C   UNL     1      42.370 -10.667   5.858  1.00  0.00    -0.008 A 
HETATM    4  C   UNL     1      43.107 -11.801   5.561  1.00  0.00    -0.026 A 
HETATM    5  C   UNL     1      44.260 -12.197   6.440  1.00  0.00     0.041 C 
HETATM    6  C   UNL     1      44.213 -11.523   7.819  1.00  0.00     0.010 C 
HETATM    7  C   UNL     1      43.942  -9.998   7.718  1.00  0.00    -0.002 C 
HETATM    8  C   UNL     1      42.562  -9.766   7.046  1.00  0.00     0.052 C 
HETATM    9  C   UNL     1      42.588 -12.474   4.382  1.00  0.00     0.073 A 
ENDROOT
BRANCH   1  10
HETATM   10  N   UNL     1      40.674 -12.219   2.841  1.00  0.00    -0.319 N 
HETATM   11  C   UNL     1      40.728 -11.807   1.532  1.00  0.00     0.248 C 
HETATM   12  O   UNL     1      41.551 -11.073   0.989  1.00  0.00    -0.271 OA
HETATM   13  H   UNL     1      40.038 -12.975   3.112  1.00  0.00     0.169 HD
BRANCH  11  14
HETATM   14  C   UNL     1      39.654 -12.441   0.647  1.00  0.00     0.335 C 
BRANCH  14  15
HETATM   15  N   UNL     1      38.282 -12.172   1.227  1.00  0.00    -0.067 N 
HETATM   16  H   UNL     1      38.460 -11.651   2.104  1.00  0.00     0.277 HD
HETATM   17  H   UNL     1      37.826 -13.054   1.488  1.00  0.00     0.277 HD
BRANCH  15  18
HETATM   18  C   UNL     1      37.399 -11.348   0.348  1.00  0.00     0.236 C 
BRANCH  18  19
HETATM   19  C   UNL     1      36.992 -10.050   1.054  1.00  0.00     0.003 C 
HETATM   20  C   UNL     1      35.726  -9.492   0.400  1.00  0.00     0.011 C 
HETATM   21  C   UNL     1      38.099  -8.995   1.023  1.00  0.00     0.011 C 
ENDBRANCH  18  19
ENDBRANCH  15  18
ENDBRANCH  14  15
ENDBRANCH  11  14
ENDBRANCH   1  10
BRANCH   9  22
HETATM   22  C   UNL     1      43.037 -13.717   3.712  1.00  0.00     0.259 C 
HETATM   23  N   UNL     1      42.902 -14.879   4.441  1.00  0.00    -0.323 N 
HETATM   24  H   UNL     1      42.641 -14.784   5.411  1.00  0.00     0.169 HD
HETATM   25  O   UNL     1      43.559 -13.641   2.598  1.00  0.00    -0.267 OA
BRANCH  23  26
HETATM   26  C   UNL     1      43.149 -16.199   4.008  1.00  0.00     0.035 A 
HETATM   27  C   UNL     1      43.982 -17.098   4.673  1.00  0.00     0.032 A 
HETATM   28  C   UNL     1      44.193 -18.382   4.157  1.00  0.00     0.039 A 
HETATM   29  C   UNL     1      43.588 -18.785   2.967  1.00  0.00     0.068 A 
HETATM   30  C   UNL     1      42.750 -17.894   2.300  1.00  0.00     0.039 A 
HETATM   31  C   UNL     1      42.533 -16.609   2.819  1.00  0.00     0.032 A 
BRANCH  29  32
HETATM   32  O   UNL     1      43.890 -20.057   2.574  1.00  0.00    -0.356 OA
HETATM   33  C   UNL     1      43.923 -21.054   3.588  1.00  0.00     0.210 C 
ENDBRANCH  29  32
ENDBRANCH  23  26
ENDBRANCH   9  22
BRANCH   7  34
HETATM   34  C   UNL     1      44.105  -9.243   9.090  1.00  0.00    -0.047 C 
HETATM   35  C   UNL     1      42.964  -9.651  10.048  1.00  0.00     0.015 C 
HETATM   36  C   UNL     1      45.435  -9.622   9.777  1.00  0.00     0.015 C 
HETATM   37  C   UNL     1      44.070  -7.710   8.928  1.00  0.00     0.015 C 
ENDBRANCH   7  34
TORSDOF 9
ENDMDL
MODEL 7
REMARK VINA RESULT:      -7.8      2.994      9.495
REMARK  9 active torsions:
REMARK  status: ('A' for Active; 'I' for Inactive)
REMARK    1  A    between atoms: C_2  and  C_3 
REMARK    2  A    between atoms: C_3  and  N_4 
REMARK    3  A    between atoms: N_4  and  C_7 
REMARK    4  A    between atoms: C_7  and  C_8 
REMARK       I    between atoms: C_8  and  N_9 
REMARK    5  A    between atoms: N_9  and  C_10 
REMARK    6  A    between atoms: C_16  and  C_17 
REMARK    7  A    between atoms: C_22  and  C_23 
REMARK       I    between atoms: C_23  and  N_24 
REMARK    8  A    between atoms: N_24  and  C_25 
REMARK    9  A    between atoms: C_28  and  O_29 
ROOT
HETATM    1  C   UNL     1      43.334 -14.292   5.892  1.00  0.00     0.093 A 
HETATM    2  S   UNL     1      43.997 -15.782   6.332  1.00  0.00    -0.075 SA
HETATM    3  C   UNL     1      43.587 -16.474   4.839  1.00  0.00    -0.008 A 
HETATM    4  C   UNL     1      42.991 -15.573   3.972  1.00  0.00    -0.026 A 
HETATM    5  C   UNL     1      42.564 -16.022   2.602  1.00  0.00     0.041 C 
HETATM    6  C   UNL     1      42.454 -17.549   2.486  1.00  0.00     0.010 C 
HETATM    7  C   UNL     1      43.697 -18.273   3.070  1.00  0.00    -0.002 C 
HETATM    8  C   UNL     1      43.824 -17.935   4.579  1.00  0.00     0.052 C 
HETATM    9  C   UNL     1      42.846 -14.264   4.587  1.00  0.00     0.073 A 
ENDROOT
BRANCH   1  10
HETATM   10  N   UNL     1      43.258 -13.243   6.798  1.00  0.00    -0.319 N 
HETATM   11  C   UNL     1      44.217 -12.296   7.062  1.00  0.00     0.248 C 
HETATM   12  O   UNL     1      45.287 -12.103   6.487  1.00  0.00    -0.271 OA
HETATM   13  H   UNL     1      42.336 -13.172   7.240  1.00  0.00     0.169 HD
BRANCH  11  14
HETATM   14  C   UNL     1      43.822 -11.316   8.167  1.00  0.00     0.335 C 
BRANCH  14  15
HETATM   15  N   UNL     1      44.992 -10.419   8.506  1.00  0.00    -0.067 N 
HETATM   16  H   UNL     1      44.783  -9.519   8.039  1.00  0.00     0.277 HD
HETATM   17  H   UNL     1      45.855 -10.783   8.085  1.00  0.00     0.277 HD
BRANCH  15  18
HETATM   18  C   UNL     1      45.168 -10.172   9.969  1.00  0.00     0.236 C 
BRANCH  18  19
HETATM   19  C   UNL     1      43.808 -10.063  10.667  1.00  0.00     0.003 C 
HETATM   20  C   UNL     1      43.593  -8.623  11.138  1.00  0.00     0.011 C 
HETATM   21  C   UNL     1      43.680 -11.021  11.853  1.00  0.00     0.011 C 
ENDBRANCH  18  19
ENDBRANCH  15  18
ENDBRANCH  14  15
ENDBRANCH  11  14
ENDBRANCH   1  10
BRANCH   9  22
HETATM   22  C   UNL     1      42.257 -13.014   4.054  1.00  0.00     0.259 C 
HETATM   23  N   UNL     1      40.902 -13.045   3.802  1.00  0.00    -0.323 N 
HETATM   24  H   UNL     1      40.443 -13.942   3.867  1.00  0.00     0.169 HD
HETATM   25  O   UNL     1      42.998 -12.063   3.803  1.00  0.00    -0.267 OA
BRANCH  23  26
HETATM   26  C   UNL     1      40.078 -11.973   3.398  1.00  0.00     0.035 A 
HETATM   27  C   UNL     1      39.410 -11.123   4.280  1.00  0.00     0.032 A 
HETATM   28  C   UNL     1      38.591 -10.100   3.792  1.00  0.00     0.039 A 
HETATM   29  C   UNL     1      38.414  -9.914   2.421  1.00  0.00     0.068 A 
HETATM   30  C   UNL     1      39.082 -10.756   1.534  1.00  0.00     0.039 A 
HETATM   31  C   UNL     1      39.909 -11.778   2.021  1.00  0.00     0.032 A 
BRANCH  29  32
HETATM   32  O   UNL     1      37.579  -8.887   2.085  1.00  0.00    -0.356 OA
HETATM   33  C   UNL     1      36.641  -9.133   1.044  1.00  0.00     0.210 C 
ENDBRANCH  29  32
ENDBRANCH  23  26
ENDBRANCH   9  22
BRANCH   7  34
HETATM   34  C   UNL     1      43.718 -19.819   2.770  1.00  0.00    -0.047 C 
HETATM   35  C   UNL     1      42.413 -20.226   2.049  1.00  0.00     0.015 C 
HETATM   36  C   UNL     1      44.889 -20.186   1.834  1.00  0.00     0.015 C 
HETATM   37  C   UNL     1      43.843 -20.667   4.051  1.00  0.00     0.015 C 
ENDBRANCH   7  34
TORSDOF 9
ENDMDL
MODEL 8
REMARK VINA RESULT:      -7.6      3.036      9.305
REMARK  9 active torsions:
REMARK  status: ('A' for Active; 'I' for Inactive)
REMARK    1  A    between atoms: C_2  and  C_3 
REMARK    2  A    between atoms: C_3  and  N_4 
REMARK    3  A    between atoms: N_4  and  C_7 
REMARK    4  A    between atoms: C_7  and  C_8 
REMARK       I    between atoms: C_8  and  N_9 
REMARK    5  A    between atoms: N_9  and  C_10 
REMARK    6  A    between atoms: C_16  and  C_17 
REMARK    7  A    between atoms: C_22  and  C_23 
REMARK       I    between atoms: C_23  and  N_24 
REMARK    8  A    between atoms: N_24  and  C_25 
REMARK    9  A    between atoms: C_28  and  O_29 
ROOT
HETATM    1  C   UNL     1      40.859 -14.861   3.977  1.00  0.00     0.093 A 
HETATM    2  S   UNL     1      41.022 -15.700   2.519  1.00  0.00    -0.075 SA
HETATM    3  C   UNL     1      40.274 -14.452   1.647  1.00  0.00    -0.008 A 
HETATM    4  C   UNL     1      39.938 -13.367   2.439  1.00  0.00    -0.026 A 
HETATM    5  C   UNL     1      39.265 -12.171   1.825  1.00  0.00     0.041 C 
HETATM    6  C   UNL     1      38.642 -12.479   0.455  1.00  0.00     0.010 C 
HETATM    7  C   UNL     1      39.619 -13.248  -0.474  1.00  0.00    -0.002 C 
HETATM    8  C   UNL     1      39.986 -14.607   0.181  1.00  0.00     0.052 C 
HETATM    9  C   UNL     1      40.294 -13.596   3.829  1.00  0.00     0.073 A 
ENDROOT
BRANCH   1  10
HETATM   10  N   UNL     1      41.218 -15.442   5.185  1.00  0.00    -0.319 N 
HETATM   11  C   UNL     1      42.384 -15.256   5.888  1.00  0.00     0.248 C 
HETATM   12  O   UNL     1      43.298 -14.464   5.666  1.00  0.00    -0.271 OA
HETATM   13  H   UNL     1      40.465 -16.009   5.587  1.00  0.00     0.169 HD
BRANCH  11  14
HETATM   14  C   UNL     1      42.475 -16.103   7.157  1.00  0.00     0.335 C 
BRANCH  14  15
HETATM   15  N   UNL     1      43.599 -17.107   7.029  1.00  0.00    -0.067 N 
HETATM   16  H   UNL     1      43.897 -17.301   8.003  1.00  0.00     0.277 HD
HETATM   17  H   UNL     1      44.401 -16.686   6.547  1.00  0.00     0.277 HD
BRANCH  15  18
HETATM   18  C   UNL     1      43.197 -18.394   6.385  1.00  0.00     0.236 C 
BRANCH  18  19
HETATM   19  C   UNL     1      44.165 -18.759   5.254  1.00  0.00     0.003 C 
HETATM   20  C   UNL     1      43.727 -18.057   3.966  1.00  0.00     0.011 C 
HETATM   21  C   UNL     1      44.248 -20.268   5.019  1.00  0.00     0.011 C 
ENDBRANCH  18  19
ENDBRANCH  15  18
ENDBRANCH  14  15
ENDBRANCH  11  14
ENDBRANCH   1  10
BRANCH   9  22
HETATM   22  C   UNL     1      40.110 -12.735   5.021  1.00  0.00     0.259 C 
HETATM   23  N   UNL     1      40.810 -11.547   5.021  1.00  0.00    -0.323 N 
HETATM   24  H   UNL     1      41.491 -11.415   4.288  1.00  0.00     0.169 HD
HETATM   25  O   UNL     1      39.418 -13.145   5.954  1.00  0.00    -0.267 OA
BRANCH  23  26
HETATM   26  C   UNL     1      40.735 -10.506   5.971  1.00  0.00     0.035 A 
HETATM   27  C   UNL     1      41.741 -10.211   6.891  1.00  0.00     0.032 A 
HETATM   28  C   UNL     1      41.573  -9.176   7.817  1.00  0.00     0.039 A 
HETATM   29  C   UNL     1      40.396  -8.428   7.850  1.00  0.00     0.068 A 
HETATM   30  C   UNL     1      39.388  -8.714   6.931  1.00  0.00     0.039 A 
HETATM   31  C   UNL     1      39.559  -9.746   5.998  1.00  0.00     0.032 A 
BRANCH  29  32
HETATM   32  O   UNL     1      40.361  -7.459   8.811  1.00  0.00    -0.356 OA
HETATM   33  C   UNL     1      40.523  -7.883  10.159  1.00  0.00     0.210 C 
ENDBRANCH  29  32
ENDBRANCH  23  26
ENDBRANCH   9  22
BRANCH   7  34
HETATM   34  C   UNL     1      39.096 -13.386  -1.953  1.00  0.00    -0.047 C 
HETATM   35  C   UNL     1      40.111 -12.744  -2.925  1.00  0.00     0.015 C 
HETATM   36  C   UNL     1      38.956 -14.870  -2.354  1.00  0.00     0.015 C 
HETATM   37  C   UNL     1      37.731 -12.701  -2.162  1.00  0.00     0.015 C 
ENDBRANCH   7  34
TORSDOF 9
ENDMDL
MODEL 9
REMARK VINA RESULT:      -7.6     16.816     20.157
REMARK  9 active torsions:
REMARK  status: ('A' for Active; 'I' for Inactive)
REMARK    1  A    between atoms: C_2  and  C_3 
REMARK    2  A    between atoms: C_3  and  N_4 
REMARK    3  A    between atoms: N_4  and  C_7 
REMARK    4  A    between atoms: C_7  and  C_8 
REMARK       I    between atoms: C_8  and  N_9 
REMARK    5  A    between atoms: N_9  and  C_10 
REMARK    6  A    between atoms: C_16  and  C_17 
REMARK    7  A    between atoms: C_22  and  C_23 
REMARK       I    between atoms: C_23  and  N_24 
REMARK    8  A    between atoms: N_24  and  C_25 
REMARK    9  A    between atoms: C_28  and  O_29 
ROOT
HETATM    1  C   UNL     1      45.716 -29.485  -0.769  1.00  0.00     0.093 A 
HETATM    2  S   UNL     1      46.297 -29.076  -2.302  1.00  0.00    -0.075 SA
HETATM    3  C   UNL     1      45.416 -30.326  -3.035  1.00  0.00    -0.008 A 
HETATM    4  C   UNL     1      44.634 -31.034  -2.138  1.00  0.00    -0.026 A 
HETATM    5  C   UNL     1      43.786 -32.178  -2.622  1.00  0.00     0.041 C 
HETATM    6  C   UNL     1      44.224 -32.698  -3.999  1.00  0.00     0.010 C 
HETATM    7  C   UNL     1      44.440 -31.548  -5.019  1.00  0.00    -0.002 C 
HETATM    8  C   UNL     1      45.566 -30.612  -4.503  1.00  0.00     0.052 C 
HETATM    9  C   UNL     1      44.796 -30.532  -0.784  1.00  0.00     0.073 A 
ENDROOT
BRANCH   1  10
HETATM   10  N   UNL     1      46.183 -28.845   0.371  1.00  0.00    -0.319 N 
HETATM   11  C   UNL     1      47.388 -29.035   1.002  1.00  0.00     0.248 C 
HETATM   12  O   UNL     1      48.347 -29.714   0.642  1.00  0.00    -0.271 OA
HETATM   13  H   UNL     1      45.547 -28.110   0.696  1.00  0.00     0.169 HD
BRANCH  11  14
HETATM   14  C   UNL     1      47.551 -28.201   2.273  1.00  0.00     0.335 C 
BRANCH  14  15
HETATM   15  N   UNL     1      48.949 -28.370   2.827  1.00  0.00    -0.067 N 
HETATM   16  H   UNL     1      49.233 -27.421   3.130  1.00  0.00     0.277 HD
HETATM   17  H   UNL     1      49.596 -28.655   2.083  1.00  0.00     0.277 HD
BRANCH  15  18
HETATM   18  C   UNL     1      49.033 -29.294   3.998  1.00  0.00     0.236 C 
BRANCH  18  19
HETATM   19  C   UNL     1      50.049 -30.411   3.735  1.00  0.00     0.003 C 
HETATM   20  C   UNL     1      50.756 -30.773   5.043  1.00  0.00     0.011 C 
HETATM   21  C   UNL     1      51.084 -30.022   2.678  1.00  0.00     0.011 C 
ENDBRANCH  18  19
ENDBRANCH  15  18
ENDBRANCH  14  15
ENDBRANCH  11  14
ENDBRANCH   1  10
BRANCH   9  22
HETATM   22  C   UNL     1      44.184 -30.984   0.487  1.00  0.00     0.259 C 
HETATM   23  N   UNL     1      42.937 -30.470   0.772  1.00  0.00    -0.323 N 
HETATM   24  H   UNL     1      42.597 -29.731   0.176  1.00  0.00     0.169 HD
HETATM   25  O   UNL     1      44.831 -31.718   1.235  1.00  0.00    -0.267 OA
BRANCH  23  26
HETATM   26  C   UNL     1      42.093 -30.812   1.850  1.00  0.00     0.035 A 
HETATM   27  C   UNL     1      41.124 -31.815   1.799  1.00  0.00     0.032 A 
HETATM   28  C   UNL     1      40.311 -32.070   2.908  1.00  0.00     0.039 A 
HETATM   29  C   UNL     1      40.440 -31.325   4.080  1.00  0.00     0.068 A 
HETATM   30  C   UNL     1      41.409 -30.325   4.140  1.00  0.00     0.039 A 
HETATM   31  C   UNL     1      42.229 -30.073   3.032  1.00  0.00     0.032 A 
BRANCH  29  32
HETATM   32  O   UNL     1      39.575 -31.672   5.077  1.00  0.00    -0.356 OA
HETATM   33  C   UNL     1      38.817 -32.861   4.888  1.00  0.00     0.210 C 
ENDBRANCH  29  32
ENDBRANCH  23  26
ENDBRANCH   9  22
BRANCH   7  34
HETATM   34  C   UNL     1      44.673 -32.055  -6.492  1.00  0.00    -0.047 C 
HETATM   35  C   UNL     1      46.187 -32.072  -6.802  1.00  0.00     0.015 C 
HETATM   36  C   UNL     1      44.154 -33.498  -6.669  1.00  0.00     0.015 C 
HETATM   37  C   UNL     1      43.978 -31.162  -7.540  1.00  0.00     0.015 C 
ENDBRANCH   7  34
TORSDOF 9
ENDMDL
MODEL 10
REMARK VINA RESULT:      -7.6      2.447      9.249
REMARK  9 active torsions:
REMARK  status: ('A' for Active; 'I' for Inactive)
REMARK    1  A    between atoms: C_2  and  C_3 
REMARK    2  A    between atoms: C_3  and  N_4 
REMARK    3  A    between atoms: N_4  and  C_7 
REMARK    4  A    between atoms: C_7  and  C_8 
REMARK       I    between atoms: C_8  and  N_9 
REMARK    5  A    between atoms: N_9  and  C_10 
REMARK    6  A    between atoms: C_16  and  C_17 
REMARK    7  A    between atoms: C_22  and  C_23 
REMARK       I    between atoms: C_23  and  N_24 
REMARK    8  A    between atoms: N_24  and  C_25 
REMARK    9  A    between atoms: C_28  and  O_29 
ROOT
HETATM    1  C   UNL     1      42.854 -13.777   5.010  1.00  0.00     0.093 A 
HETATM    2  S   UNL     1      43.199 -15.230   5.801  1.00  0.00    -0.075 SA
HETATM    3  C   UNL     1      43.240 -16.086   4.338  1.00  0.00    -0.008 A 
HETATM    4  C   UNL     1      43.043 -15.276   3.232  1.00  0.00    -0.026 A 
HETATM    5  C   UNL     1      43.049 -15.875   1.853  1.00  0.00     0.041 C 
HETATM    6  C   UNL     1      42.847 -17.398   1.868  1.00  0.00     0.010 C 
HETATM    7  C   UNL     1      43.760 -18.102   2.907  1.00  0.00    -0.002 C 
HETATM    8  C   UNL     1      43.417 -17.579   4.328  1.00  0.00     0.052 C 
HETATM    9  C   UNL     1      42.824 -13.894   3.622  1.00  0.00     0.073 A 
ENDROOT
BRANCH   1  10
HETATM   10  N   UNL     1      42.580 -12.617   5.723  1.00  0.00    -0.319 N 
HETATM   11  C   UNL     1      43.484 -11.717   6.232  1.00  0.00     0.248 C 
HETATM   12  O   UNL     1      44.703 -11.678   6.076  1.00  0.00    -0.271 OA
HETATM   13  H   UNL     1      41.577 -12.423   5.786  1.00  0.00     0.169 HD
BRANCH  11  14
HETATM   14  C   UNL     1      42.836 -10.577   7.018  1.00  0.00     0.335 C 
BRANCH  14  15
HETATM   15  N   UNL     1      43.220 -10.672   8.479  1.00  0.00    -0.067 N 
HETATM   16  H   UNL     1      44.185 -11.051   8.477  1.00  0.00     0.277 HD
HETATM   17  H   UNL     1      42.628 -11.359   8.960  1.00  0.00     0.277 HD
BRANCH  15  18
HETATM   18  C   UNL     1      43.219  -9.362   9.196  1.00  0.00     0.236 C 
BRANCH  18  19
HETATM   19  C   UNL     1      44.630  -9.007   9.678  1.00  0.00     0.003 C 
HETATM   20  C   UNL     1      45.524  -8.727   8.467  1.00  0.00     0.011 C 
HETATM   21  C   UNL     1      45.251 -10.111  10.535  1.00  0.00     0.011 C 
ENDBRANCH  18  19
ENDBRANCH  15  18
ENDBRANCH  14  15
ENDBRANCH  11  14
ENDBRANCH   1  10
BRANCH   9  22
HETATM   22  C   UNL     1      42.556 -12.695   2.794  1.00  0.00     0.259 C 
HETATM   23  N   UNL     1      41.419 -12.740   2.016  1.00  0.00    -0.323 N 
HETATM   24  H   UNL     1      40.935 -13.624   1.963  1.00  0.00     0.169 HD
HETATM   25  O   UNL     1      43.377 -11.776   2.789  1.00  0.00    -0.267 OA
BRANCH  23  26
HETATM   26  C   UNL     1      40.877 -11.705   1.225  1.00  0.00     0.035 A 
HETATM   27  C   UNL     1      40.196 -10.601   1.739  1.00  0.00     0.032 A 
HETATM   28  C   UNL     1      39.667  -9.633   0.879  1.00  0.00     0.039 A 
HETATM   29  C   UNL     1      39.797  -9.754  -0.505  1.00  0.00     0.068 A 
HETATM   30  C   UNL     1      40.480 -10.851  -1.025  1.00  0.00     0.039 A 
HETATM   31  C   UNL     1      41.017 -11.819  -0.164  1.00  0.00     0.032 A 
BRANCH  29  32
HETATM   32  O   UNL     1      39.223  -8.745  -1.224  1.00  0.00    -0.356 OA
HETATM   33  C   UNL     1      39.114  -7.479  -0.584  1.00  0.00     0.210 C 
ENDBRANCH  29  32
ENDBRANCH  23  26
ENDBRANCH   9  22
BRANCH   7  34
HETATM   34  C   UNL     1      43.739 -19.672   2.796  1.00  0.00    -0.047 C 
HETATM   35  C   UNL     1      44.921 -20.148   1.923  1.00  0.00     0.015 C 
HETATM   36  C   UNL     1      43.904 -20.328   4.184  1.00  0.00     0.015 C 
HETATM   37  C   UNL     1      42.434 -20.201   2.167  1.00  0.00     0.015 C 
ENDBRANCH   7  34
TORSDOF 9
ENDMDL
