MODEL 1
REMARK VINA RESULT:      -9.0      0.000      0.000
REMARK  3 active torsions:
REMARK  status: ('A' for Active; 'I' for Inactive)
REMARK    1  A    between atoms: C_4  and  N_5 
REMARK       I    between atoms: N_5  and  C_6 
REMARK    2  A    between atoms: C_6  and  C_8 
REMARK    3  A    between atoms: C_21  and  C_22 
ROOT
HETATM    1  F   UNL     1      39.149 -10.794   0.372  1.00  0.00    -0.205 F 
HETATM    2  C   UNL     1      39.384 -12.049  -0.043  1.00  0.00     0.132 A 
HETATM    3  C   UNL     1      39.942 -12.938   0.882  1.00  0.00     0.072 A 
HETATM    4  C   UNL     1      40.203 -14.260   0.524  1.00  0.00     0.040 A 
HETATM    5  C   UNL     1      39.891 -14.671  -0.773  1.00  0.00     0.072 A 
HETATM    6  C   UNL     1      39.325 -13.774  -1.684  1.00  0.00     0.132 A 
HETATM    7  F   UNL     1      39.047 -14.236  -2.914  1.00  0.00    -0.205 F 
HETATM    8  C   UNL     1      39.062 -12.444  -1.345  1.00  0.00     0.054 A 
ENDROOT
BRANCH   4   9
HETATM    9  N   UNL     1      40.762 -15.224   1.391  1.00  0.00    -0.327 N 
HETATM   10  C   UNL     1      42.072 -15.286   1.846  1.00  0.00     0.228 C 
HETATM   11  O   UNL     1      42.968 -14.505   1.544  1.00  0.00    -0.273 OA
HETATM   12  H   UNL     1      40.132 -15.953   1.707  1.00  0.00     0.169 HD
BRANCH  10  13
HETATM   13  C   UNL     1      42.317 -16.456   2.787  1.00  0.00     0.107 C 
HETATM   14  C   UNL     1      43.339 -16.101   3.859  1.00  0.00     0.190 C 
HETATM   15  O   UNL     1      43.429 -17.126   4.854  1.00  0.00    -0.350 OA
HETATM   16  C   UNL     1      43.598 -18.387   4.344  1.00  0.00     0.075 A 
HETATM   17  C   UNL     1      44.031 -19.362   5.242  1.00  0.00     0.037 A 
HETATM   18  C   UNL     1      43.326 -18.723   3.012  1.00  0.00    -0.024 A 
HETATM   19  C   UNL     1      44.233 -20.672   4.808  1.00  0.00     0.003 A 
HETATM   20  C   UNL     1      43.996 -21.008   3.477  1.00  0.00     0.001 A 
HETATM   21  C   UNL     1      43.544 -20.038   2.581  1.00  0.00     0.010 A 
HETATM   22  C   UNL     1      42.840 -17.684   2.040  1.00  0.00     0.057 C 
ENDBRANCH  10  13
ENDBRANCH   4   9
BRANCH   8  23
HETATM   23  C   UNL     1      38.471 -11.532  -2.310  1.00  0.00     0.016 A 
HETATM   24  C   UNL     1      39.051 -10.491  -3.076  1.00  0.00     0.152 A 
HETATM   25  N   UNL     1      38.165  -9.865  -3.857  1.00  0.00    -0.187 NA
HETATM   26  N   UNL     1      37.012 -10.497  -3.591  1.00  0.00    -0.289 N 
HETATM   27  H   UNL     1      36.173 -10.193  -4.075  1.00  0.00     0.188 HD
HETATM   28  C   UNL     1      37.139 -11.494  -2.667  1.00  0.00     0.123 A 
ENDBRANCH   8  23
TORSDOF 3
ENDMDL
MODEL 2
REMARK VINA RESULT:      -8.5      6.110      8.241
REMARK  3 active torsions:
REMARK  status: ('A' for Active; 'I' for Inactive)
REMARK    1  A    between atoms: C_4  and  N_5 
REMARK       I    between atoms: N_5  and  C_6 
REMARK    2  A    between atoms: C_6  and  C_8 
REMARK    3  A    between atoms: C_21  and  C_22 
ROOT
HETATM    1  F   UNL     1      41.127  -9.946   6.873  1.00  0.00    -0.205 F 
HETATM    2  C   UNL     1      42.244 -10.684   6.982  1.00  0.00     0.132 A 
HETATM    3  C   UNL     1      42.317 -11.854   6.218  1.00  0.00     0.072 A 
HETATM    4  C   UNL     1      43.450 -12.664   6.274  1.00  0.00     0.040 A 
HETATM    5  C   UNL     1      44.504 -12.277   7.103  1.00  0.00     0.072 A 
HETATM    6  C   UNL     1      44.421 -11.100   7.853  1.00  0.00     0.132 A 
HETATM    7  F   UNL     1      45.472 -10.786   8.628  1.00  0.00    -0.205 F 
HETATM    8  C   UNL     1      43.291 -10.279   7.815  1.00  0.00     0.054 A 
ENDROOT
BRANCH   4   9
HETATM    9  N   UNL     1      43.611 -13.859   5.539  1.00  0.00    -0.327 N 
HETATM   10  C   UNL     1      43.376 -15.154   5.979  1.00  0.00     0.228 C 
HETATM   11  O   UNL     1      43.001 -15.467   7.103  1.00  0.00    -0.273 OA
HETATM   12  H   UNL     1      43.942 -13.751   4.587  1.00  0.00     0.169 HD
BRANCH  10  13
HETATM   13  C   UNL     1      43.639 -16.200   4.905  1.00  0.00     0.107 C 
HETATM   14  C   UNL     1      42.536 -16.204   3.854  1.00  0.00     0.190 C 
HETATM   15  O   UNL     1      42.874 -17.047   2.747  1.00  0.00    -0.350 OA
HETATM   16  C   UNL     1      43.281 -18.306   3.107  1.00  0.00     0.075 A 
HETATM   17  C   UNL     1      43.290 -19.264   2.094  1.00  0.00     0.037 A 
HETATM   18  C   UNL     1      43.705 -18.638   4.400  1.00  0.00    -0.024 A 
HETATM   19  C   UNL     1      43.686 -20.571   2.371  1.00  0.00     0.003 A 
HETATM   20  C   UNL     1      44.079 -20.920   3.662  1.00  0.00     0.001 A 
HETATM   21  C   UNL     1      44.088 -19.958   4.674  1.00  0.00     0.010 A 
HETATM   22  C   UNL     1      43.718 -17.609   5.495  1.00  0.00     0.057 C 
ENDBRANCH  10  13
ENDBRANCH   4   9
BRANCH   8  23
HETATM   23  C   UNL     1      43.230  -9.059   8.603  1.00  0.00     0.016 A 
HETATM   24  C   UNL     1      43.774  -7.773   8.363  1.00  0.00     0.152 A 
HETATM   25  N   UNL     1      43.502  -6.904   9.340  1.00  0.00    -0.187 NA
HETATM   26  N   UNL     1      42.788  -7.628  10.215  1.00  0.00    -0.289 N 
HETATM   27  H   UNL     1      42.459  -7.174  11.061  1.00  0.00     0.188 HD
HETATM   28  C   UNL     1      42.606  -8.923   9.826  1.00  0.00     0.123 A 
ENDBRANCH   8  23
TORSDOF 3
ENDMDL
MODEL 3
REMARK VINA RESULT:      -8.3      1.235      2.226
REMARK  3 active torsions:
REMARK  status: ('A' for Active; 'I' for Inactive)
REMARK    1  A    between atoms: C_4  and  N_5 
REMARK       I    between atoms: N_5  and  C_6 
REMARK    2  A    between atoms: C_6  and  C_8 
REMARK    3  A    between atoms: C_21  and  C_22 
ROOT
HETATM    1  F   UNL     1      38.153 -13.898  -3.164  1.00  0.00    -0.205 F 
HETATM    2  C   UNL     1      38.672 -13.381  -2.038  1.00  0.00     0.132 A 
HETATM    3  C   UNL     1      39.266 -14.273  -1.138  1.00  0.00     0.072 A 
HETATM    4  C   UNL     1      39.835 -13.807   0.046  1.00  0.00     0.040 A 
HETATM    5  C   UNL     1      39.800 -12.436   0.306  1.00  0.00     0.072 A 
HETATM    6  C   UNL     1      39.212 -11.556  -0.607  1.00  0.00     0.132 A 
HETATM    7  F   UNL     1      39.215 -10.250  -0.296  1.00  0.00    -0.205 F 
HETATM    8  C   UNL     1      38.631 -12.005  -1.796  1.00  0.00     0.054 A 
ENDROOT
BRANCH   4   9
HETATM    9  N   UNL     1      40.456 -14.632   1.010  1.00  0.00    -0.327 N 
HETATM   10  C   UNL     1      40.230 -14.641   2.379  1.00  0.00     0.228 C 
HETATM   11  O   UNL     1      39.451 -13.905   2.977  1.00  0.00    -0.273 OA
HETATM   12  H   UNL     1      41.147 -15.283   0.655  1.00  0.00     0.169 HD
BRANCH  10  13
HETATM   13  C   UNL     1      41.067 -15.680   3.110  1.00  0.00     0.107 C 
HETATM   14  C   UNL     1      42.244 -15.036   3.832  1.00  0.00     0.190 C 
HETATM   15  O   UNL     1      42.918 -15.977   4.673  1.00  0.00    -0.350 OA
HETATM   16  C   UNL     1      43.246 -17.152   4.048  1.00  0.00     0.075 A 
HETATM   17  C   UNL     1      44.188 -17.952   4.693  1.00  0.00     0.037 A 
HETATM   18  C   UNL     1      42.663 -17.574   2.847  1.00  0.00    -0.024 A 
HETATM   19  C   UNL     1      44.584 -19.162   4.126  1.00  0.00     0.003 A 
HETATM   20  C   UNL     1      44.033 -19.576   2.914  1.00  0.00     0.001 A 
HETATM   21  C   UNL     1      43.076 -18.785   2.276  1.00  0.00     0.010 A 
HETATM   22  C   UNL     1      41.632 -16.729   2.152  1.00  0.00     0.057 C 
ENDBRANCH  10  13
ENDBRANCH   4   9
BRANCH   8  23
HETATM   23  C   UNL     1      38.027 -11.070  -2.730  1.00  0.00     0.016 A 
HETATM   24  C   UNL     1      36.667 -10.759  -2.981  1.00  0.00     0.152 A 
HETATM   25  N   UNL     1      36.513  -9.837  -3.935  1.00  0.00    -0.187 NA
HETATM   26  N   UNL     1      37.772  -9.555  -4.306  1.00  0.00    -0.289 N 
HETATM   27  H   UNL     1      37.916  -8.865  -5.035  1.00  0.00     0.188 HD
HETATM   28  C   UNL     1      38.711 -10.272  -3.623  1.00  0.00     0.123 A 
ENDBRANCH   8  23
TORSDOF 3
ENDMDL
MODEL 4
REMARK VINA RESULT:      -8.3      5.373      6.480
REMARK  3 active torsions:
REMARK  status: ('A' for Active; 'I' for Inactive)
REMARK    1  A    between atoms: C_4  and  N_5 
REMARK       I    between atoms: N_5  and  C_6 
REMARK    2  A    between atoms: C_6  and  C_8 
REMARK    3  A    between atoms: C_21  and  C_22 
ROOT
HETATM    1  F   UNL     1      42.828 -10.058   6.885  1.00  0.00    -0.205 F 
HETATM    2  C   UNL     1      42.016 -11.013   6.402  1.00  0.00     0.132 A 
HETATM    3  C   UNL     1      42.618 -12.156   5.864  1.00  0.00     0.072 A 
HETATM    4  C   UNL     1      41.838 -13.192   5.355  1.00  0.00     0.040 A 
HETATM    5  C   UNL     1      40.448 -13.061   5.398  1.00  0.00     0.072 A 
HETATM    6  C   UNL     1      39.860 -11.918   5.947  1.00  0.00     0.132 A 
HETATM    7  F   UNL     1      38.519 -11.859   5.960  1.00  0.00    -0.205 F 
HETATM    8  C   UNL     1      40.627 -10.867   6.457  1.00  0.00     0.054 A 
ENDROOT
BRANCH   4   9
HETATM    9  N   UNL     1      42.358 -14.380   4.795  1.00  0.00    -0.327 N 
HETATM   10  C   UNL     1      42.876 -14.551   3.519  1.00  0.00     0.228 C 
HETATM   11  O   UNL     1      42.948 -13.681   2.657  1.00  0.00    -0.273 OA
HETATM   12  H   UNL     1      42.342 -15.196   5.396  1.00  0.00     0.169 HD
BRANCH  10  13
HETATM   13  C   UNL     1      43.366 -15.969   3.265  1.00  0.00     0.107 C 
HETATM   14  C   UNL     1      42.479 -16.689   2.256  1.00  0.00     0.190 C 
HETATM   15  O   UNL     1      43.043 -17.947   1.871  1.00  0.00    -0.350 OA
HETATM   16  C   UNL     1      43.415 -18.740   2.926  1.00  0.00     0.075 A 
HETATM   17  C   UNL     1      43.642 -20.084   2.636  1.00  0.00     0.037 A 
HETATM   18  C   UNL     1      43.601 -18.255   4.226  1.00  0.00    -0.024 A 
HETATM   19  C   UNL     1      44.020 -20.964   3.649  1.00  0.00     0.003 A 
HETATM   20  C   UNL     1      44.176 -20.497   4.953  1.00  0.00     0.001 A 
HETATM   21  C   UNL     1      43.967 -19.148   5.242  1.00  0.00     0.010 A 
HETATM   22  C   UNL     1      43.378 -16.803   4.546  1.00  0.00     0.057 C 
ENDBRANCH  10  13
ENDBRANCH   4   9
BRANCH   8  23
HETATM   23  C   UNL     1      39.991  -9.689   7.025  1.00  0.00     0.016 A 
HETATM   24  C   UNL     1      39.441  -9.463   8.311  1.00  0.00     0.152 A 
HETATM   25  N   UNL     1      38.935  -8.234   8.450  1.00  0.00    -0.187 NA
HETATM   26  N   UNL     1      39.152  -7.668   7.254  1.00  0.00    -0.289 N 
HETATM   27  H   UNL     1      38.848  -6.711   7.112  1.00  0.00     0.188 HD
HETATM   28  C   UNL     1      39.771  -8.498   6.365  1.00  0.00     0.123 A 
ENDBRANCH   8  23
TORSDOF 3
ENDMDL
MODEL 5
REMARK VINA RESULT:      -8.1      7.605     10.093
REMARK  3 active torsions:
REMARK  status: ('A' for Active; 'I' for Inactive)
REMARK    1  A    between atoms: C_4  and  N_5 
REMARK       I    between atoms: N_5  and  C_6 
REMARK    2  A    between atoms: C_6  and  C_8 
REMARK    3  A    between atoms: C_21  and  C_22 
ROOT
HETATM    1  F   UNL     1      43.365 -15.723   5.592  1.00  0.00    -0.205 F 
HETATM    2  C   UNL     1      43.168 -14.397   5.517  1.00  0.00     0.132 A 
HETATM    3  C   UNL     1      43.390 -13.648   6.679  1.00  0.00     0.072 A 
HETATM    4  C   UNL     1      43.216 -12.265   6.672  1.00  0.00     0.040 A 
HETATM    5  C   UNL     1      42.819 -11.651   5.483  1.00  0.00     0.072 A 
HETATM    6  C   UNL     1      42.610 -12.410   4.328  1.00  0.00     0.132 A 
HETATM    7  F   UNL     1      42.233 -11.755   3.218  1.00  0.00    -0.205 F 
HETATM    8  C   UNL     1      42.774 -13.798   4.317  1.00  0.00     0.054 A 
ENDROOT
BRANCH   4   9
HETATM    9  N   UNL     1      43.418 -11.432   7.794  1.00  0.00    -0.327 N 
HETATM   10  C   UNL     1      44.595 -10.803   8.172  1.00  0.00     0.228 C 
HETATM   11  O   UNL     1      45.669 -10.889   7.585  1.00  0.00    -0.273 OA
HETATM   12  H   UNL     1      42.610 -11.287   8.388  1.00  0.00     0.169 HD
BRANCH  10  13
HETATM   13  C   UNL     1      44.440  -9.963   9.431  1.00  0.00     0.107 C 
HETATM   14  C   UNL     1      43.761 -10.752  10.544  1.00  0.00     0.190 C 
HETATM   15  O   UNL     1      43.786 -10.035  11.782  1.00  0.00    -0.350 OA
HETATM   16  C   UNL     1      43.341  -8.741  11.689  1.00  0.00     0.075 A 
HETATM   17  C   UNL     1      43.018  -8.112  12.890  1.00  0.00     0.037 A 
HETATM   18  C   UNL     1      43.237  -8.048  10.476  1.00  0.00    -0.024 A 
HETATM   19  C   UNL     1      42.553  -6.798  12.888  1.00  0.00     0.003 A 
HETATM   20  C   UNL     1      42.415  -6.110  11.684  1.00  0.00     0.001 A 
HETATM   21  C   UNL     1      42.755  -6.733  10.481  1.00  0.00     0.010 A 
HETATM   22  C   UNL     1      43.600  -8.710   9.176  1.00  0.00     0.057 C 
ENDBRANCH  10  13
ENDBRANCH   4   9
BRANCH   8  23
HETATM   23  C   UNL     1      42.553 -14.565   3.103  1.00  0.00     0.016 A 
HETATM   24  C   UNL     1      41.431 -15.318   2.674  1.00  0.00     0.152 A 
HETATM   25  N   UNL     1      41.616 -15.893   1.483  1.00  0.00    -0.187 NA
HETATM   26  N   UNL     1      42.859 -15.518   1.143  1.00  0.00    -0.289 N 
HETATM   27  H   UNL     1      43.233 -15.838   0.256  1.00  0.00     0.188 HD
HETATM   28  C   UNL     1      43.464 -14.732   2.080  1.00  0.00     0.123 A 
ENDBRANCH   8  23
TORSDOF 3
ENDMDL
MODEL 6
REMARK VINA RESULT:      -8.1      9.673     12.116
REMARK  3 active torsions:
REMARK  status: ('A' for Active; 'I' for Inactive)
REMARK    1  A    between atoms: C_4  and  N_5 
REMARK       I    between atoms: N_5  and  C_6 
REMARK    2  A    between atoms: C_6  and  C_8 
REMARK    3  A    between atoms: C_21  and  C_22 
ROOT
HETATM    1  F   UNL     1      42.484 -10.163  13.534  1.00  0.00    -0.205 F 
HETATM    2  C   UNL     1      42.663  -9.502  12.379  1.00  0.00     0.132 A 
HETATM    3  C   UNL     1      42.883 -10.269  11.228  1.00  0.00     0.072 A 
HETATM    4  C   UNL     1      43.066  -9.651   9.992  1.00  0.00     0.040 A 
HETATM    5  C   UNL     1      43.020  -8.256   9.933  1.00  0.00     0.072 A 
HETATM    6  C   UNL     1      42.789  -7.504  11.088  1.00  0.00     0.132 A 
HETATM    7  F   UNL     1      42.753  -6.169  10.959  1.00  0.00    -0.205 F 
HETATM    8  C   UNL     1      42.610  -8.106  12.337  1.00  0.00     0.054 A 
ENDROOT
BRANCH   4   9
HETATM    9  N   UNL     1      43.293 -10.342   8.782  1.00  0.00    -0.327 N 
HETATM   10  C   UNL     1      44.481 -10.914   8.351  1.00  0.00     0.228 C 
HETATM   11  O   UNL     1      45.545 -10.892   8.962  1.00  0.00    -0.273 OA
HETATM   12  H   UNL     1      42.495 -10.420   8.161  1.00  0.00     0.169 HD
BRANCH  10  13
HETATM   13  C   UNL     1      44.352 -11.599   6.998  1.00  0.00     0.107 C 
HETATM   14  C   UNL     1      43.418 -10.828   6.074  1.00  0.00     0.190 C 
HETATM   15  O   UNL     1      43.444 -11.358   4.745  1.00  0.00    -0.350 OA
HETATM   16  C   UNL     1      43.267 -12.716   4.681  1.00  0.00     0.075 A 
HETATM   17  C   UNL     1      42.941 -13.237   3.430  1.00  0.00     0.037 A 
HETATM   18  C   UNL     1      43.430 -13.567   5.782  1.00  0.00    -0.024 A 
HETATM   19  C   UNL     1      42.739 -14.608   3.274  1.00  0.00     0.003 A 
HETATM   20  C   UNL     1      42.867 -15.459   4.370  1.00  0.00     0.001 A 
HETATM   21  C   UNL     1      43.211 -14.941   5.620  1.00  0.00     0.010 A 
HETATM   22  C   UNL     1      43.800 -13.018   7.131  1.00  0.00     0.057 C 
ENDBRANCH  10  13
ENDBRANCH   4   9
BRANCH   8  23
HETATM   23  C   UNL     1      42.369  -7.302  13.523  1.00  0.00     0.016 A 
HETATM   24  C   UNL     1      41.223  -6.576  13.934  1.00  0.00     0.152 A 
HETATM   25  N   UNL     1      41.396  -5.949  15.101  1.00  0.00    -0.187 NA
HETATM   26  N   UNL     1      42.654  -6.265  15.443  1.00  0.00    -0.289 N 
HETATM   27  H   UNL     1      43.023  -5.897  16.314  1.00  0.00     0.188 HD
HETATM   28  C   UNL     1      43.281  -7.063  14.530  1.00  0.00     0.123 A 
ENDBRANCH   8  23
TORSDOF 3
ENDMDL
MODEL 7
REMARK VINA RESULT:      -7.8      3.345      9.788
REMARK  3 active torsions:
REMARK  status: ('A' for Active; 'I' for Inactive)
REMARK    1  A    between atoms: C_4  and  N_5 
REMARK       I    between atoms: N_5  and  C_6 
REMARK    2  A    between atoms: C_6  and  C_8 
REMARK    3  A    between atoms: C_21  and  C_22 
ROOT
HETATM    1  F   UNL     1      40.243 -16.583   4.308  1.00  0.00    -0.205 F 
HETATM    2  C   UNL     1      40.720 -16.075   3.160  1.00  0.00     0.132 A 
HETATM    3  C   UNL     1      39.838 -15.323   2.376  1.00  0.00     0.072 A 
HETATM    4  C   UNL     1      40.267 -14.756   1.177  1.00  0.00     0.040 A 
HETATM    5  C   UNL     1      41.592 -14.955   0.784  1.00  0.00     0.072 A 
HETATM    6  C   UNL     1      42.464 -15.701   1.582  1.00  0.00     0.132 A 
HETATM    7  F   UNL     1      43.725 -15.850   1.146  1.00  0.00    -0.205 F 
HETATM    8  C   UNL     1      42.050 -16.282   2.784  1.00  0.00     0.054 A 
ENDROOT
BRANCH   4   9
HETATM    9  N   UNL     1      39.449 -13.983   0.324  1.00  0.00    -0.327 N 
HETATM   10  C   UNL     1      39.492 -12.609   0.138  1.00  0.00     0.228 C 
HETATM   11  O   UNL     1      40.253 -11.836   0.710  1.00  0.00    -0.273 OA
HETATM   12  H   UNL     1      38.751 -14.495  -0.202  1.00  0.00     0.169 HD
BRANCH  10  13
HETATM   13  C   UNL     1      38.470 -12.116  -0.877  1.00  0.00     0.107 C 
HETATM   14  C   UNL     1      39.148 -11.454  -2.070  1.00  0.00     0.190 C 
HETATM   15  O   UNL     1      38.208 -11.164  -3.109  1.00  0.00    -0.350 OA
HETATM   16  C   UNL     1      37.091 -10.493  -2.682  1.00  0.00     0.075 A 
HETATM   17  C   UNL     1      36.319  -9.888  -3.673  1.00  0.00     0.037 A 
HETATM   18  C   UNL     1      36.698 -10.429  -1.340  1.00  0.00    -0.024 A 
HETATM   19  C   UNL     1      35.168  -9.182  -3.328  1.00  0.00     0.003 A 
HETATM   20  C   UNL     1      34.785  -9.084  -1.991  1.00  0.00     0.001 A 
HETATM   21  C   UNL     1      35.547  -9.705  -1.000  1.00  0.00     0.010 A 
HETATM   22  C   UNL     1      37.512 -11.094  -0.265  1.00  0.00     0.057 C 
ENDBRANCH  10  13
ENDBRANCH   4   9
BRANCH   8  23
HETATM   23  C   UNL     1      42.977 -17.051   3.597  1.00  0.00     0.016 A 
HETATM   24  C   UNL     1      43.560 -16.767   4.857  1.00  0.00     0.152 A 
HETATM   25  N   UNL     1      44.379 -17.734   5.281  1.00  0.00    -0.187 NA
HETATM   26  N   UNL     1      44.330 -18.641   4.292  1.00  0.00    -0.289 N 
HETATM   27  H   UNL     1      44.884 -19.486   4.387  1.00  0.00     0.188 HD
HETATM   28  C   UNL     1      43.515 -18.276   3.261  1.00  0.00     0.123 A 
ENDBRANCH   8  23
TORSDOF 3
ENDMDL
MODEL 8
REMARK VINA RESULT:      -7.7     12.496     14.881
REMARK  3 active torsions:
REMARK  status: ('A' for Active; 'I' for Inactive)
REMARK    1  A    between atoms: C_4  and  N_5 
REMARK       I    between atoms: N_5  and  C_6 
REMARK    2  A    between atoms: C_6  and  C_8 
REMARK    3  A    between atoms: C_21  and  C_22 
ROOT
HETATM    1  F   UNL     1      42.101  -9.435   7.876  1.00  0.00    -0.205 F 
HETATM    2  C   UNL     1      42.696  -9.484   9.079  1.00  0.00     0.132 A 
HETATM    3  C   UNL     1      41.985  -8.965  10.168  1.00  0.00     0.072 A 
HETATM    4  C   UNL     1      42.535  -8.992  11.448  1.00  0.00     0.040 A 
HETATM    5  C   UNL     1      43.804  -9.550  11.615  1.00  0.00     0.072 A 
HETATM    6  C   UNL     1      44.498 -10.073  10.520  1.00  0.00     0.132 A 
HETATM    7  F   UNL     1      45.712 -10.597  10.752  1.00  0.00    -0.205 F 
HETATM    8  C   UNL     1      43.965 -10.049   9.229  1.00  0.00     0.054 A 
ENDROOT
BRANCH   4   9
HETATM    9  N   UNL     1      41.891  -8.494  12.602  1.00  0.00    -0.327 N 
HETATM   10  C   UNL     1      40.940  -9.140  13.378  1.00  0.00     0.228 C 
HETATM   11  O   UNL     1      40.490 -10.261  13.167  1.00  0.00    -0.273 OA
HETATM   12  H   UNL     1      42.153  -7.556  12.884  1.00  0.00     0.169 HD
BRANCH  10  13
HETATM   13  C   UNL     1      40.476  -8.305  14.563  1.00  0.00     0.107 C 
HETATM   14  C   UNL     1      39.941  -6.952  14.112  1.00  0.00     0.190 C 
HETATM   15  O   UNL     1      39.330  -6.245  15.196  1.00  0.00    -0.350 OA
HETATM   16  C   UNL     1      40.108  -6.169  16.323  1.00  0.00     0.075 A 
HETATM   17  C   UNL     1      39.728  -5.220  17.272  1.00  0.00     0.037 A 
HETATM   18  C   UNL     1      41.207  -7.005  16.559  1.00  0.00    -0.024 A 
HETATM   19  C   UNL     1      40.464  -5.072  18.446  1.00  0.00     0.003 A 
HETATM   20  C   UNL     1      41.579  -5.877  18.675  1.00  0.00     0.001 A 
HETATM   21  C   UNL     1      41.950  -6.840  17.735  1.00  0.00     0.010 A 
HETATM   22  C   UNL     1      41.614  -8.044  15.552  1.00  0.00     0.057 C 
ENDBRANCH  10  13
ENDBRANCH   4   9
BRANCH   8  23
HETATM   23  C   UNL     1      44.706 -10.601   8.107  1.00  0.00     0.016 A 
HETATM   24  C   UNL     1      44.449 -11.733   7.294  1.00  0.00     0.152 A 
HETATM   25  N   UNL     1      45.381 -11.921   6.355  1.00  0.00    -0.187 NA
HETATM   26  N   UNL     1      46.243 -10.915   6.564  1.00  0.00    -0.289 N 
HETATM   27  H   UNL     1      47.055 -10.844   5.960  1.00  0.00     0.188 HD
HETATM   28  C   UNL     1      45.891 -10.105   7.604  1.00  0.00     0.123 A 
ENDBRANCH   8  23
TORSDOF 3
ENDMDL
MODEL 9
REMARK VINA RESULT:      -7.6     15.762     18.069
REMARK  3 active torsions:
REMARK  status: ('A' for Active; 'I' for Inactive)
REMARK    1  A    between atoms: C_4  and  N_5 
REMARK       I    between atoms: N_5  and  C_6 
REMARK    2  A    between atoms: C_6  and  C_8 
REMARK    3  A    between atoms: C_21  and  C_22 
ROOT
HETATM    1  F   UNL     1      38.562 -34.504   3.049  1.00  0.00    -0.205 F 
HETATM    2  C   UNL     1      39.289 -33.539   3.636  1.00  0.00     0.132 A 
HETATM    3  C   UNL     1      40.406 -33.064   2.939  1.00  0.00     0.072 A 
HETATM    4  C   UNL     1      41.200 -32.055   3.482  1.00  0.00     0.040 A 
HETATM    5  C   UNL     1      40.851 -31.533   4.730  1.00  0.00     0.072 A 
HETATM    6  C   UNL     1      39.727 -32.011   5.409  1.00  0.00     0.132 A 
HETATM    7  F   UNL     1      39.447 -31.463   6.602  1.00  0.00    -0.205 F 
HETATM    8  C   UNL     1      38.923 -33.026   4.883  1.00  0.00     0.054 A 
ENDROOT
BRANCH   4   9
HETATM    9  N   UNL     1      42.342 -31.514   2.852  1.00  0.00    -0.327 N 
HETATM   10  C   UNL     1      42.383 -30.470   1.940  1.00  0.00     0.228 C 
HETATM   11  O   UNL     1      41.410 -29.853   1.519  1.00  0.00    -0.273 OA
HETATM   12  H   UNL     1      43.226 -31.948   3.093  1.00  0.00     0.169 HD
BRANCH  10  13
HETATM   13  C   UNL     1      43.796 -30.140   1.481  1.00  0.00     0.107 C 
HETATM   14  C   UNL     1      44.493 -29.205   2.461  1.00  0.00     0.190 C 
HETATM   15  O   UNL     1      45.878 -29.047   2.135  1.00  0.00    -0.350 OA
HETATM   16  C   UNL     1      46.111 -28.725   0.823  1.00  0.00     0.075 A 
HETATM   17  C   UNL     1      47.379 -28.226   0.527  1.00  0.00     0.037 A 
HETATM   18  C   UNL     1      45.166 -28.906  -0.194  1.00  0.00    -0.024 A 
HETATM   19  C   UNL     1      47.701 -27.870  -0.782  1.00  0.00     0.003 A 
HETATM   20  C   UNL     1      46.756 -28.015  -1.796  1.00  0.00     0.001 A 
HETATM   21  C   UNL     1      45.492 -28.531  -1.504  1.00  0.00     0.010 A 
HETATM   22  C   UNL     1      43.802 -29.460   0.111  1.00  0.00     0.057 C 
ENDBRANCH  10  13
ENDBRANCH   4   9
BRANCH   8  23
HETATM   23  C   UNL     1      37.758 -33.505   5.608  1.00  0.00     0.016 A 
HETATM   24  C   UNL     1      37.630 -34.013   6.925  1.00  0.00     0.152 A 
HETATM   25  N   UNL     1      36.377 -34.360   7.229  1.00  0.00    -0.187 NA
HETATM   26  N   UNL     1      35.694 -34.082   6.108  1.00  0.00    -0.289 N 
HETATM   27  H   UNL     1      34.696 -34.265   6.094  1.00  0.00     0.188 HD
HETATM   28  C   UNL     1      36.474 -33.578   5.108  1.00  0.00     0.123 A 
ENDBRANCH   8  23
TORSDOF 3
ENDMDL
MODEL 10
REMARK VINA RESULT:      -7.5     16.396     18.966
REMARK  3 active torsions:
REMARK  status: ('A' for Active; 'I' for Inactive)
REMARK    1  A    between atoms: C_4  and  N_5 
REMARK       I    between atoms: N_5  and  C_6 
REMARK    2  A    between atoms: C_6  and  C_8 
REMARK    3  A    between atoms: C_21  and  C_22 
ROOT
HETATM    1  F   UNL     1      42.601  -6.147  20.578  1.00  0.00    -0.205 F 
HETATM    2  C   UNL     1      41.866  -6.683  19.590  1.00  0.00     0.132 A 
HETATM    3  C   UNL     1      42.368  -6.578  18.287  1.00  0.00     0.072 A 
HETATM    4  C   UNL     1      41.665  -7.121  17.214  1.00  0.00     0.040 A 
HETATM    5  C   UNL     1      40.457  -7.772  17.470  1.00  0.00     0.072 A 
HETATM    6  C   UNL     1      39.973  -7.878  18.777  1.00  0.00     0.132 A 
HETATM    7  F   UNL     1      38.806  -8.519  18.954  1.00  0.00    -0.205 F 
HETATM    8  C   UNL     1      40.660  -7.334  19.866  1.00  0.00     0.054 A 
ENDROOT
BRANCH   4   9
HETATM    9  N   UNL     1      42.095  -7.063  15.869  1.00  0.00    -0.327 N 
HETATM   10  C   UNL     1      41.778  -6.096  14.927  1.00  0.00     0.228 C 
HETATM   11  O   UNL     1      41.046  -5.130  15.116  1.00  0.00    -0.273 OA
HETATM   12  H   UNL     1      42.697  -7.820  15.565  1.00  0.00     0.169 HD
BRANCH  10  13
HETATM   13  C   UNL     1      42.439  -6.344  13.579  1.00  0.00     0.107 C 
HETATM   14  C   UNL     1      41.502  -5.993  12.429  1.00  0.00     0.190 C 
HETATM   15  O   UNL     1      42.181  -6.041  11.170  1.00  0.00    -0.350 OA
HETATM   16  C   UNL     1      42.885  -7.198  10.958  1.00  0.00     0.075 A 
HETATM   17  C   UNL     1      43.272  -7.452   9.643  1.00  0.00     0.037 A 
HETATM   18  C   UNL     1      43.243  -8.081  11.985  1.00  0.00    -0.024 A 
HETATM   19  C   UNL     1      43.988  -8.608   9.336  1.00  0.00     0.003 A 
HETATM   20  C   UNL     1      44.321  -9.509  10.345  1.00  0.00     0.001 A 
HETATM   21  C   UNL     1      43.950  -9.248  11.666  1.00  0.00     0.010 A 
HETATM   22  C   UNL     1      42.847  -7.808  13.409  1.00  0.00     0.057 C 
ENDBRANCH  10  13
ENDBRANCH   4   9
BRANCH   8  23
HETATM   23  C   UNL     1      40.137  -7.459  21.216  1.00  0.00     0.016 A 
HETATM   24  C   UNL     1      39.597  -6.487  22.094  1.00  0.00     0.152 A 
HETATM   25  N   UNL     1      39.225  -6.999  23.270  1.00  0.00    -0.187 NA
HETATM   26  N   UNL     1      39.529  -8.301  23.156  1.00  0.00    -0.289 N 
HETATM   27  H   UNL     1      39.333  -8.912  23.942  1.00  0.00     0.188 HD
HETATM   28  C   UNL     1      40.084  -8.625  21.952  1.00  0.00     0.123 A 
ENDBRANCH   8  23
TORSDOF 3
ENDMDL
