MODEL 1
REMARK VINA RESULT:      -7.4      0.000      0.000
REMARK  6 active torsions:
REMARK  status: ('A' for Active; 'I' for Inactive)
REMARK    1  A    between atoms: C_2  and  O_3 
REMARK    2  A    between atoms: O_3  and  C_4 
REMARK    3  A    between atoms: C_13  and  C_14 
REMARK    4  A    between atoms: C_14  and  N_15 
REMARK    5  A    between atoms: N_15  and  C_16 
REMARK    6  A    between atoms: C_19  and  O_20 
ROOT
HETATM    1  C   UNL     1      44.675 -10.186   8.120  1.00  0.00     0.070 A 
HETATM    2  C   UNL     1      43.312 -10.346   7.854  1.00  0.00     0.067 A 
HETATM    3  C   UNL     1      42.896 -11.180   6.817  1.00  0.00     0.048 A 
HETATM    4  C   UNL     1      43.830 -11.867   6.037  1.00  0.00    -0.009 A 
HETATM    5  C   UNL     1      45.192 -11.716   6.309  1.00  0.00     0.016 A 
HETATM    6  C   UNL     1      45.612 -10.878   7.348  1.00  0.00     0.038 A 
HETATM    7  N   UNL     1      41.532 -11.336   6.544  1.00  0.00    -0.322 N 
HETATM    8  C   UNL     1      41.043 -12.134   5.544  1.00  0.00     0.253 A 
HETATM    9  O   UNL     1      39.835 -12.251   5.358  1.00  0.00    -0.268 OA
HETATM   10  C   UNL     1      42.041 -12.852   4.697  1.00  0.00     0.024 A 
HETATM   11  C   UNL     1      43.356 -12.714   4.944  1.00  0.00     0.027 A 
HETATM   12  H   UNL     1      40.842 -10.856   7.107  1.00  0.00     0.169 HD
ENDROOT
BRANCH  10  13
HETATM   13  C   UNL     1      41.502 -13.657   3.550  1.00  0.00     0.136 C 
BRANCH  13  14
HETATM   14  N   UNL     1      41.042 -14.946   4.056  1.00  0.00    -0.289 NA
HETATM   15  H   UNL     1      40.058 -15.093   3.834  1.00  0.00     0.128 HD
BRANCH  14  16
HETATM   16  C   UNL     1      41.783 -16.102   3.771  1.00  0.00     0.008 A 
HETATM   17  C   UNL     1      41.790 -16.740   2.528  1.00  0.00     0.026 A 
HETATM   18  C   UNL     1      42.625 -17.838   2.285  1.00  0.00     0.038 A 
HETATM   19  C   UNL     1      43.499 -18.305   3.265  1.00  0.00     0.068 A 
HETATM   20  C   UNL     1      43.531 -17.659   4.497  1.00  0.00     0.038 A 
HETATM   21  C   UNL     1      42.691 -16.562   4.736  1.00  0.00     0.026 A 
BRANCH  19  22
HETATM   22  O   UNL     1      44.262 -19.376   2.893  1.00  0.00    -0.356 OA
HETATM   23  C   UNL     1      43.675 -20.296   1.982  1.00  0.00     0.210 C 
ENDBRANCH  19  22
ENDBRANCH  14  16
ENDBRANCH  13  14
ENDBRANCH  10  13
BRANCH   1  24
HETATM   24  O   UNL     1      44.958  -9.333   9.151  1.00  0.00    -0.351 OA
BRANCH  24  25
HETATM   25  C   UNL     1      44.891  -9.866  10.473  1.00  0.00     0.171 C 
HETATM   26  C   UNL     1      43.941  -9.000  11.281  1.00  0.00     0.034 C 
ENDBRANCH  24  25
ENDBRANCH   1  24
TORSDOF 6
ENDMDL
MODEL 2
REMARK VINA RESULT:      -7.4      1.276      7.937
REMARK  6 active torsions:
REMARK  status: ('A' for Active; 'I' for Inactive)
REMARK    1  A    between atoms: C_2  and  O_3 
REMARK    2  A    between atoms: O_3  and  C_4 
REMARK    3  A    between atoms: C_13  and  C_14 
REMARK    4  A    between atoms: C_14  and  N_15 
REMARK    5  A    between atoms: N_15  and  C_16 
REMARK    6  A    between atoms: C_19  and  O_20 
ROOT
HETATM    1  C   UNL     1      42.465 -17.101   2.407  1.00  0.00     0.070 A 
HETATM    2  C   UNL     1      41.555 -16.667   3.376  1.00  0.00     0.067 A 
HETATM    3  C   UNL     1      41.428 -15.307   3.653  1.00  0.00     0.048 A 
HETATM    4  C   UNL     1      42.199 -14.364   2.968  1.00  0.00    -0.009 A 
HETATM    5  C   UNL     1      43.100 -14.796   1.992  1.00  0.00     0.016 A 
HETATM    6  C   UNL     1      43.231 -16.161   1.713  1.00  0.00     0.038 A 
HETATM    7  N   UNL     1      40.524 -14.870   4.629  1.00  0.00    -0.322 N 
HETATM    8  C   UNL     1      40.341 -13.554   4.961  1.00  0.00     0.253 A 
HETATM    9  O   UNL     1      39.520 -13.222   5.812  1.00  0.00    -0.268 OA
HETATM   10  C   UNL     1      41.178 -12.548   4.244  1.00  0.00     0.024 A 
HETATM   11  C   UNL     1      42.053 -12.949   3.304  1.00  0.00     0.027 A 
HETATM   12  H   UNL     1      39.950 -15.538   5.126  1.00  0.00     0.169 HD
ENDROOT
BRANCH  10  13
HETATM   13  C   UNL     1      41.034 -11.116   4.673  1.00  0.00     0.136 C 
BRANCH  13  14
HETATM   14  N   UNL     1      42.360 -10.513   4.749  1.00  0.00    -0.289 NA
HETATM   15  H   UNL     1      42.330  -9.533   4.468  1.00  0.00     0.128 HD
BRANCH  14  16
HETATM   16  C   UNL     1      43.117 -10.661   5.920  1.00  0.00     0.008 A 
HETATM   17  C   UNL     1      44.323 -11.362   5.989  1.00  0.00     0.026 A 
HETATM   18  C   UNL     1      45.075 -11.393   7.170  1.00  0.00     0.038 A 
HETATM   19  C   UNL     1      44.658 -10.695   8.303  1.00  0.00     0.068 A 
HETATM   20  C   UNL     1      43.478  -9.962   8.241  1.00  0.00     0.038 A 
HETATM   21  C   UNL     1      42.728  -9.938   7.057  1.00  0.00     0.026 A 
BRANCH  19  22
HETATM   22  O   UNL     1      45.489 -10.803   9.383  1.00  0.00    -0.356 OA
HETATM   23  C   UNL     1      45.117 -10.083  10.551  1.00  0.00     0.210 C 
ENDBRANCH  19  22
ENDBRANCH  14  16
ENDBRANCH  13  14
ENDBRANCH  10  13
BRANCH   1  24
HETATM   24  O   UNL     1      42.509 -18.457   2.234  1.00  0.00    -0.351 OA
BRANCH  24  25
HETATM   25  C   UNL     1      43.673 -19.135   2.706  1.00  0.00     0.171 C 
HETATM   26  C   UNL     1      43.742 -20.485   2.014  1.00  0.00     0.034 C 
ENDBRANCH  24  25
ENDBRANCH   1  24
TORSDOF 6
ENDMDL
MODEL 3
REMARK VINA RESULT:      -7.3      1.561      8.010
REMARK  6 active torsions:
REMARK  status: ('A' for Active; 'I' for Inactive)
REMARK    1  A    between atoms: C_2  and  O_3 
REMARK    2  A    between atoms: O_3  and  C_4 
REMARK    3  A    between atoms: C_13  and  C_14 
REMARK    4  A    between atoms: C_14  and  N_15 
REMARK    5  A    between atoms: N_15  and  C_16 
REMARK    6  A    between atoms: C_19  and  O_20 
ROOT
HETATM    1  C   UNL     1      43.960 -18.495   4.479  1.00  0.00     0.070 A 
HETATM    2  C   UNL     1      43.861 -17.511   3.491  1.00  0.00     0.067 A 
HETATM    3  C   UNL     1      43.328 -16.262   3.803  1.00  0.00     0.048 A 
HETATM    4  C   UNL     1      42.892 -15.975   5.099  1.00  0.00    -0.009 A 
HETATM    5  C   UNL     1      43.002 -16.954   6.089  1.00  0.00     0.016 A 
HETATM    6  C   UNL     1      43.536 -18.210   5.779  1.00  0.00     0.038 A 
HETATM    7  N   UNL     1      43.219 -15.277   2.813  1.00  0.00    -0.322 N 
HETATM    8  C   UNL     1      42.706 -14.027   3.038  1.00  0.00     0.253 A 
HETATM    9  O   UNL     1      42.650 -13.193   2.138  1.00  0.00    -0.268 OA
HETATM   10  C   UNL     1      42.222 -13.727   4.417  1.00  0.00     0.024 A 
HETATM   11  C   UNL     1      42.318 -14.661   5.381  1.00  0.00     0.027 A 
HETATM   12  H   UNL     1      43.540 -15.464   1.872  1.00  0.00     0.169 HD
ENDROOT
BRANCH  10  13
HETATM   13  C   UNL     1      41.583 -12.386   4.635  1.00  0.00     0.136 C 
BRANCH  13  14
HETATM   14  N   UNL     1      42.621 -11.360   4.596  1.00  0.00    -0.289 NA
HETATM   15  H   UNL     1      42.251 -10.484   4.229  1.00  0.00     0.128 HD
BRANCH  14  16
HETATM   16  C   UNL     1      43.394 -11.120   5.741  1.00  0.00     0.008 A 
HETATM   17  C   UNL     1      42.870 -10.700   6.966  1.00  0.00     0.026 A 
HETATM   18  C   UNL     1      43.688 -10.568   8.095  1.00  0.00     0.038 A 
HETATM   19  C   UNL     1      45.045 -10.884   8.037  1.00  0.00     0.068 A 
HETATM   20  C   UNL     1      45.576 -11.337   6.834  1.00  0.00     0.038 A 
HETATM   21  C   UNL     1      44.753 -11.465   5.707  1.00  0.00     0.026 A 
BRANCH  19  22
HETATM   22  O   UNL     1      45.725 -10.718   9.212  1.00  0.00    -0.356 OA
HETATM   23  C   UNL     1      45.080  -9.956  10.223  1.00  0.00     0.210 C 
ENDBRANCH  19  22
ENDBRANCH  14  16
ENDBRANCH  13  14
ENDBRANCH  10  13
BRANCH   1  24
HETATM   24  O   UNL     1      44.486 -19.683   4.049  1.00  0.00    -0.351 OA
BRANCH  24  25
HETATM   25  C   UNL     1      43.585 -20.617   3.457  1.00  0.00     0.171 C 
HETATM   26  C   UNL     1      43.751 -20.539   1.949  1.00  0.00     0.034 C 
ENDBRANCH  24  25
ENDBRANCH   1  24
TORSDOF 6
ENDMDL
MODEL 4
REMARK VINA RESULT:      -7.3      1.700      8.259
REMARK  6 active torsions:
REMARK  status: ('A' for Active; 'I' for Inactive)
REMARK    1  A    between atoms: C_2  and  O_3 
REMARK    2  A    between atoms: O_3  and  C_4 
REMARK    3  A    between atoms: C_13  and  C_14 
REMARK    4  A    between atoms: C_14  and  N_15 
REMARK    5  A    between atoms: N_15  and  C_16 
REMARK    6  A    between atoms: C_19  and  O_20 
ROOT
HETATM    1  C   UNL     1      43.698 -18.250   3.364  1.00  0.00     0.070 A 
HETATM    2  C   UNL     1      43.711 -17.561   4.580  1.00  0.00     0.067 A 
HETATM    3  C   UNL     1      43.419 -16.199   4.614  1.00  0.00     0.048 A 
HETATM    4  C   UNL     1      43.108 -15.507   3.440  1.00  0.00    -0.009 A 
HETATM    5  C   UNL     1      43.084 -16.197   2.226  1.00  0.00     0.016 A 
HETATM    6  C   UNL     1      43.377 -17.565   2.189  1.00  0.00     0.038 A 
HETATM    7  N   UNL     1      43.439 -15.505   5.829  1.00  0.00    -0.322 N 
HETATM    8  C   UNL     1      43.167 -14.168   5.946  1.00  0.00     0.253 A 
HETATM    9  O   UNL     1      43.180 -13.611   7.041  1.00  0.00    -0.268 OA
HETATM   10  C   UNL     1      42.854 -13.425   4.691  1.00  0.00     0.024 A 
HETATM   11  C   UNL     1      42.831 -14.074   3.513  1.00  0.00     0.027 A 
HETATM   12  H   UNL     1      43.652 -15.993   6.690  1.00  0.00     0.169 HD
ENDROOT
BRANCH  10  13
HETATM   13  C   UNL     1      42.640 -11.943   4.815  1.00  0.00     0.136 C 
BRANCH  13  14
HETATM   14  N   UNL     1      43.935 -11.296   4.995  1.00  0.00    -0.289 NA
HETATM   15  H   UNL     1      44.084 -10.579   4.285  1.00  0.00     0.128 HD
BRANCH  14  16
HETATM   16  C   UNL     1      44.292 -10.808   6.260  1.00  0.00     0.008 A 
HETATM   17  C   UNL     1      43.393 -10.221   7.154  1.00  0.00     0.026 A 
HETATM   18  C   UNL     1      43.798  -9.839   8.439  1.00  0.00     0.038 A 
HETATM   19  C   UNL     1      45.102 -10.065   8.876  1.00  0.00     0.068 A 
HETATM   20  C   UNL     1      46.001 -10.682   8.012  1.00  0.00     0.038 A 
HETATM   21  C   UNL     1      45.590 -11.059   6.726  1.00  0.00     0.026 A 
BRANCH  19  22
HETATM   22  O   UNL     1      45.361  -9.652  10.154  1.00  0.00    -0.356 OA
HETATM   23  C   UNL     1      44.246  -9.239  10.932  1.00  0.00     0.210 C 
ENDBRANCH  19  22
ENDBRANCH  14  16
ENDBRANCH  13  14
ENDBRANCH  10  13
BRANCH   1  24
HETATM   24  O   UNL     1      44.013 -19.578   3.458  1.00  0.00    -0.351 OA
BRANCH  24  25
HETATM   25  C   UNL     1      44.504 -20.043   4.714  1.00  0.00     0.171 C 
HETATM   26  C   UNL     1      43.714 -21.282   5.097  1.00  0.00     0.034 C 
ENDBRANCH  24  25
ENDBRANCH   1  24
TORSDOF 6
ENDMDL
MODEL 5
REMARK VINA RESULT:      -7.2      4.379      8.086
REMARK  6 active torsions:
REMARK  status: ('A' for Active; 'I' for Inactive)
REMARK    1  A    between atoms: C_2  and  O_3 
REMARK    2  A    between atoms: O_3  and  C_4 
REMARK    3  A    between atoms: C_13  and  C_14 
REMARK    4  A    between atoms: C_14  and  N_15 
REMARK    5  A    between atoms: N_15  and  C_16 
REMARK    6  A    between atoms: C_19  and  O_20 
ROOT
HETATM    1  C   UNL     1      44.029 -18.452   4.005  1.00  0.00     0.070 A 
HETATM    2  C   UNL     1      43.830 -17.132   4.419  1.00  0.00     0.067 A 
HETATM    3  C   UNL     1      43.178 -16.229   3.581  1.00  0.00     0.048 A 
HETATM    4  C   UNL     1      42.714 -16.628   2.325  1.00  0.00    -0.009 A 
HETATM    5  C   UNL     1      42.903 -17.950   1.916  1.00  0.00     0.016 A 
HETATM    6  C   UNL     1      43.557 -18.859   2.754  1.00  0.00     0.038 A 
HETATM    7  N   UNL     1      42.985 -14.904   3.990  1.00  0.00    -0.322 N 
HETATM    8  C   UNL     1      42.357 -13.956   3.226  1.00  0.00     0.253 A 
HETATM    9  O   UNL     1      42.197 -12.811   3.640  1.00  0.00    -0.268 OA
HETATM   10  C   UNL     1      41.879 -14.377   1.877  1.00  0.00     0.024 A 
HETATM   11  C   UNL     1      42.057 -15.645   1.466  1.00  0.00     0.027 A 
HETATM   12  H   UNL     1      43.305 -14.600   4.901  1.00  0.00     0.169 HD
ENDROOT
BRANCH  10  13
HETATM   13  C   UNL     1      41.268 -13.313   1.011  1.00  0.00     0.136 C 
BRANCH  13  14
HETATM   14  N   UNL     1      40.996 -13.878  -0.306  1.00  0.00    -0.289 NA
HETATM   15  H   UNL     1      41.152 -14.886  -0.308  1.00  0.00     0.128 HD
BRANCH  14  16
HETATM   16  C   UNL     1      39.790 -13.571  -0.951  1.00  0.00     0.008 A 
HETATM   17  C   UNL     1      38.979 -12.483  -0.619  1.00  0.00     0.026 A 
HETATM   18  C   UNL     1      37.833 -12.181  -1.365  1.00  0.00     0.038 A 
HETATM   19  C   UNL     1      37.486 -12.938  -2.483  1.00  0.00     0.068 A 
HETATM   20  C   UNL     1      38.302 -14.004  -2.850  1.00  0.00     0.038 A 
HETATM   21  C   UNL     1      39.446 -14.303  -2.097  1.00  0.00     0.026 A 
BRANCH  19  22
HETATM   22  O   UNL     1      36.350 -12.530  -3.124  1.00  0.00    -0.356 OA
HETATM   23  C   UNL     1      36.051 -11.142  -3.076  1.00  0.00     0.210 C 
ENDBRANCH  19  22
ENDBRANCH  14  16
ENDBRANCH  13  14
ENDBRANCH  10  13
BRANCH   1  24
HETATM   24  O   UNL     1      44.691 -19.238   4.907  1.00  0.00    -0.351 OA
BRANCH  24  25
HETATM   25  C   UNL     1      43.989 -20.369   5.424  1.00  0.00     0.171 C 
HETATM   26  C   UNL     1      43.248 -19.930   6.674  1.00  0.00     0.034 C 
ENDBRANCH  24  25
ENDBRANCH   1  24
TORSDOF 6
ENDMDL
MODEL 6
REMARK VINA RESULT:      -7.0      3.936      7.248
REMARK  6 active torsions:
REMARK  status: ('A' for Active; 'I' for Inactive)
REMARK    1  A    between atoms: C_2  and  O_3 
REMARK    2  A    between atoms: O_3  and  C_4 
REMARK    3  A    between atoms: C_13  and  C_14 
REMARK    4  A    between atoms: C_14  and  N_15 
REMARK    5  A    between atoms: N_15  and  C_16 
REMARK    6  A    between atoms: C_19  and  O_20 
ROOT
HETATM    1  C   UNL     1      43.373 -17.460   4.089  1.00  0.00     0.070 A 
HETATM    2  C   UNL     1      43.076 -16.260   4.742  1.00  0.00     0.067 A 
HETATM    3  C   UNL     1      42.810 -15.110   4.000  1.00  0.00     0.048 A 
HETATM    4  C   UNL     1      42.834 -15.141   2.603  1.00  0.00    -0.009 A 
HETATM    5  C   UNL     1      43.120 -16.343   1.951  1.00  0.00     0.016 A 
HETATM    6  C   UNL     1      43.388 -17.498   2.693  1.00  0.00     0.038 A 
HETATM    7  N   UNL     1      42.520 -13.905   4.651  1.00  0.00    -0.322 N 
HETATM    8  C   UNL     1      42.251 -12.732   3.995  1.00  0.00     0.253 A 
HETATM    9  O   UNL     1      41.983 -11.706   4.614  1.00  0.00    -0.268 OA
HETATM   10  C   UNL     1      42.295 -12.761   2.504  1.00  0.00     0.024 A 
HETATM   11  C   UNL     1      42.573 -13.909   1.861  1.00  0.00     0.027 A 
HETATM   12  H   UNL     1      42.488 -13.867   5.661  1.00  0.00     0.169 HD
ENDROOT
BRANCH  10  13
HETATM   13  C   UNL     1      42.083 -11.454   1.795  1.00  0.00     0.136 C 
BRANCH  13  14
HETATM   14  N   UNL     1      40.693 -11.379   1.357  1.00  0.00    -0.289 NA
HETATM   15  H   UNL     1      40.333 -10.430   1.456  1.00  0.00     0.128 HD
BRANCH  14  16
HETATM   16  C   UNL     1      40.334 -11.908   0.109  1.00  0.00     0.008 A 
HETATM   17  C   UNL     1      41.063 -11.705  -1.066  1.00  0.00     0.026 A 
HETATM   18  C   UNL     1      40.699 -12.339  -2.260  1.00  0.00     0.038 A 
HETATM   19  C   UNL     1      39.618 -13.218  -2.304  1.00  0.00     0.068 A 
HETATM   20  C   UNL     1      38.903 -13.460  -1.135  1.00  0.00     0.038 A 
HETATM   21  C   UNL     1      39.271 -12.820   0.057  1.00  0.00     0.026 A 
BRANCH  19  22
HETATM   22  O   UNL     1      39.378 -13.774  -3.529  1.00  0.00    -0.356 OA
HETATM   23  C   UNL     1      38.279 -14.671  -3.622  1.00  0.00     0.210 C 
ENDBRANCH  19  22
ENDBRANCH  14  16
ENDBRANCH  13  14
ENDBRANCH  10  13
BRANCH   1  24
HETATM   24  O   UNL     1      43.629 -18.513   4.924  1.00  0.00    -0.351 OA
BRANCH  24  25
HETATM   25  C   UNL     1      44.292 -19.644   4.359  1.00  0.00     0.171 C 
HETATM   26  C   UNL     1      44.141 -20.807   5.325  1.00  0.00     0.034 C 
ENDBRANCH  24  25
ENDBRANCH   1  24
TORSDOF 6
ENDMDL
MODEL 7
REMARK VINA RESULT:      -7.0      1.557      1.906
REMARK  6 active torsions:
REMARK  status: ('A' for Active; 'I' for Inactive)
REMARK    1  A    between atoms: C_2  and  O_3 
REMARK    2  A    between atoms: O_3  and  C_4 
REMARK    3  A    between atoms: C_13  and  C_14 
REMARK    4  A    between atoms: C_14  and  N_15 
REMARK    5  A    between atoms: N_15  and  C_16 
REMARK    6  A    between atoms: C_19  and  O_20 
ROOT
HETATM    1  C   UNL     1      44.315  -9.548   9.366  1.00  0.00     0.070 A 
HETATM    2  C   UNL     1      43.266  -9.480   8.445  1.00  0.00     0.067 A 
HETATM    3  C   UNL     1      43.377 -10.120   7.212  1.00  0.00     0.048 A 
HETATM    4  C   UNL     1      44.531 -10.837   6.882  1.00  0.00    -0.009 A 
HETATM    5  C   UNL     1      45.574 -10.915   7.807  1.00  0.00     0.016 A 
HETATM    6  C   UNL     1      45.466 -10.273   9.045  1.00  0.00     0.038 A 
HETATM    7  N   UNL     1      42.331 -10.046   6.284  1.00  0.00    -0.322 N 
HETATM    8  C   UNL     1      42.364 -10.644   5.052  1.00  0.00     0.253 A 
HETATM    9  O   UNL     1      41.410 -10.565   4.283  1.00  0.00    -0.268 OA
HETATM   10  C   UNL     1      43.602 -11.394   4.692  1.00  0.00     0.024 A 
HETATM   11  C   UNL     1      44.618 -11.475   5.570  1.00  0.00     0.027 A 
HETATM   12  H   UNL     1      41.485  -9.540   6.511  1.00  0.00     0.169 HD
ENDROOT
BRANCH  10  13
HETATM   13  C   UNL     1      43.665 -11.975   3.309  1.00  0.00     0.136 C 
BRANCH  13  14
HETATM   14  N   UNL     1      42.532 -12.876   3.126  1.00  0.00    -0.289 NA
HETATM   15  H   UNL     1      41.924 -12.547   2.377  1.00  0.00     0.128 HD
BRANCH  14  16
HETATM   16  C   UNL     1      42.762 -14.253   2.997  1.00  0.00     0.008 A 
HETATM   17  C   UNL     1      42.987 -14.898   1.778  1.00  0.00     0.026 A 
HETATM   18  C   UNL     1      43.301 -16.262   1.730  1.00  0.00     0.038 A 
HETATM   19  C   UNL     1      43.432 -17.009   2.900  1.00  0.00     0.068 A 
HETATM   20  C   UNL     1      43.246 -16.375   4.124  1.00  0.00     0.038 A 
HETATM   21  C   UNL     1      42.929 -15.010   4.166  1.00  0.00     0.026 A 
BRANCH  19  22
HETATM   22  O   UNL     1      43.749 -18.325   2.710  1.00  0.00    -0.356 OA
HETATM   23  C   UNL     1      44.084 -19.077   3.868  1.00  0.00     0.210 C 
ENDBRANCH  19  22
ENDBRANCH  14  16
ENDBRANCH  13  14
ENDBRANCH  10  13
BRANCH   1  24
HETATM   24  O   UNL     1      44.094  -8.870  10.533  1.00  0.00    -0.351 OA
BRANCH  24  25
HETATM   25  C   UNL     1      42.922  -9.213  11.272  1.00  0.00     0.171 C 
HETATM   26  C   UNL     1      43.223 -10.467  12.073  1.00  0.00     0.034 C 
ENDBRANCH  24  25
ENDBRANCH   1  24
TORSDOF 6
ENDMDL
MODEL 8
REMARK VINA RESULT:      -7.0      1.590      8.747
REMARK  6 active torsions:
REMARK  status: ('A' for Active; 'I' for Inactive)
REMARK    1  A    between atoms: C_2  and  O_3 
REMARK    2  A    between atoms: O_3  and  C_4 
REMARK    3  A    between atoms: C_13  and  C_14 
REMARK    4  A    between atoms: C_14  and  N_15 
REMARK    5  A    between atoms: N_15  and  C_16 
REMARK    6  A    between atoms: C_19  and  O_20 
ROOT
HETATM    1  C   UNL     1      43.680 -17.719   4.555  1.00  0.00     0.070 A 
HETATM    2  C   UNL     1      43.231 -16.609   3.834  1.00  0.00     0.067 A 
HETATM    3  C   UNL     1      43.211 -15.351   4.432  1.00  0.00     0.048 A 
HETATM    4  C   UNL     1      43.640 -15.181   5.751  1.00  0.00    -0.009 A 
HETATM    5  C   UNL     1      44.099 -16.287   6.468  1.00  0.00     0.016 A 
HETATM    6  C   UNL     1      44.120 -17.552   5.871  1.00  0.00     0.038 A 
HETATM    7  N   UNL     1      42.754 -14.239   3.714  1.00  0.00    -0.322 N 
HETATM    8  C   UNL     1      42.700 -12.971   4.229  1.00  0.00     0.253 A 
HETATM    9  O   UNL     1      42.308 -12.026   3.550  1.00  0.00    -0.268 OA
HETATM   10  C   UNL     1      43.140 -12.792   5.644  1.00  0.00     0.024 A 
HETATM   11  C   UNL     1      43.581 -13.848   6.350  1.00  0.00     0.027 A 
HETATM   12  H   UNL     1      42.450 -14.342   2.754  1.00  0.00     0.169 HD
ENDROOT
BRANCH  10  13
HETATM   13  C   UNL     1      42.999 -11.416   6.229  1.00  0.00     0.136 C 
BRANCH  13  14
HETATM   14  N   UNL     1      44.246 -11.060   6.897  1.00  0.00    -0.289 NA
HETATM   15  H   UNL     1      44.833 -10.490   6.289  1.00  0.00     0.128 HD
BRANCH  14  16
HETATM   16  C   UNL     1      44.205 -10.512   8.186  1.00  0.00     0.008 A 
HETATM   17  C   UNL     1      45.330 -10.325   8.994  1.00  0.00     0.026 A 
HETATM   18  C   UNL     1      45.229  -9.687  10.237  1.00  0.00     0.038 A 
HETATM   19  C   UNL     1      44.008  -9.188  10.689  1.00  0.00     0.068 A 
HETATM   20  C   UNL     1      42.885  -9.334   9.882  1.00  0.00     0.038 A 
HETATM   21  C   UNL     1      42.991  -9.976   8.641  1.00  0.00     0.026 A 
BRANCH  19  22
HETATM   22  O   UNL     1      44.053  -8.581  11.913  1.00  0.00    -0.356 OA
HETATM   23  C   UNL     1      42.817  -8.428  12.597  1.00  0.00     0.210 C 
ENDBRANCH  19  22
ENDBRANCH  14  16
ENDBRANCH  13  14
ENDBRANCH  10  13
BRANCH   1  24
HETATM   24  O   UNL     1      43.641 -18.900   3.866  1.00  0.00    -0.351 OA
BRANCH  24  25
HETATM   25  C   UNL     1      43.355 -18.830   2.470  1.00  0.00     0.171 C 
HETATM   26  C   UNL     1      43.387 -20.242   1.913  1.00  0.00     0.034 C 
ENDBRANCH  24  25
ENDBRANCH   1  24
TORSDOF 6
ENDMDL
MODEL 9
REMARK VINA RESULT:      -6.9     16.295     19.464
REMARK  6 active torsions:
REMARK  status: ('A' for Active; 'I' for Inactive)
REMARK    1  A    between atoms: C_2  and  O_3 
REMARK    2  A    between atoms: O_3  and  C_4 
REMARK    3  A    between atoms: C_13  and  C_14 
REMARK    4  A    between atoms: C_14  and  N_15 
REMARK    5  A    between atoms: N_15  and  C_16 
REMARK    6  A    between atoms: C_19  and  O_20 
ROOT
HETATM    1  C   UNL     1      51.772 -31.817  -0.599  1.00  0.00     0.070 A 
HETATM    2  C   UNL     1      50.910 -31.492   0.454  1.00  0.00     0.067 A 
HETATM    3  C   UNL     1      49.891 -30.561   0.259  1.00  0.00     0.048 A 
HETATM    4  C   UNL     1      49.715 -29.947  -0.984  1.00  0.00    -0.009 A 
HETATM    5  C   UNL     1      50.567 -30.280  -2.038  1.00  0.00     0.016 A 
HETATM    6  C   UNL     1      51.592 -31.213  -1.846  1.00  0.00     0.038 A 
HETATM    7  N   UNL     1      49.033 -30.228   1.313  1.00  0.00    -0.322 N 
HETATM    8  C   UNL     1      48.010 -29.323   1.204  1.00  0.00     0.253 A 
HETATM    9  O   UNL     1      47.273 -29.081   2.156  1.00  0.00    -0.268 OA
HETATM   10  C   UNL     1      47.833 -28.652  -0.117  1.00  0.00     0.024 A 
HETATM   11  C   UNL     1      48.649 -28.959  -1.141  1.00  0.00     0.027 A 
HETATM   12  H   UNL     1      49.140 -30.672   2.216  1.00  0.00     0.169 HD
ENDROOT
BRANCH  10  13
HETATM   13  C   UNL     1      46.765 -27.600  -0.205  1.00  0.00     0.136 C 
BRANCH  13  14
HETATM   14  N   UNL     1      45.466 -28.258  -0.296  1.00  0.00    -0.289 NA
HETATM   15  H   UNL     1      44.745 -27.702   0.164  1.00  0.00     0.128 HD
BRANCH  14  16
HETATM   16  C   UNL     1      45.009 -28.712  -1.541  1.00  0.00     0.008 A 
HETATM   17  C   UNL     1      45.253 -28.057  -2.751  1.00  0.00     0.026 A 
HETATM   18  C   UNL     1      44.847 -28.614  -3.969  1.00  0.00     0.038 A 
HETATM   19  C   UNL     1      44.215 -29.856  -4.013  1.00  0.00     0.068 A 
HETATM   20  C   UNL     1      43.996 -30.539  -2.822  1.00  0.00     0.038 A 
HETATM   21  C   UNL     1      44.403 -29.975  -1.605  1.00  0.00     0.026 A 
BRANCH  19  22
HETATM   22  O   UNL     1      43.879 -30.287  -5.267  1.00  0.00    -0.356 OA
HETATM   23  C   UNL     1      44.875 -31.002  -5.987  1.00  0.00     0.210 C 
ENDBRANCH  19  22
ENDBRANCH  14  16
ENDBRANCH  13  14
ENDBRANCH  10  13
BRANCH   1  24
HETATM   24  O   UNL     1      52.738 -32.731  -0.282  1.00  0.00    -0.351 OA
BRANCH  24  25
HETATM   25  C   UNL     1      53.338 -33.445  -1.363  1.00  0.00     0.171 C 
HETATM   26  C   UNL     1      54.811 -33.079  -1.406  1.00  0.00     0.034 C 
ENDBRANCH  24  25
ENDBRANCH   1  24
TORSDOF 6
ENDMDL
MODEL 10
REMARK VINA RESULT:      -6.9      4.732      8.011
REMARK  6 active torsions:
REMARK  status: ('A' for Active; 'I' for Inactive)
REMARK    1  A    between atoms: C_2  and  O_3 
REMARK    2  A    between atoms: O_3  and  C_4 
REMARK    3  A    between atoms: C_13  and  C_14 
REMARK    4  A    between atoms: C_14  and  N_15 
REMARK    5  A    between atoms: N_15  and  C_16 
REMARK    6  A    between atoms: C_19  and  O_20 
ROOT
HETATM    1  C   UNL     1      43.855 -18.317   4.098  1.00  0.00     0.070 A 
HETATM    2  C   UNL     1      43.114 -17.296   4.700  1.00  0.00     0.067 A 
HETATM    3  C   UNL     1      42.288 -16.483   3.926  1.00  0.00     0.048 A 
HETATM    4  C   UNL     1      42.187 -16.679   2.546  1.00  0.00    -0.009 A 
HETATM    5  C   UNL     1      42.918 -17.706   1.945  1.00  0.00     0.016 A 
HETATM    6  C   UNL     1      43.749 -18.523   2.720  1.00  0.00     0.038 A 
HETATM    7  N   UNL     1      41.552 -15.455   4.525  1.00  0.00    -0.322 N 
HETATM    8  C   UNL     1      40.720 -14.613   3.835  1.00  0.00     0.253 A 
HETATM    9  O   UNL     1      40.081 -13.738   4.412  1.00  0.00    -0.268 OA
HETATM   10  C   UNL     1      40.626 -14.809   2.359  1.00  0.00     0.024 A 
HETATM   11  C   UNL     1      41.328 -15.791   1.765  1.00  0.00     0.027 A 
HETATM   12  H   UNL     1      41.605 -15.306   5.525  1.00  0.00     0.169 HD
ENDROOT
BRANCH  10  13
HETATM   13  C   UNL     1      39.780 -13.830   1.597  1.00  0.00     0.136 C 
BRANCH  13  14
HETATM   14  N   UNL     1      39.715 -14.251   0.202  1.00  0.00    -0.289 NA
HETATM   15  H   UNL     1      38.807 -14.664  -0.011  1.00  0.00     0.128 HD
BRANCH  14  16
HETATM   16  C   UNL     1      40.090 -13.353  -0.807  1.00  0.00     0.008 A 
HETATM   17  C   UNL     1      39.661 -13.442  -2.134  1.00  0.00     0.026 A 
HETATM   18  C   UNL     1      39.999 -12.458  -3.071  1.00  0.00     0.038 A 
HETATM   19  C   UNL     1      40.746 -11.341  -2.698  1.00  0.00     0.068 A 
HETATM   20  C   UNL     1      41.151 -11.217  -1.373  1.00  0.00     0.038 A 
HETATM   21  C   UNL     1      40.811 -12.207  -0.440  1.00  0.00     0.026 A 
BRANCH  19  22
HETATM   22  O   UNL     1      40.998 -10.454  -3.707  1.00  0.00    -0.356 OA
HETATM   23  C   UNL     1      39.996  -9.481  -3.970  1.00  0.00     0.210 C 
ENDBRANCH  19  22
ENDBRANCH  14  16
ENDBRANCH  13  14
ENDBRANCH  10  13
BRANCH   1  24
HETATM   24  O   UNL     1      44.638 -19.037   4.959  1.00  0.00    -0.351 OA
BRANCH  24  25
HETATM   25  C   UNL     1      44.005 -20.086   5.691  1.00  0.00     0.171 C 
HETATM   26  C   UNL     1      43.814 -21.264   4.751  1.00  0.00     0.034 C 
ENDBRANCH  24  25
ENDBRANCH   1  24
TORSDOF 6
ENDMDL
