MODEL 1
REMARK VINA RESULT:      -7.8      0.000      0.000
REMARK  7 active torsions:
REMARK  status: ('A' for Active; 'I' for Inactive)
REMARK    1  A    between atoms: O_2  and  C_3 
REMARK    2  A    between atoms: C_4  and  O_5 
REMARK    3  A    between atoms: C_9  and  C_10 
REMARK    4  A    between atoms: C_10  and  N_11 
REMARK    5  A    between atoms: C_14  and  C_15 
REMARK    6  A    between atoms: C_15  and  N_16 
REMARK    7  A    between atoms: N_16  and  C_17 
ROOT
HETATM    1  N   UNL     1      41.350 -13.202   6.360  1.00  0.00    -0.067 N 
HETATM    2  H   UNL     1      40.786 -13.193   7.226  1.00  0.00     0.280 HD
HETATM    3  C   UNL     1      42.471 -14.201   6.552  1.00  0.00     0.241 C 
HETATM    4  C   UNL     1      42.442 -15.048   5.283  1.00  0.00     0.031 C 
HETATM    5  C   UNL     1      40.946 -15.139   5.003  1.00  0.00     0.035 C 
HETATM    6  C   UNL     1      40.459 -13.718   5.248  1.00  0.00     0.235 C 
ENDROOT
BRANCH   1   7
HETATM    7  C   UNL     1      41.781 -11.764   6.163  1.00  0.00     0.274 C 
BRANCH   7   8
HETATM    8  C   UNL     1      43.252 -11.539   6.407  1.00  0.00    -0.012 A 
HETATM    9  C   UNL     1      44.194 -11.529   5.359  1.00  0.00     0.021 A 
HETATM   10  C   UNL     1      45.541 -11.285   5.619  1.00  0.00     0.059 A 
HETATM   11 BR   UNL     1      43.686 -11.811   3.551  1.00  0.00    -0.050 Br
HETATM   12  C   UNL     1      45.950 -11.045   6.924  1.00  0.00     0.100 A 
HETATM   13  C   UNL     1      45.048 -11.050   7.989  1.00  0.00     0.101 A 
HETATM   14  C   UNL     1      43.702 -11.309   7.727  1.00  0.00     0.049 A 
BRANCH  12  15
HETATM   15  O   UNL     1      47.275 -10.795   7.137  1.00  0.00    -0.358 OA
HETATM   16  H   UNL     1      47.571 -10.212   6.410  1.00  0.00     0.218 HD
ENDBRANCH  12  15
BRANCH  13  17
HETATM   17  O   UNL     1      45.598 -10.781   9.212  1.00  0.00    -0.353 OA
HETATM   18  C   UNL     1      45.331  -9.511   9.794  1.00  0.00     0.210 C 
ENDBRANCH  13  17
ENDBRANCH   7   8
ENDBRANCH   1   7
BRANCH   4  19
HETATM   19  C   UNL     1      43.149 -16.393   5.476  1.00  0.00     0.127 C 
BRANCH  19  20
HETATM   20  N   UNL     1      43.790 -16.837   4.236  1.00  0.00    -0.376 N 
HETATM   21  H   UNL     1      44.562 -16.270   3.902  1.00  0.00     0.161 HD
BRANCH  20  22
HETATM   22  C   UNL     1      43.769 -18.175   3.874  1.00  0.00     0.100 A 
HETATM   23  N   UNL     1      44.117 -19.090   4.798  1.00  0.00    -0.353 N 
HETATM   24  H   UNL     1      44.392 -18.761   5.718  1.00  0.00     0.166 HD
HETATM   25  C   UNL     1      44.141 -20.412   4.569  1.00  0.00     0.089 A 
HETATM   26  C   UNL     1      43.804 -20.909   3.322  1.00  0.00     0.017 A 
HETATM   27  C   UNL     1      43.458 -20.014   2.321  1.00  0.00     0.005 A 
HETATM   28  C   UNL     1      43.448 -18.646   2.593  1.00  0.00     0.048 A 
ENDBRANCH  20  22
ENDBRANCH  19  20
ENDBRANCH   4  19
TORSDOF 7
ENDMDL
MODEL 2
REMARK VINA RESULT:      -7.8      5.698      8.367
REMARK  7 active torsions:
REMARK  status: ('A' for Active; 'I' for Inactive)
REMARK    1  A    between atoms: O_2  and  C_3 
REMARK    2  A    between atoms: C_4  and  O_5 
REMARK    3  A    between atoms: C_9  and  C_10 
REMARK    4  A    between atoms: C_10  and  N_11 
REMARK    5  A    between atoms: C_14  and  C_15 
REMARK    6  A    between atoms: C_15  and  N_16 
REMARK    7  A    between atoms: N_16  and  C_17 
ROOT
HETATM    1  N   UNL     1      42.190 -15.998   2.620  1.00  0.00    -0.067 N 
HETATM    2  H   UNL     1      42.396 -16.857   2.084  1.00  0.00     0.280 HD
HETATM    3  C   UNL     1      42.433 -14.816   1.706  1.00  0.00     0.241 C 
HETATM    4  C   UNL     1      41.187 -13.950   1.873  1.00  0.00     0.031 C 
HETATM    5  C   UNL     1      40.093 -15.002   2.015  1.00  0.00     0.035 C 
HETATM    6  C   UNL     1      40.713 -16.023   2.958  1.00  0.00     0.235 C 
ENDROOT
BRANCH   1   7
HETATM    7  C   UNL     1      43.084 -16.079   3.840  1.00  0.00     0.274 C 
BRANCH   7   8
HETATM    8  C   UNL     1      43.417 -17.492   4.248  1.00  0.00    -0.012 A 
HETATM    9  C   UNL     1      43.535 -17.875   5.598  1.00  0.00     0.021 A 
HETATM   10  C   UNL     1      43.811 -19.198   5.938  1.00  0.00     0.059 A 
HETATM   11 BR   UNL     1      43.296 -16.636   7.018  1.00  0.00    -0.050 Br
HETATM   12  C   UNL     1      43.964 -20.142   4.932  1.00  0.00     0.100 A 
HETATM   13  C   UNL     1      43.857 -19.801   3.582  1.00  0.00     0.101 A 
HETATM   14  C   UNL     1      43.595 -18.472   3.245  1.00  0.00     0.049 A 
BRANCH  12  15
HETATM   15  O   UNL     1      44.218 -21.431   5.304  1.00  0.00    -0.358 OA
HETATM   16  H   UNL     1      45.017 -21.711   4.816  1.00  0.00     0.218 HD
ENDBRANCH  12  15
BRANCH  13  17
HETATM   17  O   UNL     1      44.016 -20.841   2.709  1.00  0.00    -0.353 OA
HETATM   18  C   UNL     1      43.545 -20.667   1.378  1.00  0.00     0.210 C 
ENDBRANCH  13  17
ENDBRANCH   7   8
ENDBRANCH   1   7
BRANCH   4  19
HETATM   19  C   UNL     1      41.005 -12.978   0.702  1.00  0.00     0.127 C 
BRANCH  19  20
HETATM   20  N   UNL     1      40.970 -13.692  -0.577  1.00  0.00    -0.376 N 
HETATM   21  H   UNL     1      41.591 -14.490  -0.663  1.00  0.00     0.161 HD
BRANCH  20  22
HETATM   22  C   UNL     1      39.824 -13.679  -1.356  1.00  0.00     0.100 A 
HETATM   23  N   UNL     1      38.871 -12.772  -1.073  1.00  0.00    -0.353 N 
HETATM   24  H   UNL     1      39.025 -12.143  -0.292  1.00  0.00     0.166 HD
HETATM   25  C   UNL     1      37.717 -12.663  -1.751  1.00  0.00     0.089 A 
HETATM   26  C   UNL     1      37.446 -13.517  -2.806  1.00  0.00     0.017 A 
HETATM   27  C   UNL     1      38.380 -14.488  -3.131  1.00  0.00     0.005 A 
HETATM   28  C   UNL     1      39.566 -14.576  -2.403  1.00  0.00     0.048 A 
ENDBRANCH  20  22
ENDBRANCH  19  20
ENDBRANCH   4  19
TORSDOF 7
ENDMDL
MODEL 3
REMARK VINA RESULT:      -7.5      3.680      8.298
REMARK  7 active torsions:
REMARK  status: ('A' for Active; 'I' for Inactive)
REMARK    1  A    between atoms: O_2  and  C_3 
REMARK    2  A    between atoms: C_4  and  O_5 
REMARK    3  A    between atoms: C_9  and  C_10 
REMARK    4  A    between atoms: C_10  and  N_11 
REMARK    5  A    between atoms: C_14  and  C_15 
REMARK    6  A    between atoms: C_15  and  N_16 
REMARK    7  A    between atoms: N_16  and  C_17 
ROOT
HETATM    1  N   UNL     1      43.215 -14.045   4.217  1.00  0.00    -0.067 N 
HETATM    2  H   UNL     1      44.145 -14.494   4.218  1.00  0.00     0.280 HD
HETATM    3  C   UNL     1      43.130 -13.158   5.440  1.00  0.00     0.241 C 
HETATM    4  C   UNL     1      42.600 -11.830   4.906  1.00  0.00     0.031 C 
HETATM    5  C   UNL     1      43.291 -11.741   3.550  1.00  0.00     0.035 C 
HETATM    6  C   UNL     1      43.149 -13.152   2.994  1.00  0.00     0.235 C 
ENDROOT
BRANCH   1   7
HETATM    7  C   UNL     1      42.230 -15.195   4.171  1.00  0.00     0.274 C 
BRANCH   7   8
HETATM    8  C   UNL     1      42.859 -16.536   4.453  1.00  0.00    -0.012 A 
HETATM    9  C   UNL     1      43.003 -17.039   5.760  1.00  0.00     0.021 A 
HETATM   10  C   UNL     1      43.560 -18.297   5.979  1.00  0.00     0.059 A 
HETATM   11 BR   UNL     1      42.425 -16.058   7.281  1.00  0.00    -0.050 Br
HETATM   12  C   UNL     1      43.969 -19.059   4.893  1.00  0.00     0.100 A 
HETATM   13  C   UNL     1      43.846 -18.594   3.582  1.00  0.00     0.101 A 
HETATM   14  C   UNL     1      43.301 -17.328   3.368  1.00  0.00     0.049 A 
BRANCH  12  15
HETATM   15  O   UNL     1      44.495 -20.293   5.146  1.00  0.00    -0.358 OA
HETATM   16  H   UNL     1      44.082 -20.610   5.973  1.00  0.00     0.218 HD
ENDBRANCH  12  15
BRANCH  13  17
HETATM   17  O   UNL     1      44.277 -19.464   2.618  1.00  0.00    -0.353 OA
HETATM   18  C   UNL     1      43.293 -20.206   1.907  1.00  0.00     0.210 C 
ENDBRANCH  13  17
ENDBRANCH   7   8
ENDBRANCH   1   7
BRANCH   4  19
HETATM   19  C   UNL     1      42.896 -10.669   5.861  1.00  0.00     0.127 C 
BRANCH  19  20
HETATM   20  N   UNL     1      42.819 -11.102   7.259  1.00  0.00    -0.376 N 
HETATM   21  H   UNL     1      42.435 -12.026   7.422  1.00  0.00     0.161 HD
BRANCH  20  22
HETATM   22  C   UNL     1      43.702 -10.595   8.200  1.00  0.00     0.100 A 
HETATM   23  N   UNL     1      43.411 -10.767   9.503  1.00  0.00    -0.353 N 
HETATM   24  H   UNL     1      42.551 -11.250   9.742  1.00  0.00     0.166 HD
HETATM   25  C   UNL     1      44.182 -10.319  10.506  1.00  0.00     0.089 A 
HETATM   26  C   UNL     1      45.350  -9.628  10.233  1.00  0.00     0.017 A 
HETATM   27  C   UNL     1      45.691  -9.399   8.909  1.00  0.00     0.005 A 
HETATM   28  C   UNL     1      44.865  -9.875   7.891  1.00  0.00     0.048 A 
ENDBRANCH  20  22
ENDBRANCH  19  20
ENDBRANCH   4  19
TORSDOF 7
ENDMDL
MODEL 4
REMARK VINA RESULT:      -7.2      5.655      8.225
REMARK  7 active torsions:
REMARK  status: ('A' for Active; 'I' for Inactive)
REMARK    1  A    between atoms: O_2  and  C_3 
REMARK    2  A    between atoms: C_4  and  O_5 
REMARK    3  A    between atoms: C_9  and  C_10 
REMARK    4  A    between atoms: C_10  and  N_11 
REMARK    5  A    between atoms: C_14  and  C_15 
REMARK    6  A    between atoms: C_15  and  N_16 
REMARK    7  A    between atoms: N_16  and  C_17 
ROOT
HETATM    1  N   UNL     1      41.188 -15.263   3.484  1.00  0.00    -0.067 N 
HETATM    2  H   UNL     1      40.672 -15.913   4.099  1.00  0.00     0.280 HD
HETATM    3  C   UNL     1      41.009 -15.739   2.058  1.00  0.00     0.241 C 
HETATM    4  C   UNL     1      40.617 -14.481   1.288  1.00  0.00     0.031 C 
HETATM    5  C   UNL     1      39.744 -13.753   2.304  1.00  0.00     0.035 C 
HETATM    6  C   UNL     1      40.521 -13.907   3.604  1.00  0.00     0.235 C 
ENDROOT
BRANCH   1   7
HETATM    7  C   UNL     1      42.609 -15.279   4.007  1.00  0.00     0.274 C 
BRANCH   7   8
HETATM    8  C   UNL     1      43.083 -16.651   4.416  1.00  0.00    -0.012 A 
HETATM    9  C   UNL     1      43.076 -17.079   5.758  1.00  0.00     0.021 A 
HETATM   10  C   UNL     1      43.491 -18.366   6.094  1.00  0.00     0.059 A 
HETATM   11 BR   UNL     1      42.480 -15.953   7.167  1.00  0.00    -0.050 Br
HETATM   12  C   UNL     1      43.907 -19.231   5.091  1.00  0.00     0.100 A 
HETATM   13  C   UNL     1      43.930 -18.843   3.750  1.00  0.00     0.101 A 
HETATM   14  C   UNL     1      43.528 -17.549   3.419  1.00  0.00     0.049 A 
BRANCH  12  15
HETATM   15  O   UNL     1      44.290 -20.489   5.457  1.00  0.00    -0.358 OA
HETATM   16  H   UNL     1      43.988 -20.618   6.378  1.00  0.00     0.218 HD
ENDBRANCH  12  15
BRANCH  13  17
HETATM   17  O   UNL     1      44.348 -19.810   2.877  1.00  0.00    -0.353 OA
HETATM   18  C   UNL     1      43.402 -20.311   1.941  1.00  0.00     0.210 C 
ENDBRANCH  13  17
ENDBRANCH   7   8
ENDBRANCH   1   7
BRANCH   4  19
HETATM   19  C   UNL     1      39.927 -14.814  -0.039  1.00  0.00     0.127 C 
BRANCH  19  20
HETATM   20  N   UNL     1      39.085 -13.705  -0.491  1.00  0.00    -0.376 N 
HETATM   21  H   UNL     1      38.371 -13.390   0.158  1.00  0.00     0.161 HD
BRANCH  20  22
HETATM   22  C   UNL     1      39.564 -12.790  -1.415  1.00  0.00     0.100 A 
HETATM   23  N   UNL     1      40.743 -13.047  -2.013  1.00  0.00    -0.353 N 
HETATM   24  H   UNL     1      41.238 -13.893  -1.752  1.00  0.00     0.166 HD
HETATM   25  C   UNL     1      41.313 -12.238  -2.920  1.00  0.00     0.089 A 
HETATM   26  C   UNL     1      40.693 -11.056  -3.287  1.00  0.00     0.017 A 
HETATM   27  C   UNL     1      39.487 -10.726  -2.689  1.00  0.00     0.005 A 
HETATM   28  C   UNL     1      38.924 -11.587  -1.747  1.00  0.00     0.048 A 
ENDBRANCH  20  22
ENDBRANCH  19  20
ENDBRANCH   4  19
TORSDOF 7
ENDMDL
MODEL 5
REMARK VINA RESULT:      -7.2      3.488      8.167
REMARK  7 active torsions:
REMARK  status: ('A' for Active; 'I' for Inactive)
REMARK    1  A    between atoms: O_2  and  C_3 
REMARK    2  A    between atoms: C_4  and  O_5 
REMARK    3  A    between atoms: C_9  and  C_10 
REMARK    4  A    between atoms: C_10  and  N_11 
REMARK    5  A    between atoms: C_14  and  C_15 
REMARK    6  A    between atoms: C_15  and  N_16 
REMARK    7  A    between atoms: N_16  and  C_17 
ROOT
HETATM    1  N   UNL     1      42.904 -13.881   4.785  1.00  0.00    -0.067 N 
HETATM    2  H   UNL     1      43.757 -14.412   5.024  1.00  0.00     0.280 HD
HETATM    3  C   UNL     1      42.646 -12.896   5.906  1.00  0.00     0.241 C 
HETATM    4  C   UNL     1      42.394 -11.571   5.191  1.00  0.00     0.031 C 
HETATM    5  C   UNL     1      43.373 -11.654   4.025  1.00  0.00     0.035 C 
HETATM    6  C   UNL     1      43.207 -13.085   3.532  1.00  0.00     0.235 C 
ENDROOT
BRANCH   1   7
HETATM    7  C   UNL     1      41.836 -14.935   4.581  1.00  0.00     0.274 C 
BRANCH   7   8
HETATM    8  C   UNL     1      42.356 -16.203   3.951  1.00  0.00    -0.012 A 
HETATM    9  C   UNL     1      42.052 -16.561   2.623  1.00  0.00     0.021 A 
HETATM   10  C   UNL     1      42.577 -17.724   2.064  1.00  0.00     0.059 A 
HETATM   11 BR   UNL     1      40.948 -15.479   1.520  1.00  0.00    -0.050 Br
HETATM   12  C   UNL     1      43.413 -18.529   2.827  1.00  0.00     0.100 A 
HETATM   13  C   UNL     1      43.736 -18.209   4.148  1.00  0.00     0.101 A 
HETATM   14  C   UNL     1      43.196 -17.051   4.708  1.00  0.00     0.049 A 
BRANCH  12  15
HETATM   15  O   UNL     1      43.922 -19.651   2.241  1.00  0.00    -0.358 OA
HETATM   16  H   UNL     1      43.989 -19.462   1.284  1.00  0.00     0.218 HD
ENDBRANCH  12  15
BRANCH  13  17
HETATM   17  O   UNL     1      44.583 -19.089   4.764  1.00  0.00    -0.353 OA
HETATM   18  C   UNL     1      44.004 -20.171   5.484  1.00  0.00     0.210 C 
ENDBRANCH  13  17
ENDBRANCH   7   8
ENDBRANCH   1   7
BRANCH   4  19
HETATM   19  C   UNL     1      42.594 -10.371   6.122  1.00  0.00     0.127 C 
BRANCH  19  20
HETATM   20  N   UNL     1      42.560 -10.781   7.528  1.00  0.00    -0.376 N 
HETATM   21  H   UNL     1      42.084 -11.654   7.730  1.00  0.00     0.161 HD
BRANCH  20  22
HETATM   22  C   UNL     1      43.554 -10.372   8.402  1.00  0.00     0.100 A 
HETATM   23  N   UNL     1      43.412 -10.662   9.709  1.00  0.00    -0.353 N 
HETATM   24  H   UNL     1      42.577 -11.159  10.001  1.00  0.00     0.166 HD
HETATM   25  C   UNL     1      44.301 -10.317  10.653  1.00  0.00     0.089 A 
HETATM   26  C   UNL     1      45.443  -9.612  10.310  1.00  0.00     0.017 A 
HETATM   27  C   UNL     1      45.634  -9.263   8.982  1.00  0.00     0.005 A 
HETATM   28  C   UNL     1      44.687  -9.635   8.028  1.00  0.00     0.048 A 
ENDBRANCH  20  22
ENDBRANCH  19  20
ENDBRANCH   4  19
TORSDOF 7
ENDMDL
MODEL 6
REMARK VINA RESULT:      -7.2      3.777      5.109
REMARK  7 active torsions:
REMARK  status: ('A' for Active; 'I' for Inactive)
REMARK    1  A    between atoms: O_2  and  C_3 
REMARK    2  A    between atoms: C_4  and  O_5 
REMARK    3  A    between atoms: C_9  and  C_10 
REMARK    4  A    between atoms: C_10  and  N_11 
REMARK    5  A    between atoms: C_14  and  C_15 
REMARK    6  A    between atoms: C_15  and  N_16 
REMARK    7  A    between atoms: N_16  and  C_17 
ROOT
HETATM    1  N   UNL     1      41.980 -13.833   6.621  1.00  0.00    -0.067 N 
HETATM    2  H   UNL     1      41.951 -13.370   7.544  1.00  0.00     0.280 HD
HETATM    3  C   UNL     1      43.088 -14.864   6.659  1.00  0.00     0.241 C 
HETATM    4  C   UNL     1      42.446 -16.127   6.090  1.00  0.00     0.031 C 
HETATM    5  C   UNL     1      41.031 -16.036   6.650  1.00  0.00     0.035 C 
HETATM    6  C   UNL     1      40.669 -14.572   6.446  1.00  0.00     0.235 C 
ENDROOT
BRANCH   1   7
HETATM    7  C   UNL     1      42.169 -12.705   5.628  1.00  0.00     0.274 C 
BRANCH   7   8
HETATM    8  C   UNL     1      41.084 -12.638   4.583  1.00  0.00    -0.012 A 
HETATM    9  C   UNL     1      40.058 -11.674   4.626  1.00  0.00     0.021 A 
HETATM   10  C   UNL     1      39.091 -11.622   3.625  1.00  0.00     0.059 A 
HETATM   11 BR   UNL     1      39.952 -10.384   6.016  1.00  0.00    -0.050 Br
HETATM   12  C   UNL     1      39.149 -12.528   2.574  1.00  0.00     0.100 A 
HETATM   13  C   UNL     1      40.148 -13.500   2.497  1.00  0.00     0.101 A 
HETATM   14  C   UNL     1      41.106 -13.558   3.510  1.00  0.00     0.049 A 
BRANCH  12  15
HETATM   15  O   UNL     1      38.194 -12.436   1.603  1.00  0.00    -0.358 OA
HETATM   16  H   UNL     1      37.430 -11.975   2.004  1.00  0.00     0.218 HD
ENDBRANCH  12  15
BRANCH  13  17
HETATM   17  O   UNL     1      40.083 -14.309   1.397  1.00  0.00    -0.353 OA
HETATM   18  C   UNL     1      39.974 -15.711   1.610  1.00  0.00     0.210 C 
ENDBRANCH  13  17
ENDBRANCH   7   8
ENDBRANCH   1   7
BRANCH   4  19
HETATM   19  C   UNL     1      43.219 -17.390   6.483  1.00  0.00     0.127 C 
BRANCH  19  20
HETATM   20  N   UNL     1      44.241 -17.716   5.486  1.00  0.00    -0.376 N 
HETATM   21  H   UNL     1      45.203 -17.703   5.807  1.00  0.00     0.161 HD
BRANCH  20  22
HETATM   22  C   UNL     1      43.933 -18.528   4.406  1.00  0.00     0.100 A 
HETATM   23  N   UNL     1      44.120 -19.855   4.532  1.00  0.00    -0.353 N 
HETATM   24  H   UNL     1      44.491 -20.205   5.410  1.00  0.00     0.166 HD
HETATM   25  C   UNL     1      43.864 -20.743   3.559  1.00  0.00     0.089 A 
HETATM   26  C   UNL     1      43.385 -20.314   2.333  1.00  0.00     0.017 A 
HETATM   27  C   UNL     1      43.193 -18.956   2.134  1.00  0.00     0.005 A 
HETATM   28  C   UNL     1      43.474 -18.060   3.166  1.00  0.00     0.048 A 
ENDBRANCH  20  22
ENDBRANCH  19  20
ENDBRANCH   4  19
TORSDOF 7
ENDMDL
MODEL 7
REMARK VINA RESULT:      -7.1      3.876      8.733
REMARK  7 active torsions:
REMARK  status: ('A' for Active; 'I' for Inactive)
REMARK    1  A    between atoms: O_2  and  C_3 
REMARK    2  A    between atoms: C_4  and  O_5 
REMARK    3  A    between atoms: C_9  and  C_10 
REMARK    4  A    between atoms: C_10  and  N_11 
REMARK    5  A    between atoms: C_14  and  C_15 
REMARK    6  A    between atoms: C_15  and  N_16 
REMARK    7  A    between atoms: N_16  and  C_17 
ROOT
HETATM    1  N   UNL     1      44.912 -11.535   7.488  1.00  0.00    -0.067 N 
HETATM    2  H   UNL     1      45.185 -12.424   7.936  1.00  0.00     0.280 HD
HETATM    3  C   UNL     1      43.946 -10.830   8.416  1.00  0.00     0.241 C 
HETATM    4  C   UNL     1      44.477  -9.401   8.496  1.00  0.00     0.031 C 
HETATM    5  C   UNL     1      45.984  -9.626   8.470  1.00  0.00     0.035 C 
HETATM    6  C   UNL     1      46.160 -10.680   7.386  1.00  0.00     0.235 C 
ENDROOT
BRANCH   1   7
HETATM    7  C   UNL     1      44.350 -11.937   6.140  1.00  0.00     0.274 C 
BRANCH   7   8
HETATM    8  C   UNL     1      43.076 -12.737   6.236  1.00  0.00    -0.012 A 
HETATM    9  C   UNL     1      41.832 -12.221   5.824  1.00  0.00     0.021 A 
HETATM   10  C   UNL     1      40.681 -13.003   5.897  1.00  0.00     0.059 A 
HETATM   11 BR   UNL     1      41.657 -10.464   5.125  1.00  0.00    -0.050 Br
HETATM   12  C   UNL     1      40.770 -14.303   6.375  1.00  0.00     0.100 A 
HETATM   13  C   UNL     1      41.983 -14.850   6.795  1.00  0.00     0.101 A 
HETATM   14  C   UNL     1      43.132 -14.059   6.734  1.00  0.00     0.049 A 
BRANCH  12  15
HETATM   15  O   UNL     1      39.623 -15.044   6.416  1.00  0.00    -0.358 OA
HETATM   16  H   UNL     1      39.593 -15.560   5.586  1.00  0.00     0.218 HD
ENDBRANCH  12  15
BRANCH  13  17
HETATM   17  O   UNL     1      41.915 -16.147   7.224  1.00  0.00    -0.353 OA
HETATM   18  C   UNL     1      42.978 -17.021   6.865  1.00  0.00     0.210 C 
ENDBRANCH  13  17
ENDBRANCH   7   8
ENDBRANCH   1   7
BRANCH   4  19
HETATM   19  C   UNL     1      43.952  -8.664   9.733  1.00  0.00     0.127 C 
BRANCH  19  20
HETATM   20  N   UNL     1      43.929  -9.545  10.903  1.00  0.00    -0.376 N 
HETATM   21  H   UNL     1      44.832  -9.819  11.277  1.00  0.00     0.161 HD
BRANCH  20  22
HETATM   22  C   UNL     1      42.849  -9.531  11.771  1.00  0.00     0.100 A 
HETATM   23  N   UNL     1      41.689 -10.070  11.354  1.00  0.00    -0.353 N 
HETATM   24  H   UNL     1      41.649 -10.454  10.415  1.00  0.00     0.166 HD
HETATM   25  C   UNL     1      40.573 -10.113  12.098  1.00  0.00     0.089 A 
HETATM   26  C   UNL     1      40.566  -9.575  13.374  1.00  0.00     0.017 A 
HETATM   27  C   UNL     1      41.725  -8.985  13.852  1.00  0.00     0.005 A 
HETATM   28  C   UNL     1      42.865  -8.954  13.050  1.00  0.00     0.048 A 
ENDBRANCH  20  22
ENDBRANCH  19  20
ENDBRANCH   4  19
TORSDOF 7
ENDMDL
MODEL 8
REMARK VINA RESULT:      -7.1      5.741      7.399
REMARK  7 active torsions:
REMARK  status: ('A' for Active; 'I' for Inactive)
REMARK    1  A    between atoms: O_2  and  C_3 
REMARK    2  A    between atoms: C_4  and  O_5 
REMARK    3  A    between atoms: C_9  and  C_10 
REMARK    4  A    between atoms: C_10  and  N_11 
REMARK    5  A    between atoms: C_14  and  C_15 
REMARK    6  A    between atoms: C_15  and  N_16 
REMARK    7  A    between atoms: N_16  and  C_17 
ROOT
HETATM    1  N   UNL     1      41.161 -14.181   1.773  1.00  0.00    -0.067 N 
HETATM    2  H   UNL     1      41.407 -14.472   0.814  1.00  0.00     0.280 HD
HETATM    3  C   UNL     1      41.208 -15.412   2.654  1.00  0.00     0.241 C 
HETATM    4  C   UNL     1      42.025 -14.975   3.867  1.00  0.00     0.031 C 
HETATM    5  C   UNL     1      43.064 -14.060   3.230  1.00  0.00     0.035 C 
HETATM    6  C   UNL     1      42.244 -13.234   2.248  1.00  0.00     0.235 C 
ENDROOT
BRANCH   1   7
HETATM    7  C   UNL     1      39.804 -13.521   1.642  1.00  0.00     0.274 C 
BRANCH   7   8
HETATM    8  C   UNL     1      39.569 -12.897   0.289  1.00  0.00    -0.012 A 
HETATM    9  C   UNL     1      39.416 -11.507   0.119  1.00  0.00     0.021 A 
HETATM   10  C   UNL     1      39.232 -10.963  -1.150  1.00  0.00     0.059 A 
HETATM   11 BR   UNL     1      39.481 -10.304   1.588  1.00  0.00    -0.050 Br
HETATM   12  C   UNL     1      39.208 -11.805  -2.254  1.00  0.00     0.100 A 
HETATM   13  C   UNL     1      39.353 -13.188  -2.127  1.00  0.00     0.101 A 
HETATM   14  C   UNL     1      39.522 -13.730  -0.852  1.00  0.00     0.049 A 
BRANCH  12  15
HETATM   15  O   UNL     1      39.043 -11.235  -3.483  1.00  0.00    -0.358 OA
HETATM   16  H   UNL     1      39.192 -11.941  -4.143  1.00  0.00     0.218 HD
ENDBRANCH  12  15
BRANCH  13  17
HETATM   17  O   UNL     1      39.324 -13.883  -3.305  1.00  0.00    -0.353 OA
HETATM   18  C   UNL     1      38.217 -14.745  -3.538  1.00  0.00     0.210 C 
ENDBRANCH  13  17
ENDBRANCH   7   8
ENDBRANCH   1   7
BRANCH   4  19
HETATM   19  C   UNL     1      42.598 -16.173   4.632  1.00  0.00     0.127 C 
BRANCH  19  20
HETATM   20  N   UNL     1      43.702 -16.791   3.895  1.00  0.00    -0.376 N 
HETATM   21  H   UNL     1      44.593 -16.307   3.931  1.00  0.00     0.161 HD
BRANCH  20  22
HETATM   22  C   UNL     1      43.721 -18.160   3.676  1.00  0.00     0.100 A 
HETATM   23  N   UNL     1      44.148 -18.959   4.672  1.00  0.00    -0.353 N 
HETATM   24  H   UNL     1      44.451 -18.524   5.538  1.00  0.00     0.166 HD
HETATM   25  C   UNL     1      44.217 -20.296   4.581  1.00  0.00     0.089 A 
HETATM   26  C   UNL     1      43.845 -20.935   3.410  1.00  0.00     0.017 A 
HETATM   27  C   UNL     1      43.417 -20.164   2.341  1.00  0.00     0.005 A 
HETATM   28  C   UNL     1      43.362 -18.776   2.468  1.00  0.00     0.048 A 
ENDBRANCH  20  22
ENDBRANCH  19  20
ENDBRANCH   4  19
TORSDOF 7
ENDMDL
MODEL 9
REMARK VINA RESULT:      -7.1      4.027      5.309
REMARK  7 active torsions:
REMARK  status: ('A' for Active; 'I' for Inactive)
REMARK    1  A    between atoms: O_2  and  C_3 
REMARK    2  A    between atoms: C_4  and  O_5 
REMARK    3  A    between atoms: C_9  and  C_10 
REMARK    4  A    between atoms: C_10  and  N_11 
REMARK    5  A    between atoms: C_14  and  C_15 
REMARK    6  A    between atoms: C_15  and  N_16 
REMARK    7  A    between atoms: N_16  and  C_17 
ROOT
HETATM    1  N   UNL     1      41.882 -13.533   5.332  1.00  0.00    -0.067 N 
HETATM    2  H   UNL     1      41.677 -12.913   6.132  1.00  0.00     0.280 HD
HETATM    3  C   UNL     1      42.987 -14.479   5.754  1.00  0.00     0.241 C 
HETATM    4  C   UNL     1      42.484 -15.857   5.331  1.00  0.00     0.031 C 
HETATM    5  C   UNL     1      40.990 -15.743   5.611  1.00  0.00     0.035 C 
HETATM    6  C   UNL     1      40.639 -14.362   5.075  1.00  0.00     0.235 C 
ENDROOT
BRANCH   1   7
HETATM    7  C   UNL     1      42.222 -12.596   4.192  1.00  0.00     0.274 C 
BRANCH   7   8
HETATM    8  C   UNL     1      41.355 -12.794   2.973  1.00  0.00    -0.012 A 
HETATM    9  C   UNL     1      41.720 -13.661   1.925  1.00  0.00     0.021 A 
HETATM   10  C   UNL     1      40.879 -13.843   0.830  1.00  0.00     0.059 A 
HETATM   11 BR   UNL     1      43.345 -14.644   1.956  1.00  0.00    -0.050 Br
HETATM   12  C   UNL     1      39.668 -13.165   0.782  1.00  0.00     0.100 A 
HETATM   13  C   UNL     1      39.272 -12.296   1.799  1.00  0.00     0.101 A 
HETATM   14  C   UNL     1      40.124 -12.104   2.887  1.00  0.00     0.049 A 
BRANCH  12  15
HETATM   15  O   UNL     1      38.862 -13.382  -0.299  1.00  0.00    -0.358 OA
HETATM   16  H   UNL     1      38.848 -12.548  -0.810  1.00  0.00     0.218 HD
ENDBRANCH  12  15
BRANCH  13  17
HETATM   17  O   UNL     1      38.047 -11.715   1.618  1.00  0.00    -0.353 OA
HETATM   18  C   UNL     1      37.967 -10.297   1.704  1.00  0.00     0.210 C 
ENDBRANCH  13  17
ENDBRANCH   7   8
ENDBRANCH   1   7
BRANCH   4  19
HETATM   19  C   UNL     1      43.202 -16.983   6.083  1.00  0.00     0.127 C 
BRANCH  19  20
HETATM   20  N   UNL     1      44.293 -17.541   5.282  1.00  0.00    -0.376 N 
HETATM   21  H   UNL     1      45.218 -17.509   5.699  1.00  0.00     0.161 HD
BRANCH  20  22
HETATM   22  C   UNL     1      44.042 -18.533   4.348  1.00  0.00     0.100 A 
HETATM   23  N   UNL     1      44.140 -19.817   4.739  1.00  0.00    -0.353 N 
HETATM   24  H   UNL     1      44.407 -20.006   5.699  1.00  0.00     0.166 HD
HETATM   25  C   UNL     1      43.926 -20.865   3.928  1.00  0.00     0.089 A 
HETATM   26  C   UNL     1      43.590 -20.661   2.600  1.00  0.00     0.017 A 
HETATM   27  C   UNL     1      43.495 -19.360   2.132  1.00  0.00     0.005 A 
HETATM   28  C   UNL     1      43.728 -18.295   3.001  1.00  0.00     0.048 A 
ENDBRANCH  20  22
ENDBRANCH  19  20
ENDBRANCH   4  19
TORSDOF 7
ENDMDL
MODEL 10
REMARK VINA RESULT:      -7.0      2.246      3.134
REMARK  7 active torsions:
REMARK  status: ('A' for Active; 'I' for Inactive)
REMARK    1  A    between atoms: O_2  and  C_3 
REMARK    2  A    between atoms: C_4  and  O_5 
REMARK    3  A    between atoms: C_9  and  C_10 
REMARK    4  A    between atoms: C_10  and  N_11 
REMARK    5  A    between atoms: C_14  and  C_15 
REMARK    6  A    between atoms: C_15  and  N_16 
REMARK    7  A    between atoms: N_16  and  C_17 
ROOT
HETATM    1  N   UNL     1      40.203 -14.455   3.096  1.00  0.00    -0.067 N 
HETATM    2  H   UNL     1      39.366 -15.014   3.327  1.00  0.00     0.280 HD
HETATM    3  C   UNL     1      41.411 -15.357   3.232  1.00  0.00     0.241 C 
HETATM    4  C   UNL     1      42.202 -15.123   1.948  1.00  0.00     0.031 C 
HETATM    5  C   UNL     1      41.087 -14.953   0.922  1.00  0.00     0.035 C 
HETATM    6  C   UNL     1      40.088 -14.055   1.639  1.00  0.00     0.235 C 
ENDROOT
BRANCH   1   7
HETATM    7  C   UNL     1      40.155 -13.276   4.046  1.00  0.00     0.274 C 
BRANCH   7   8
HETATM    8  C   UNL     1      41.464 -13.020   4.751  1.00  0.00    -0.012 A 
HETATM    9  C   UNL     1      42.388 -12.060   4.295  1.00  0.00     0.021 A 
HETATM   10  C   UNL     1      43.572 -11.828   4.991  1.00  0.00     0.059 A 
HETATM   11 BR   UNL     1      42.064 -11.015   2.742  1.00  0.00    -0.050 Br
HETATM   12  C   UNL     1      43.834 -12.550   6.148  1.00  0.00     0.100 A 
HETATM   13  C   UNL     1      42.945 -13.512   6.631  1.00  0.00     0.101 A 
HETATM   14  C   UNL     1      41.767 -13.752   5.922  1.00  0.00     0.049 A 
BRANCH  12  15
HETATM   15  O   UNL     1      44.997 -12.284   6.812  1.00  0.00    -0.358 OA
HETATM   16  H   UNL     1      44.745 -11.972   7.704  1.00  0.00     0.218 HD
ENDBRANCH  12  15
BRANCH  13  17
HETATM   17  O   UNL     1      43.333 -14.128   7.788  1.00  0.00    -0.353 OA
HETATM   18  C   UNL     1      43.044 -15.514   7.931  1.00  0.00     0.210 C 
ENDBRANCH  13  17
ENDBRANCH   7   8
ENDBRANCH   1   7
BRANCH   4  19
HETATM   19  C   UNL     1      43.178 -16.268   1.661  1.00  0.00     0.127 C 
BRANCH  19  20
HETATM   20  N   UNL     1      42.530 -17.570   1.825  1.00  0.00    -0.376 N 
HETATM   21  H   UNL     1      41.948 -17.884   1.055  1.00  0.00     0.161 HD
BRANCH  20  22
HETATM   22  C   UNL     1      43.095 -18.538   2.641  1.00  0.00     0.100 A 
HETATM   23  N   UNL     1      43.583 -18.158   3.836  1.00  0.00    -0.353 N 
HETATM   24  H   UNL     1      43.528 -17.176   4.086  1.00  0.00     0.166 HD
HETATM   25  C   UNL     1      44.157 -18.999   4.711  1.00  0.00     0.089 A 
HETATM   26  C   UNL     1      44.284 -20.343   4.405  1.00  0.00     0.017 A 
HETATM   27  C   UNL     1      43.821 -20.791   3.178  1.00  0.00     0.005 A 
HETATM   28  C   UNL     1      43.233 -19.889   2.291  1.00  0.00     0.048 A 
ENDBRANCH  20  22
ENDBRANCH  19  20
ENDBRANCH   4  19
TORSDOF 7
ENDMDL
