MODEL 1
REMARK VINA RESULT:      -8.5      0.000      0.000
REMARK  5 active torsions:
REMARK  status: ('A' for Active; 'I' for Inactive)
REMARK    1  A    between atoms: C_2  and  N_3 
REMARK    2  A    between atoms: C_7  and  N_8 
REMARK       I    between atoms: N_8  and  C_9 
REMARK       I    between atoms: C_9  and  N_10 
REMARK    3  A    between atoms: N_10  and  C_11 
REMARK    4  A    between atoms: C_11  and  C_12 
REMARK    5  A    between atoms: C_17  and  C_18 
ROOT
HETATM    1  N   UNL     1      39.176 -14.287   2.663  1.00  0.00    -0.293 N 
HETATM    2  C   UNL     1      40.143 -14.957   1.885  1.00  0.00     0.322 C 
HETATM    3  N   UNL     1      41.420 -14.488   1.992  1.00  0.00    -0.339 N 
HETATM    4  O   UNL     1      39.771 -15.951   1.291  1.00  0.00    -0.247 OA
HETATM    5  H   UNL     1      38.362 -14.853   2.878  1.00  0.00     0.172 HD
HETATM    6  H   UNL     1      41.618 -13.919   2.800  1.00  0.00     0.164 HD
ENDROOT
BRANCH   3   7
HETATM    7  C   UNL     1      42.463 -15.359   1.493  1.00  0.00     0.163 C 
BRANCH   7   8
HETATM    8  C   UNL     1      42.899 -16.483   2.400  1.00  0.00    -0.037 A 
HETATM    9  C   UNL     1      43.430 -16.139   3.656  1.00  0.00     0.051 A 
HETATM   10  C   UNL     1      43.949 -17.114   4.502  1.00  0.00     0.117 A 
HETATM   11  F   UNL     1      44.464 -16.751   5.684  1.00  0.00    -0.206 F 
HETATM   12  C   UNL     1      43.958 -18.449   4.133  1.00  0.00     0.058 A 
HETATM   13  C   UNL     1      43.438 -18.827   2.888  1.00  0.00     0.051 A 
HETATM   14  C   UNL     1      42.923 -17.836   2.023  1.00  0.00     0.025 A 
BRANCH  13  15
HETATM   15  C   UNL     1      43.464 -20.274   2.454  1.00  0.00     0.417 C 
HETATM   16  F   UNL     1      44.475 -20.573   1.596  1.00  0.00    -0.166 F 
HETATM   17  F   UNL     1      43.600 -21.122   3.511  1.00  0.00    -0.166 F 
HETATM   18  F   UNL     1      42.312 -20.640   1.828  1.00  0.00    -0.166 F 
ENDBRANCH  13  15
ENDBRANCH   7   8
ENDBRANCH   3   7
BRANCH   1  19
HETATM   19  C   UNL     1      39.196 -12.992   3.141  1.00  0.00     0.129 C 
HETATM   20  N   UNL     1      39.781 -12.433   4.257  1.00  0.00    -0.250 N 
HETATM   21  N   UNL     1      39.503 -11.115   4.371  1.00  0.00    -0.183 NA
HETATM   22  C   UNL     1      38.858 -10.814   3.244  1.00  0.00     0.142 C 
HETATM   23  C   UNL     1      38.664 -11.940   2.429  1.00  0.00     0.071 C 
BRANCH  20  24
HETATM   24  C   UNL     1      40.797 -13.006   5.137  1.00  0.00     0.104 C 
HETATM   25  C   UNL     1      40.194 -14.019   6.110  1.00  0.00     0.034 C 
HETATM   26  C   UNL     1      41.561 -11.909   5.883  1.00  0.00     0.034 C 
ENDBRANCH  20  24
ENDBRANCH   1  19
TORSDOF 5
ENDMDL
MODEL 2
REMARK VINA RESULT:      -8.3      0.999      2.252
REMARK  5 active torsions:
REMARK  status: ('A' for Active; 'I' for Inactive)
REMARK    1  A    between atoms: C_2  and  N_3 
REMARK    2  A    between atoms: C_7  and  N_8 
REMARK       I    between atoms: N_8  and  C_9 
REMARK       I    between atoms: C_9  and  N_10 
REMARK    3  A    between atoms: N_10  and  C_11 
REMARK    4  A    between atoms: C_11  and  C_12 
REMARK    5  A    between atoms: C_17  and  C_18 
ROOT
HETATM    1  N   UNL     1      39.178 -14.250   2.640  1.00  0.00    -0.293 N 
HETATM    2  C   UNL     1      40.164 -14.907   1.876  1.00  0.00     0.322 C 
HETATM    3  N   UNL     1      41.436 -14.428   2.010  1.00  0.00    -0.339 N 
HETATM    4  O   UNL     1      39.812 -15.902   1.271  1.00  0.00    -0.247 OA
HETATM    5  H   UNL     1      38.365 -14.824   2.837  1.00  0.00     0.172 HD
HETATM    6  H   UNL     1      41.613 -13.861   2.824  1.00  0.00     0.164 HD
ENDROOT
BRANCH   3   7
HETATM    7  C   UNL     1      42.495 -15.287   1.526  1.00  0.00     0.163 C 
BRANCH   7   8
HETATM    8  C   UNL     1      42.904 -16.429   2.423  1.00  0.00    -0.037 A 
HETATM    9  C   UNL     1      43.417 -16.109   3.692  1.00  0.00     0.051 A 
HETATM   10  C   UNL     1      43.911 -17.102   4.532  1.00  0.00     0.117 A 
HETATM   11  F   UNL     1      44.409 -16.763   5.728  1.00  0.00    -0.206 F 
HETATM   12  C   UNL     1      43.914 -18.432   4.142  1.00  0.00     0.058 A 
HETATM   13  C   UNL     1      43.413 -18.786   2.883  1.00  0.00     0.051 A 
HETATM   14  C   UNL     1      42.922 -17.776   2.025  1.00  0.00     0.025 A 
BRANCH  13  15
HETATM   15  C   UNL     1      43.432 -20.226   2.427  1.00  0.00     0.417 C 
HETATM   16  F   UNL     1      44.420 -20.507   1.537  1.00  0.00    -0.166 F 
HETATM   17  F   UNL     1      43.602 -21.089   3.467  1.00  0.00    -0.166 F 
HETATM   18  F   UNL     1      42.265 -20.588   1.828  1.00  0.00    -0.166 F 
ENDBRANCH  13  15
ENDBRANCH   7   8
ENDBRANCH   3   7
BRANCH   1  19
HETATM   19  C   UNL     1      39.178 -12.957   3.124  1.00  0.00     0.129 C 
HETATM   20  N   UNL     1      38.781 -11.764   2.560  1.00  0.00    -0.250 N 
HETATM   21  N   UNL     1      39.005 -10.713   3.381  1.00  0.00    -0.183 NA
HETATM   22  C   UNL     1      39.414 -11.266   4.522  1.00  0.00     0.142 C 
HETATM   23  C   UNL     1      39.514 -12.664   4.428  1.00  0.00     0.071 C 
BRANCH  20  24
HETATM   24  C   UNL     1      37.976 -11.547   1.360  1.00  0.00     0.104 C 
HETATM   25  C   UNL     1      38.771 -11.842   0.088  1.00  0.00     0.034 C 
HETATM   26  C   UNL     1      37.398 -10.130   1.335  1.00  0.00     0.034 C 
ENDBRANCH  20  24
ENDBRANCH   1  19
TORSDOF 5
ENDMDL
MODEL 3
REMARK VINA RESULT:      -8.3      0.818      2.907
REMARK  5 active torsions:
REMARK  status: ('A' for Active; 'I' for Inactive)
REMARK    1  A    between atoms: C_2  and  N_3 
REMARK    2  A    between atoms: C_7  and  N_8 
REMARK       I    between atoms: N_8  and  C_9 
REMARK       I    between atoms: C_9  and  N_10 
REMARK    3  A    between atoms: N_10  and  C_11 
REMARK    4  A    between atoms: C_11  and  C_12 
REMARK    5  A    between atoms: C_17  and  C_18 
ROOT
HETATM    1  N   UNL     1      39.118 -14.355   2.562  1.00  0.00    -0.293 N 
HETATM    2  C   UNL     1      40.073 -15.079   1.819  1.00  0.00     0.322 C 
HETATM    3  N   UNL     1      41.371 -14.691   1.983  1.00  0.00    -0.339 N 
HETATM    4  O   UNL     1      39.665 -16.046   1.202  1.00  0.00    -0.247 OA
HETATM    5  H   UNL     1      38.262 -14.871   2.739  1.00  0.00     0.172 HD
HETATM    6  H   UNL     1      41.570 -14.139   2.803  1.00  0.00     0.164 HD
ENDROOT
BRANCH   3   7
HETATM    7  C   UNL     1      42.378 -15.622   1.521  1.00  0.00     0.163 C 
BRANCH   7   8
HETATM    8  C   UNL     1      43.059 -16.462   2.573  1.00  0.00    -0.037 A 
HETATM    9  C   UNL     1      43.310 -17.811   2.268  1.00  0.00     0.051 A 
HETATM   10  C   UNL     1      43.838 -18.672   3.225  1.00  0.00     0.117 A 
HETATM   11  F   UNL     1      44.051 -19.955   2.908  1.00  0.00    -0.206 F 
HETATM   12  C   UNL     1      44.130 -18.226   4.504  1.00  0.00     0.058 A 
HETATM   13  C   UNL     1      43.889 -16.888   4.843  1.00  0.00     0.051 A 
HETATM   14  C   UNL     1      43.342 -16.017   3.875  1.00  0.00     0.025 A 
BRANCH  13  15
HETATM   15  C   UNL     1      44.173 -16.389   6.240  1.00  0.00     0.417 C 
HETATM   16  F   UNL     1      45.498 -16.304   6.534  1.00  0.00    -0.166 F 
HETATM   17  F   UNL     1      43.657 -15.147   6.455  1.00  0.00    -0.166 F 
HETATM   18  F   UNL     1      43.622 -17.192   7.191  1.00  0.00    -0.166 F 
ENDBRANCH  13  15
ENDBRANCH   7   8
ENDBRANCH   3   7
BRANCH   1  19
HETATM   19  C   UNL     1      39.197 -13.067   3.051  1.00  0.00     0.129 C 
HETATM   20  N   UNL     1      39.838 -12.538   4.151  1.00  0.00    -0.250 N 
HETATM   21  N   UNL     1      39.608 -11.213   4.287  1.00  0.00    -0.183 NA
HETATM   22  C   UNL     1      38.936 -10.880   3.185  1.00  0.00     0.142 C 
HETATM   23  C   UNL     1      38.676 -11.991   2.367  1.00  0.00     0.071 C 
BRANCH  20  24
HETATM   24  C   UNL     1      40.863 -13.154   4.990  1.00  0.00     0.104 C 
HETATM   25  C   UNL     1      40.247 -14.001   6.104  1.00  0.00     0.034 C 
HETATM   26  C   UNL     1      41.814 -12.098   5.560  1.00  0.00     0.034 C 
ENDBRANCH  20  24
ENDBRANCH   1  19
TORSDOF 5
ENDMDL
MODEL 4
REMARK VINA RESULT:      -8.2      2.659      4.054
REMARK  5 active torsions:
REMARK  status: ('A' for Active; 'I' for Inactive)
REMARK    1  A    between atoms: C_2  and  N_3 
REMARK    2  A    between atoms: C_7  and  N_8 
REMARK       I    between atoms: N_8  and  C_9 
REMARK       I    between atoms: C_9  and  N_10 
REMARK    3  A    between atoms: N_10  and  C_11 
REMARK    4  A    between atoms: C_11  and  C_12 
REMARK    5  A    between atoms: C_17  and  C_18 
ROOT
HETATM    1  N   UNL     1      39.764 -14.121   0.674  1.00  0.00    -0.293 N 
HETATM    2  C   UNL     1      40.802 -14.599   1.501  1.00  0.00     0.322 C 
HETATM    3  N   UNL     1      42.010 -14.782   0.892  1.00  0.00    -0.339 N 
HETATM    4  O   UNL     1      40.555 -14.688   2.689  1.00  0.00    -0.247 OA
HETATM    5  H   UNL     1      39.031 -13.635   1.179  1.00  0.00     0.172 HD
HETATM    6  H   UNL     1      42.140 -14.308   0.013  1.00  0.00     0.164 HD
ENDROOT
BRANCH   3   7
HETATM    7  C   UNL     1      43.151 -14.927   1.771  1.00  0.00     0.163 C 
BRANCH   7   8
HETATM    8  C   UNL     1      43.229 -16.199   2.576  1.00  0.00    -0.037 A 
HETATM    9  C   UNL     1      43.554 -16.089   3.940  1.00  0.00     0.051 A 
HETATM   10  C   UNL     1      43.747 -17.224   4.721  1.00  0.00     0.117 A 
HETATM   11  F   UNL     1      44.073 -17.085   6.012  1.00  0.00    -0.206 F 
HETATM   12  C   UNL     1      43.626 -18.493   4.179  1.00  0.00     0.058 A 
HETATM   13  C   UNL     1      43.306 -18.640   2.823  1.00  0.00     0.051 A 
HETATM   14  C   UNL     1      43.122 -17.488   2.027  1.00  0.00     0.025 A 
BRANCH  13  15
HETATM   15  C   UNL     1      43.197 -20.015   2.206  1.00  0.00     0.417 C 
HETATM   16  F   UNL     1      44.087 -20.239   1.203  1.00  0.00    -0.166 F 
HETATM   17  F   UNL     1      43.399 -21.003   3.120  1.00  0.00    -0.166 F 
HETATM   18  F   UNL     1      41.963 -20.241   1.679  1.00  0.00    -0.166 F 
ENDBRANCH  13  15
ENDBRANCH   7   8
ENDBRANCH   3   7
BRANCH   1  19
HETATM   19  C   UNL     1      39.623 -14.243  -0.693  1.00  0.00     0.129 C 
HETATM   20  N   UNL     1      39.982 -13.412  -1.733  1.00  0.00    -0.250 N 
HETATM   21  N   UNL     1      39.604 -13.905  -2.933  1.00  0.00    -0.183 NA
HETATM   22  C   UNL     1      39.131 -15.120  -2.658  1.00  0.00     0.142 C 
HETATM   23  C   UNL     1      39.144 -15.394  -1.281  1.00  0.00     0.071 C 
BRANCH  20  24
HETATM   24  C   UNL     1      40.878 -12.258  -1.708  1.00  0.00     0.104 C 
HETATM   25  C   UNL     1      40.272 -11.090  -0.930  1.00  0.00     0.034 C 
HETATM   26  C   UNL     1      41.268 -11.835  -3.127  1.00  0.00     0.034 C 
ENDBRANCH  20  24
ENDBRANCH   1  19
TORSDOF 5
ENDMDL
MODEL 5
REMARK VINA RESULT:      -8.2      3.019      4.323
REMARK  5 active torsions:
REMARK  status: ('A' for Active; 'I' for Inactive)
REMARK    1  A    between atoms: C_2  and  N_3 
REMARK    2  A    between atoms: C_7  and  N_8 
REMARK       I    between atoms: N_8  and  C_9 
REMARK       I    between atoms: C_9  and  N_10 
REMARK    3  A    between atoms: N_10  and  C_11 
REMARK    4  A    between atoms: C_11  and  C_12 
REMARK    5  A    between atoms: C_17  and  C_18 
ROOT
HETATM    1  N   UNL     1      42.788 -12.976   6.890  1.00  0.00    -0.293 N 
HETATM    2  C   UNL     1      42.502 -14.274   6.417  1.00  0.00     0.322 C 
HETATM    3  N   UNL     1      43.578 -15.008   6.011  1.00  0.00    -0.339 N 
HETATM    4  O   UNL     1      41.351 -14.652   6.528  1.00  0.00    -0.247 OA
HETATM    5  H   UNL     1      42.087 -12.610   7.525  1.00  0.00     0.172 HD
HETATM    6  H   UNL     1      44.479 -14.694   6.337  1.00  0.00     0.164 HD
ENDROOT
BRANCH   3   7
HETATM    7  C   UNL     1      43.360 -16.431   5.861  1.00  0.00     0.163 C 
BRANCH   7   8
HETATM    8  C   UNL     1      43.421 -16.982   4.458  1.00  0.00    -0.037 A 
HETATM    9  C   UNL     1      43.283 -16.073   3.395  1.00  0.00     0.051 A 
HETATM   10  C   UNL     1      43.224 -16.520   2.078  1.00  0.00     0.117 A 
HETATM   11  F   UNL     1      43.075 -15.630   1.089  1.00  0.00    -0.206 F 
HETATM   12  C   UNL     1      43.297 -17.871   1.778  1.00  0.00     0.058 A 
HETATM   13  C   UNL     1      43.432 -18.805   2.814  1.00  0.00     0.051 A 
HETATM   14  C   UNL     1      43.480 -18.352   4.152  1.00  0.00     0.025 A 
BRANCH  13  15
HETATM   15  C   UNL     1      43.486 -20.283   2.510  1.00  0.00     0.417 C 
HETATM   16  F   UNL     1      43.566 -21.069   3.617  1.00  0.00    -0.166 F 
HETATM   17  F   UNL     1      42.388 -20.705   1.824  1.00  0.00    -0.166 F 
HETATM   18  F   UNL     1      44.558 -20.606   1.735  1.00  0.00    -0.166 F 
ENDBRANCH  13  15
ENDBRANCH   7   8
ENDBRANCH   3   7
BRANCH   1  19
HETATM   19  C   UNL     1      43.864 -12.165   6.592  1.00  0.00     0.129 C 
HETATM   20  N   UNL     1      44.233 -11.514   5.435  1.00  0.00    -0.250 N 
HETATM   21  N   UNL     1      45.407 -10.858   5.571  1.00  0.00    -0.183 NA
HETATM   22  C   UNL     1      45.706 -10.980   6.864  1.00  0.00     0.142 C 
HETATM   23  C   UNL     1      44.765 -11.762   7.554  1.00  0.00     0.071 C 
BRANCH  20  24
HETATM   24  C   UNL     1      43.436 -11.266   4.236  1.00  0.00     0.104 C 
HETATM   25  C   UNL     1      42.030 -10.774   4.585  1.00  0.00     0.034 C 
HETATM   26  C   UNL     1      43.381 -12.510   3.345  1.00  0.00     0.034 C 
ENDBRANCH  20  24
ENDBRANCH   1  19
TORSDOF 5
ENDMDL
MODEL 6
REMARK VINA RESULT:      -8.1      1.571      2.021
REMARK  5 active torsions:
REMARK  status: ('A' for Active; 'I' for Inactive)
REMARK    1  A    between atoms: C_2  and  N_3 
REMARK    2  A    between atoms: C_7  and  N_8 
REMARK       I    between atoms: N_8  and  C_9 
REMARK       I    between atoms: C_9  and  N_10 
REMARK    3  A    between atoms: N_10  and  C_11 
REMARK    4  A    between atoms: C_11  and  C_12 
REMARK    5  A    between atoms: C_17  and  C_18 
ROOT
HETATM    1  N   UNL     1      40.449 -13.080   4.133  1.00  0.00    -0.293 N 
HETATM    2  C   UNL     1      40.726 -13.998   3.099  1.00  0.00     0.322 C 
HETATM    3  N   UNL     1      42.045 -14.172   2.796  1.00  0.00    -0.339 N 
HETATM    4  O   UNL     1      39.781 -14.629   2.663  1.00  0.00    -0.247 OA
HETATM    5  H   UNL     1      39.564 -13.244   4.598  1.00  0.00     0.172 HD
HETATM    6  H   UNL     1      42.705 -13.868   3.494  1.00  0.00     0.164 HD
ENDROOT
BRANCH   3   7
HETATM    7  C   UNL     1      42.370 -15.341   2.006  1.00  0.00     0.163 C 
BRANCH   7   8
HETATM    8  C   UNL     1      42.891 -16.541   2.756  1.00  0.00    -0.037 A 
HETATM    9  C   UNL     1      43.522 -16.315   3.991  1.00  0.00     0.051 A 
HETATM   10  C   UNL     1      44.120 -17.360   4.689  1.00  0.00     0.117 A 
HETATM   11  F   UNL     1      44.728 -17.108   5.855  1.00  0.00    -0.206 F 
HETATM   12  C   UNL     1      44.111 -18.651   4.187  1.00  0.00     0.058 A 
HETATM   13  C   UNL     1      43.493 -18.912   2.957  1.00  0.00     0.051 A 
HETATM   14  C   UNL     1      42.897 -17.849   2.243  1.00  0.00     0.025 A 
BRANCH  13  15
HETATM   15  C   UNL     1      43.497 -20.308   2.379  1.00  0.00     0.417 C 
HETATM   16  F   UNL     1      42.346 -20.640   1.736  1.00  0.00    -0.166 F 
HETATM   17  F   UNL     1      44.500 -20.485   1.475  1.00  0.00    -0.166 F 
HETATM   18  F   UNL     1      43.686 -21.257   3.336  1.00  0.00    -0.166 F 
ENDBRANCH  13  15
ENDBRANCH   7   8
ENDBRANCH   3   7
BRANCH   1  19
HETATM   19  C   UNL     1      41.208 -12.011   4.565  1.00  0.00     0.129 C 
HETATM   20  N   UNL     1      42.314 -11.938   5.384  1.00  0.00    -0.250 N 
HETATM   21  N   UNL     1      42.715 -10.664   5.588  1.00  0.00    -0.183 NA
HETATM   22  C   UNL     1      41.942  -9.940   4.778  1.00  0.00     0.142 C 
HETATM   23  C   UNL     1      41.003 -10.731   4.096  1.00  0.00     0.071 C 
BRANCH  20  24
HETATM   24  C   UNL     1      43.190 -13.020   5.828  1.00  0.00     0.104 C 
HETATM   25  C   UNL     1      42.438 -14.039   6.685  1.00  0.00     0.034 C 
HETATM   26  C   UNL     1      44.412 -12.469   6.568  1.00  0.00     0.034 C 
ENDBRANCH  20  24
ENDBRANCH   1  19
TORSDOF 5
ENDMDL
MODEL 7
REMARK VINA RESULT:      -7.9      2.878      4.894
REMARK  5 active torsions:
REMARK  status: ('A' for Active; 'I' for Inactive)
REMARK    1  A    between atoms: C_2  and  N_3 
REMARK    2  A    between atoms: C_7  and  N_8 
REMARK       I    between atoms: N_8  and  C_9 
REMARK       I    between atoms: C_9  and  N_10 
REMARK    3  A    between atoms: N_10  and  C_11 
REMARK    4  A    between atoms: C_11  and  C_12 
REMARK    5  A    between atoms: C_17  and  C_18 
ROOT
HETATM    1  N   UNL     1      39.609 -13.724   0.574  1.00  0.00    -0.293 N 
HETATM    2  C   UNL     1      40.615 -14.103   1.487  1.00  0.00     0.322 C 
HETATM    3  N   UNL     1      41.873 -14.215   0.970  1.00  0.00    -0.339 N 
HETATM    4  O   UNL     1      40.290 -14.178   2.657  1.00  0.00    -0.247 OA
HETATM    5  H   UNL     1      38.809 -13.279   1.011  1.00  0.00     0.172 HD
HETATM    6  H   UNL     1      42.033 -13.756   0.087  1.00  0.00     0.164 HD
ENDROOT
BRANCH   3   7
HETATM    7  C   UNL     1      42.956 -14.252   1.930  1.00  0.00     0.163 C 
BRANCH   7   8
HETATM    8  C   UNL     1      43.197 -15.567   2.628  1.00  0.00    -0.037 A 
HETATM    9  C   UNL     1      43.147 -16.737   1.849  1.00  0.00     0.051 A 
HETATM   10  C   UNL     1      43.255 -17.992   2.440  1.00  0.00     0.117 A 
HETATM   11  F   UNL     1      43.186 -19.088   1.673  1.00  0.00    -0.206 F 
HETATM   12  C   UNL     1      43.414 -18.125   3.810  1.00  0.00     0.058 A 
HETATM   13  C   UNL     1      43.465 -16.981   4.617  1.00  0.00     0.051 A 
HETATM   14  C   UNL     1      43.343 -15.707   4.018  1.00  0.00     0.025 A 
BRANCH  13  15
HETATM   15  C   UNL     1      43.610 -17.105   6.115  1.00  0.00     0.417 C 
HETATM   16  F   UNL     1      44.747 -16.546   6.606  1.00  0.00    -0.166 F 
HETATM   17  F   UNL     1      42.579 -16.512   6.779  1.00  0.00    -0.166 F 
HETATM   18  F   UNL     1      43.617 -18.405   6.521  1.00  0.00    -0.166 F 
ENDBRANCH  13  15
ENDBRANCH   7   8
ENDBRANCH   3   7
BRANCH   1  19
HETATM   19  C   UNL     1      39.575 -13.893  -0.795  1.00  0.00     0.129 C 
HETATM   20  N   UNL     1      39.970 -13.075  -1.832  1.00  0.00    -0.250 N 
HETATM   21  N   UNL     1      39.706 -13.621  -3.040  1.00  0.00    -0.183 NA
HETATM   22  C   UNL     1      39.273 -14.850  -2.760  1.00  0.00     0.142 C 
HETATM   23  C   UNL     1      39.197 -15.083  -1.377  1.00  0.00     0.071 C 
BRANCH  20  24
HETATM   24  C   UNL     1      40.805 -11.877  -1.781  1.00  0.00     0.104 C 
HETATM   25  C   UNL     1      40.136 -10.758  -0.982  1.00  0.00     0.034 C 
HETATM   26  C   UNL     1      41.178 -11.406  -3.189  1.00  0.00     0.034 C 
ENDBRANCH  20  24
ENDBRANCH   1  19
TORSDOF 5
ENDMDL
MODEL 8
REMARK VINA RESULT:      -7.8      2.595      3.510
REMARK  5 active torsions:
REMARK  status: ('A' for Active; 'I' for Inactive)
REMARK    1  A    between atoms: C_2  and  N_3 
REMARK    2  A    between atoms: C_7  and  N_8 
REMARK       I    between atoms: N_8  and  C_9 
REMARK       I    between atoms: C_9  and  N_10 
REMARK    3  A    between atoms: N_10  and  C_11 
REMARK    4  A    between atoms: C_11  and  C_12 
REMARK    5  A    between atoms: C_17  and  C_18 
ROOT
HETATM    1  N   UNL     1      40.829 -12.892   6.190  1.00  0.00    -0.293 N 
HETATM    2  C   UNL     1      41.024 -14.288   6.236  1.00  0.00     0.322 C 
HETATM    3  N   UNL     1      42.291 -14.719   5.963  1.00  0.00    -0.339 N 
HETATM    4  O   UNL     1      40.087 -14.957   6.627  1.00  0.00    -0.247 OA
HETATM    5  H   UNL     1      40.046 -12.571   6.750  1.00  0.00     0.172 HD
HETATM    6  H   UNL     1      43.020 -14.027   6.034  1.00  0.00     0.164 HD
ENDROOT
BRANCH   3   7
HETATM    7  C   UNL     1      42.596 -16.082   6.343  1.00  0.00     0.163 C 
BRANCH   7   8
HETATM    8  C   UNL     1      43.071 -17.001   5.246  1.00  0.00    -0.037 A 
HETATM    9  C   UNL     1      43.051 -16.509   3.929  1.00  0.00     0.051 A 
HETATM   10  C   UNL     1      43.374 -17.332   2.855  1.00  0.00     0.117 A 
HETATM   11  F   UNL     1      43.329 -16.837   1.611  1.00  0.00    -0.206 F 
HETATM   12  C   UNL     1      43.724 -18.658   3.051  1.00  0.00     0.058 A 
HETATM   13  C   UNL     1      43.752 -19.182   4.350  1.00  0.00     0.051 A 
HETATM   14  C   UNL     1      43.412 -18.350   5.440  1.00  0.00     0.025 A 
BRANCH  13  15
HETATM   15  C   UNL     1      44.103 -20.633   4.583  1.00  0.00     0.417 C 
HETATM   16  F   UNL     1      45.304 -20.816   5.193  1.00  0.00    -0.166 F 
HETATM   17  F   UNL     1      43.182 -21.263   5.364  1.00  0.00    -0.166 F 
HETATM   18  F   UNL     1      44.154 -21.339   3.421  1.00  0.00    -0.166 F 
ENDBRANCH  13  15
ENDBRANCH   7   8
ENDBRANCH   3   7
BRANCH   1  19
HETATM   19  C   UNL     1      41.541 -11.941   5.487  1.00  0.00     0.129 C 
HETATM   20  N   UNL     1      42.634 -11.174   5.827  1.00  0.00    -0.250 N 
HETATM   21  N   UNL     1      42.985 -10.320   4.839  1.00  0.00    -0.183 NA
HETATM   22  C   UNL     1      42.195 -10.654   3.818  1.00  0.00     0.142 C 
HETATM   23  C   UNL     1      41.295 -11.677   4.158  1.00  0.00     0.071 C 
BRANCH  20  24
HETATM   24  C   UNL     1      43.545 -11.336   6.958  1.00  0.00     0.104 C 
HETATM   25  C   UNL     1      43.520 -10.117   7.881  1.00  0.00     0.034 C 
HETATM   26  C   UNL     1      44.967 -11.639   6.480  1.00  0.00     0.034 C 
ENDBRANCH  20  24
ENDBRANCH   1  19
TORSDOF 5
ENDMDL
MODEL 9
REMARK VINA RESULT:      -7.7      2.451      3.567
REMARK  5 active torsions:
REMARK  status: ('A' for Active; 'I' for Inactive)
REMARK    1  A    between atoms: C_2  and  N_3 
REMARK    2  A    between atoms: C_7  and  N_8 
REMARK       I    between atoms: N_8  and  C_9 
REMARK       I    between atoms: C_9  and  N_10 
REMARK    3  A    between atoms: N_10  and  C_11 
REMARK    4  A    between atoms: C_11  and  C_12 
REMARK    5  A    between atoms: C_17  and  C_18 
ROOT
HETATM    1  N   UNL     1      42.683 -12.407   5.478  1.00  0.00    -0.293 N 
HETATM    2  C   UNL     1      43.307 -13.509   6.098  1.00  0.00     0.322 C 
HETATM    3  N   UNL     1      42.685 -14.713   5.931  1.00  0.00    -0.339 N 
HETATM    4  O   UNL     1      44.388 -13.304   6.615  1.00  0.00    -0.247 OA
HETATM    5  H   UNL     1      43.317 -11.641   5.276  1.00  0.00     0.172 HD
HETATM    6  H   UNL     1      42.025 -14.771   5.173  1.00  0.00     0.164 HD
ENDROOT
BRANCH   3   7
HETATM    7  C   UNL     1      43.473 -15.886   6.247  1.00  0.00     0.163 C 
BRANCH   7   8
HETATM    8  C   UNL     1      43.631 -16.911   5.152  1.00  0.00    -0.037 A 
HETATM    9  C   UNL     1      43.409 -16.491   3.829  1.00  0.00     0.051 A 
HETATM   10  C   UNL     1      43.433 -17.401   2.777  1.00  0.00     0.117 A 
HETATM   11  F   UNL     1      43.201 -16.972   1.530  1.00  0.00    -0.206 F 
HETATM   12  C   UNL     1      43.675 -18.747   3.003  1.00  0.00     0.058 A 
HETATM   13  C   UNL     1      43.898 -19.201   4.310  1.00  0.00     0.051 A 
HETATM   14  C   UNL     1      43.861 -18.278   5.379  1.00  0.00     0.025 A 
BRANCH  13  15
HETATM   15  C   UNL     1      44.136 -20.668   4.581  1.00  0.00     0.417 C 
HETATM   16  F   UNL     1      45.350 -20.936   5.130  1.00  0.00    -0.166 F 
HETATM   17  F   UNL     1      43.211 -21.187   5.435  1.00  0.00    -0.166 F 
HETATM   18  F   UNL     1      44.057 -21.416   3.446  1.00  0.00    -0.166 F 
ENDBRANCH  13  15
ENDBRANCH   7   8
ENDBRANCH   3   7
BRANCH   1  19
HETATM   19  C   UNL     1      41.356 -12.243   5.137  1.00  0.00     0.129 C 
HETATM   20  N   UNL     1      40.649 -12.582   4.003  1.00  0.00    -0.250 N 
HETATM   21  N   UNL     1      39.359 -12.186   4.069  1.00  0.00    -0.183 NA
HETATM   22  C   UNL     1      39.219 -11.722   5.311  1.00  0.00     0.142 C 
HETATM   23  C   UNL     1      40.425 -11.759   6.029  1.00  0.00     0.071 C 
BRANCH  20  24
HETATM   24  C   UNL     1      41.046 -13.473   2.915  1.00  0.00     0.104 C 
HETATM   25  C   UNL     1      40.783 -12.845   1.546  1.00  0.00     0.034 C 
HETATM   26  C   UNL     1      40.356 -14.834   3.041  1.00  0.00     0.034 C 
ENDBRANCH  20  24
ENDBRANCH   1  19
TORSDOF 5
ENDMDL
MODEL 10
REMARK VINA RESULT:      -7.5      4.029      5.498
REMARK  5 active torsions:
REMARK  status: ('A' for Active; 'I' for Inactive)
REMARK    1  A    between atoms: C_2  and  N_3 
REMARK    2  A    between atoms: C_7  and  N_8 
REMARK       I    between atoms: N_8  and  C_9 
REMARK       I    between atoms: C_9  and  N_10 
REMARK    3  A    between atoms: N_10  and  C_11 
REMARK    4  A    between atoms: C_11  and  C_12 
REMARK    5  A    between atoms: C_17  and  C_18 
ROOT
HETATM    1  N   UNL     1      42.308 -10.127   7.560  1.00  0.00    -0.293 N 
HETATM    2  C   UNL     1      41.999 -10.990   6.489  1.00  0.00     0.322 C 
HETATM    3  N   UNL     1      42.311 -12.306   6.678  1.00  0.00    -0.339 N 
HETATM    4  O   UNL     1      41.382 -10.506   5.559  1.00  0.00    -0.247 OA
HETATM    5  H   UNL     1      41.745  -9.284   7.580  1.00  0.00     0.172 HD
HETATM    6  H   UNL     1      42.461 -12.595   7.631  1.00  0.00     0.164 HD
ENDROOT
BRANCH   3   7
HETATM    7  C   UNL     1      41.696 -13.245   5.764  1.00  0.00     0.163 C 
BRANCH   7   8
HETATM    8  C   UNL     1      42.455 -14.519   5.488  1.00  0.00    -0.037 A 
HETATM    9  C   UNL     1      43.330 -14.985   6.484  1.00  0.00     0.051 A 
HETATM   10  C   UNL     1      44.141 -16.092   6.260  1.00  0.00     0.117 A 
HETATM   11  F   UNL     1      44.977 -16.501   7.223  1.00  0.00    -0.206 F 
HETATM   12  C   UNL     1      44.110 -16.767   5.050  1.00  0.00     0.058 A 
HETATM   13  C   UNL     1      43.251 -16.328   4.033  1.00  0.00     0.051 A 
HETATM   14  C   UNL     1      42.437 -15.196   4.257  1.00  0.00     0.025 A 
BRANCH  13  15
HETATM   15  C   UNL     1      43.223 -17.033   2.697  1.00  0.00     0.417 C 
HETATM   16  F   UNL     1      43.628 -16.256   1.658  1.00  0.00    -0.166 F 
HETATM   17  F   UNL     1      44.024 -18.134   2.682  1.00  0.00    -0.166 F 
HETATM   18  F   UNL     1      41.975 -17.474   2.380  1.00  0.00    -0.166 F 
ENDBRANCH  13  15
ENDBRANCH   7   8
ENDBRANCH   3   7
BRANCH   1  19
HETATM   19  C   UNL     1      43.262 -10.279   8.546  1.00  0.00     0.129 C 
HETATM   20  N   UNL     1      44.632 -10.421   8.487  1.00  0.00    -0.250 N 
HETATM   21  N   UNL     1      45.180 -10.595   9.710  1.00  0.00    -0.183 NA
HETATM   22  C   UNL     1      44.164 -10.420  10.555  1.00  0.00     0.142 C 
HETATM   23  C   UNL     1      42.951 -10.193   9.885  1.00  0.00     0.071 C 
BRANCH  20  24
HETATM   24  C   UNL     1      45.524 -10.176   7.356  1.00  0.00     0.104 C 
HETATM   25  C   UNL     1      45.829 -11.464   6.589  1.00  0.00     0.034 C 
HETATM   26  C   UNL     1      46.812  -9.486   7.811  1.00  0.00     0.034 C 
ENDBRANCH  20  24
ENDBRANCH   1  19
TORSDOF 5
ENDMDL
