MODEL 1
REMARK VINA RESULT:      -7.8      0.000      0.000
REMARK  9 active torsions:
REMARK  status: ('A' for Active; 'I' for Inactive)
REMARK    1  A    between atoms: C_4  and  S_5 
REMARK    2  A    between atoms: S_5  and  C_6 
REMARK    3  A    between atoms: C_6  and  C_7 
REMARK       I    between atoms: C_7  and  N_8 
REMARK    4  A    between atoms: C_13  and  C_14 
REMARK    5  A    between atoms: C_14  and  C_15 
REMARK    6  A    between atoms: C_15  and  C_16 
REMARK       I    between atoms: C_16  and  N_17 
REMARK    7  A    between atoms: N_17  and  C_18 
REMARK    8  A    between atoms: C_19  and  O_20 
REMARK    9  A    between atoms: C_24  and  C_25 
ROOT
HETATM    1  C   UNL     1      40.939 -12.879   5.639  1.00  0.00     0.108 C 
ENDROOT
BRANCH   1   2
HETATM    2  C   UNL     1      42.074 -11.906   5.288  1.00  0.00     0.052 C 
BRANCH   2   3
HETATM    3  C   UNL     1      42.895 -11.326   6.418  1.00  0.00    -0.009 A 
HETATM    4  C   UNL     1      42.717 -10.008   6.853  1.00  0.00     0.042 A 
HETATM    5  C   UNL     1      41.709  -9.078   6.239  1.00  0.00     0.071 C 
HETATM    6  N   UNL     1      43.457  -9.451   7.836  1.00  0.00    -0.228 NA
HETATM    7  C   UNL     1      44.383 -10.220   8.418  1.00  0.00     0.189 A 
HETATM    8  N   UNL     1      44.651 -11.481   8.065  1.00  0.00    -0.228 NA
HETATM    9  C   UNL     1      43.915 -12.021   7.067  1.00  0.00     0.042 A 
HETATM   10  C   UNL     1      44.282 -13.436   6.730  1.00  0.00     0.071 C 
BRANCH   7  11
HETATM   11  S   UNL     1      45.381  -9.511   9.701  1.00  0.00    -0.081 SA
BRANCH  11  12
HETATM   12  C   UNL     1      44.067  -9.120  10.899  1.00  0.00     0.185 C 
BRANCH  12  13
HETATM   13  C   UNL     1      43.384 -10.392  11.359  1.00  0.00     0.225 C 
HETATM   14  N   UNL     1      42.016 -10.367  11.366  1.00  0.00    -0.370 N 
HETATM   15  H   UNL     1      41.532  -9.479  11.423  1.00  0.00     0.159 HD
HETATM   16  H   UNL     1      41.555 -11.180  11.751  1.00  0.00     0.159 HD
HETATM   17  O   UNL     1      43.987 -11.423  11.641  1.00  0.00    -0.273 OA
ENDBRANCH  12  13
ENDBRANCH  11  12
ENDBRANCH   7  11
ENDBRANCH   2   3
ENDBRANCH   1   2
BRANCH   1  18
HETATM   18  C   UNL     1      39.955 -13.127   4.511  1.00  0.00     0.222 C 
HETATM   19  N   UNL     1      40.075 -14.255   3.754  1.00  0.00    -0.325 N 
HETATM   20  H   UNL     1      39.214 -14.501   3.271  1.00  0.00     0.169 HD
HETATM   21  O   UNL     1      39.007 -12.369   4.298  1.00  0.00    -0.273 OA
BRANCH  19  22
HETATM   22  C   UNL     1      41.141 -15.148   3.518  1.00  0.00     0.069 A 
HETATM   23  C   UNL     1      41.655 -15.201   2.210  1.00  0.00     0.095 A 
HETATM   24  C   UNL     1      42.746 -16.024   1.934  1.00  0.00     0.039 A 
HETATM   25  C   UNL     1      43.341 -16.770   2.955  1.00  0.00     0.011 A 
HETATM   26  C   UNL     1      42.875 -16.710   4.280  1.00  0.00    -0.048 A 
HETATM   27  C   UNL     1      41.761 -15.887   4.535  1.00  0.00     0.040 A 
BRANCH  23  28
HETATM   28  O   UNL     1      41.016 -14.409   1.286  1.00  0.00    -0.354 OA
HETATM   29  C   UNL     1      40.096 -15.051   0.411  1.00  0.00     0.210 C 
ENDBRANCH  23  28
BRANCH  26  30
HETATM   30  C   UNL     1      43.605 -17.488   5.391  1.00  0.00    -0.024 C 
HETATM   31  C   UNL     1      42.736 -17.496   6.668  1.00  0.00     0.019 C 
HETATM   32  C   UNL     1      43.903 -18.963   5.035  1.00  0.00     0.019 C 
HETATM   33  C   UNL     1      44.957 -16.814   5.703  1.00  0.00     0.019 C 
ENDBRANCH  26  30
ENDBRANCH  19  22
ENDBRANCH   1  18
TORSDOF 9
ENDMDL
MODEL 2
REMARK VINA RESULT:      -7.6      3.994      6.602
REMARK  9 active torsions:
REMARK  status: ('A' for Active; 'I' for Inactive)
REMARK    1  A    between atoms: C_4  and  S_5 
REMARK    2  A    between atoms: S_5  and  C_6 
REMARK    3  A    between atoms: C_6  and  C_7 
REMARK       I    between atoms: C_7  and  N_8 
REMARK    4  A    between atoms: C_13  and  C_14 
REMARK    5  A    between atoms: C_14  and  C_15 
REMARK    6  A    between atoms: C_15  and  C_16 
REMARK       I    between atoms: C_16  and  N_17 
REMARK    7  A    between atoms: N_17  and  C_18 
REMARK    8  A    between atoms: C_19  and  O_20 
REMARK    9  A    between atoms: C_24  and  C_25 
ROOT
HETATM    1  C   UNL     1      41.344 -11.938   6.012  1.00  0.00     0.108 C 
ENDROOT
BRANCH   1   2
HETATM    2  C   UNL     1      41.838 -10.604   5.432  1.00  0.00     0.052 C 
BRANCH   2   3
HETATM    3  C   UNL     1      41.671 -10.362   3.949  1.00  0.00    -0.009 A 
HETATM    4  C   UNL     1      40.679  -9.511   3.451  1.00  0.00     0.042 A 
HETATM    5  C   UNL     1      39.714  -8.779   4.339  1.00  0.00     0.071 C 
HETATM    6  N   UNL     1      40.485  -9.301   2.131  1.00  0.00    -0.228 NA
HETATM    7  C   UNL     1      41.301  -9.932   1.282  1.00  0.00     0.189 A 
HETATM    8  N   UNL     1      42.265 -10.784   1.649  1.00  0.00    -0.228 NA
HETATM    9  C   UNL     1      42.438 -10.999   2.973  1.00  0.00     0.042 A 
HETATM   10  C   UNL     1      43.533 -11.971   3.299  1.00  0.00     0.071 C 
BRANCH   7  11
HETATM   11  S   UNL     1      41.060  -9.689  -0.458  1.00  0.00    -0.081 SA
BRANCH  11  12
HETATM   12  C   UNL     1      41.203 -11.419  -1.009  1.00  0.00     0.185 C 
BRANCH  12  13
HETATM   13  C   UNL     1      41.103 -11.497  -2.518  1.00  0.00     0.225 C 
HETATM   14  N   UNL     1      41.585 -12.641  -3.092  1.00  0.00    -0.370 N 
HETATM   15  H   UNL     1      42.273 -13.196  -2.598  1.00  0.00     0.159 HD
HETATM   16  H   UNL     1      41.600 -12.663  -4.103  1.00  0.00     0.159 HD
HETATM   17  O   UNL     1      40.559 -10.639  -3.207  1.00  0.00    -0.273 OA
ENDBRANCH  12  13
ENDBRANCH  11  12
ENDBRANCH   7  11
ENDBRANCH   2   3
ENDBRANCH   1   2
BRANCH   1  18
HETATM   18  C   UNL     1      39.845 -12.148   5.912  1.00  0.00     0.222 C 
HETATM   19  N   UNL     1      39.352 -13.036   5.001  1.00  0.00    -0.325 N 
HETATM   20  H   UNL     1      38.413 -13.354   5.227  1.00  0.00     0.169 HD
HETATM   21  O   UNL     1      39.059 -11.587   6.677  1.00  0.00    -0.273 OA
BRANCH  19  22
HETATM   22  C   UNL     1      39.884 -13.605   3.826  1.00  0.00     0.069 A 
HETATM   23  C   UNL     1      39.431 -13.084   2.600  1.00  0.00     0.095 A 
HETATM   24  C   UNL     1      39.966 -13.570   1.408  1.00  0.00     0.039 A 
HETATM   25  C   UNL     1      40.964 -14.549   1.431  1.00  0.00     0.011 A 
HETATM   26  C   UNL     1      41.465 -15.062   2.640  1.00  0.00    -0.048 A 
HETATM   27  C   UNL     1      40.899 -14.570   3.833  1.00  0.00     0.040 A 
BRANCH  23  28
HETATM   28  O   UNL     1      38.467 -12.107   2.687  1.00  0.00    -0.354 OA
HETATM   29  C   UNL     1      37.923 -11.627   1.463  1.00  0.00     0.210 C 
ENDBRANCH  23  28
BRANCH  26  30
HETATM   30  C   UNL     1      42.619 -16.083   2.627  1.00  0.00    -0.024 C 
HETATM   31  C   UNL     1      43.635 -15.694   1.531  1.00  0.00     0.019 C 
HETATM   32  C   UNL     1      43.398 -16.169   3.960  1.00  0.00     0.019 C 
HETATM   33  C   UNL     1      42.068 -17.493   2.331  1.00  0.00     0.019 C 
ENDBRANCH  26  30
ENDBRANCH  19  22
ENDBRANCH   1  18
TORSDOF 9
ENDMDL
MODEL 3
REMARK VINA RESULT:      -7.6      1.036      1.878
REMARK  9 active torsions:
REMARK  status: ('A' for Active; 'I' for Inactive)
REMARK    1  A    between atoms: C_4  and  S_5 
REMARK    2  A    between atoms: S_5  and  C_6 
REMARK    3  A    between atoms: C_6  and  C_7 
REMARK       I    between atoms: C_7  and  N_8 
REMARK    4  A    between atoms: C_13  and  C_14 
REMARK    5  A    between atoms: C_14  and  C_15 
REMARK    6  A    between atoms: C_15  and  C_16 
REMARK       I    between atoms: C_16  and  N_17 
REMARK    7  A    between atoms: N_17  and  C_18 
REMARK    8  A    between atoms: C_19  and  O_20 
REMARK    9  A    between atoms: C_24  and  C_25 
ROOT
HETATM    1  C   UNL     1      41.211 -12.537   4.300  1.00  0.00     0.108 C 
ENDROOT
BRANCH   1   2
HETATM    2  C   UNL     1      41.223 -12.472   5.834  1.00  0.00     0.052 C 
BRANCH   2   3
HETATM    3  C   UNL     1      42.198 -11.529   6.503  1.00  0.00    -0.009 A 
HETATM    4  C   UNL     1      43.491 -11.935   6.850  1.00  0.00     0.042 A 
HETATM    5  C   UNL     1      44.007 -13.322   6.587  1.00  0.00     0.071 C 
HETATM    6  N   UNL     1      44.373 -11.127   7.478  1.00  0.00    -0.228 NA
HETATM    7  C   UNL     1      43.974  -9.882   7.755  1.00  0.00     0.189 A 
HETATM    8  N   UNL     1      42.756  -9.399   7.490  1.00  0.00    -0.228 NA
HETATM    9  C   UNL     1      41.877 -10.224   6.876  1.00  0.00     0.042 A 
HETATM   10  C   UNL     1      40.533  -9.609   6.620  1.00  0.00     0.071 C 
BRANCH   7  11
HETATM   11  S   UNL     1      45.104  -8.803   8.594  1.00  0.00    -0.081 SA
BRANCH  11  12
HETATM   12  C   UNL     1      45.331  -9.764  10.124  1.00  0.00     0.185 C 
BRANCH  12  13
HETATM   13  C   UNL     1      44.065  -9.727  10.956  1.00  0.00     0.225 C 
HETATM   14  N   UNL     1      43.324 -10.876  10.969  1.00  0.00    -0.370 N 
HETATM   15  H   UNL     1      43.413 -11.537  10.207  1.00  0.00     0.159 HD
HETATM   16  H   UNL     1      42.436 -10.832  11.452  1.00  0.00     0.159 HD
HETATM   17  O   UNL     1      43.737  -8.769  11.650  1.00  0.00    -0.273 OA
ENDBRANCH  12  13
ENDBRANCH  11  12
ENDBRANCH   7  11
ENDBRANCH   2   3
ENDBRANCH   1   2
BRANCH   1  18
HETATM   18  C   UNL     1      39.963 -13.164   3.709  1.00  0.00     0.222 C 
HETATM   19  N   UNL     1      39.887 -14.521   3.589  1.00  0.00    -0.325 N 
HETATM   20  H   UNL     1      38.931 -14.858   3.510  1.00  0.00     0.169 HD
HETATM   21  O   UNL     1      38.985 -12.486   3.391  1.00  0.00    -0.273 OA
BRANCH  19  22
HETATM   22  C   UNL     1      40.860 -15.541   3.567  1.00  0.00     0.069 A 
HETATM   23  C   UNL     1      41.193 -16.081   2.311  1.00  0.00     0.095 A 
HETATM   24  C   UNL     1      42.189 -17.053   2.224  1.00  0.00     0.039 A 
HETATM   25  C   UNL     1      42.870 -17.467   3.372  1.00  0.00     0.011 A 
HETATM   26  C   UNL     1      42.587 -16.920   4.636  1.00  0.00    -0.048 A 
HETATM   27  C   UNL     1      41.566 -15.953   4.705  1.00  0.00     0.040 A 
BRANCH  23  28
HETATM   28  O   UNL     1      40.484 -15.587   1.242  1.00  0.00    -0.354 OA
HETATM   29  C   UNL     1      41.101 -14.556   0.480  1.00  0.00     0.210 C 
ENDBRANCH  23  28
BRANCH  26  30
HETATM   30  C   UNL     1      43.412 -17.347   5.865  1.00  0.00    -0.024 C 
HETATM   31  C   UNL     1      42.747 -16.796   7.146  1.00  0.00     0.019 C 
HETATM   32  C   UNL     1      43.534 -18.879   6.039  1.00  0.00     0.019 C 
HETATM   33  C   UNL     1      44.845 -16.787   5.756  1.00  0.00     0.019 C 
ENDBRANCH  26  30
ENDBRANCH  19  22
ENDBRANCH   1  18
TORSDOF 9
ENDMDL
MODEL 4
REMARK VINA RESULT:      -7.6      3.993      6.346
REMARK  9 active torsions:
REMARK  status: ('A' for Active; 'I' for Inactive)
REMARK    1  A    between atoms: C_4  and  S_5 
REMARK    2  A    between atoms: S_5  and  C_6 
REMARK    3  A    between atoms: C_6  and  C_7 
REMARK       I    between atoms: C_7  and  N_8 
REMARK    4  A    between atoms: C_13  and  C_14 
REMARK    5  A    between atoms: C_14  and  C_15 
REMARK    6  A    between atoms: C_15  and  C_16 
REMARK       I    between atoms: C_16  and  N_17 
REMARK    7  A    between atoms: N_17  and  C_18 
REMARK    8  A    between atoms: C_19  and  O_20 
REMARK    9  A    between atoms: C_24  and  C_25 
ROOT
HETATM    1  C   UNL     1      41.522 -12.814   5.995  1.00  0.00     0.108 C 
ENDROOT
BRANCH   1   2
HETATM    2  C   UNL     1      41.814 -11.452   5.348  1.00  0.00     0.052 C 
BRANCH   2   3
HETATM    3  C   UNL     1      41.420 -11.247   3.902  1.00  0.00    -0.009 A 
HETATM    4  C   UNL     1      40.348 -10.422   3.544  1.00  0.00     0.042 A 
HETATM    5  C   UNL     1      39.516  -9.685   4.554  1.00  0.00     0.071 C 
HETATM    6  N   UNL     1      39.952 -10.245   2.265  1.00  0.00    -0.228 NA
HETATM    7  C   UNL     1      40.641 -10.884   1.315  1.00  0.00     0.189 A 
HETATM    8  N   UNL     1      41.664 -11.712   1.548  1.00  0.00    -0.228 NA
HETATM    9  C   UNL     1      42.040 -11.895   2.834  1.00  0.00     0.042 A 
HETATM   10  C   UNL     1      43.191 -12.842   3.010  1.00  0.00     0.071 C 
BRANCH   7  11
HETATM   11  S   UNL     1      40.134 -10.684  -0.373  1.00  0.00    -0.081 SA
BRANCH  11  12
HETATM   12  C   UNL     1      41.059 -12.067  -1.113  1.00  0.00     0.185 C 
BRANCH  12  13
HETATM   13  C   UNL     1      41.199 -11.861  -2.607  1.00  0.00     0.225 C 
HETATM   14  N   UNL     1      41.645 -12.939  -3.321  1.00  0.00    -0.370 N 
HETATM   15  H   UNL     1      42.181 -13.661  -2.854  1.00  0.00     0.159 HD
HETATM   16  H   UNL     1      41.822 -12.784  -4.304  1.00  0.00     0.159 HD
HETATM   17  O   UNL     1      40.868 -10.829  -3.184  1.00  0.00    -0.273 OA
ENDBRANCH  12  13
ENDBRANCH  11  12
ENDBRANCH   7  11
ENDBRANCH   2   3
ENDBRANCH   1   2
BRANCH   1  18
HETATM   18  C   UNL     1      40.132 -13.354   5.718  1.00  0.00     0.222 C 
HETATM   19  N   UNL     1      39.989 -14.621   5.233  1.00  0.00    -0.325 N 
HETATM   20  H   UNL     1      39.061 -15.005   5.396  1.00  0.00     0.169 HD
HETATM   21  O   UNL     1      39.119 -12.703   5.980  1.00  0.00    -0.273 OA
BRANCH  19  22
HETATM   22  C   UNL     1      40.867 -15.502   4.570  1.00  0.00     0.069 A 
HETATM   23  C   UNL     1      40.793 -15.542   3.165  1.00  0.00     0.095 A 
HETATM   24  C   UNL     1      41.677 -16.353   2.454  1.00  0.00     0.039 A 
HETATM   25  C   UNL     1      42.646 -17.100   3.130  1.00  0.00     0.011 A 
HETATM   26  C   UNL     1      42.771 -17.053   4.530  1.00  0.00    -0.048 A 
HETATM   27  C   UNL     1      41.857 -16.241   5.231  1.00  0.00     0.040 A 
BRANCH  23  28
HETATM   28  O   UNL     1      39.824 -14.751   2.596  1.00  0.00    -0.354 OA
HETATM   29  C   UNL     1      39.803 -14.678   1.175  1.00  0.00     0.210 C 
ENDBRANCH  23  28
BRANCH  26  30
HETATM   30  C   UNL     1      43.900 -17.830   5.232  1.00  0.00    -0.024 C 
HETATM   31  C   UNL     1      44.870 -16.833   5.902  1.00  0.00     0.019 C 
HETATM   32  C   UNL     1      43.407 -18.796   6.334  1.00  0.00     0.019 C 
HETATM   33  C   UNL     1      44.675 -18.676   4.200  1.00  0.00     0.019 C 
ENDBRANCH  26  30
ENDBRANCH  19  22
ENDBRANCH   1  18
TORSDOF 9
ENDMDL
MODEL 5
REMARK VINA RESULT:      -7.6      3.672      8.579
REMARK  9 active torsions:
REMARK  status: ('A' for Active; 'I' for Inactive)
REMARK    1  A    between atoms: C_4  and  S_5 
REMARK    2  A    between atoms: S_5  and  C_6 
REMARK    3  A    between atoms: C_6  and  C_7 
REMARK       I    between atoms: C_7  and  N_8 
REMARK    4  A    between atoms: C_13  and  C_14 
REMARK    5  A    between atoms: C_14  and  C_15 
REMARK    6  A    between atoms: C_15  and  C_16 
REMARK       I    between atoms: C_16  and  N_17 
REMARK    7  A    between atoms: N_17  and  C_18 
REMARK    8  A    between atoms: C_19  and  O_20 
REMARK    9  A    between atoms: C_24  and  C_25 
ROOT
HETATM    1  C   UNL     1      43.839 -12.625   6.829  1.00  0.00     0.108 C 
ENDROOT
BRANCH   1   2
HETATM    2  C   UNL     1      42.613 -13.165   6.078  1.00  0.00     0.052 C 
BRANCH   2   3
HETATM    3  C   UNL     1      42.775 -14.422   5.252  1.00  0.00    -0.009 A 
HETATM    4  C   UNL     1      42.734 -15.693   5.836  1.00  0.00     0.042 A 
HETATM    5  C   UNL     1      42.528 -15.906   7.309  1.00  0.00     0.071 C 
HETATM    6  N   UNL     1      42.908 -16.832   5.130  1.00  0.00    -0.228 NA
HETATM    7  C   UNL     1      43.110 -16.714   3.815  1.00  0.00     0.189 A 
HETATM    8  N   UNL     1      43.190 -15.551   3.161  1.00  0.00    -0.228 NA
HETATM    9  C   UNL     1      43.032 -14.417   3.881  1.00  0.00     0.042 A 
HETATM   10  C   UNL     1      43.142 -13.156   3.075  1.00  0.00     0.071 C 
BRANCH   7  11
HETATM   11  S   UNL     1      43.358 -18.191   2.865  1.00  0.00    -0.081 SA
BRANCH  11  12
HETATM   12  C   UNL     1      44.215 -19.195   4.121  1.00  0.00     0.185 C 
BRANCH  12  13
HETATM   13  C   UNL     1      43.997 -20.669   3.849  1.00  0.00     0.225 C 
HETATM   14  N   UNL     1      43.965 -21.482   4.948  1.00  0.00    -0.370 N 
HETATM   15  H   UNL     1      44.416 -21.183   5.804  1.00  0.00     0.159 HD
HETATM   16  H   UNL     1      43.906 -22.475   4.770  1.00  0.00     0.159 HD
HETATM   17  O   UNL     1      43.782 -21.129   2.731  1.00  0.00    -0.273 OA
ENDBRANCH  12  13
ENDBRANCH  11  12
ENDBRANCH   7  11
ENDBRANCH   2   3
ENDBRANCH   1   2
BRANCH   1  18
HETATM   18  C   UNL     1      44.380 -11.315   6.287  1.00  0.00     0.222 C 
HETATM   19  N   UNL     1      44.137 -10.158   6.967  1.00  0.00    -0.325 N 
HETATM   20  H   UNL     1      44.793  -9.417   6.733  1.00  0.00     0.169 HD
HETATM   21  O   UNL     1      45.090 -11.273   5.281  1.00  0.00    -0.273 OA
BRANCH  19  22
HETATM   22  C   UNL     1      43.174  -9.791   7.930  1.00  0.00     0.069 A 
HETATM   23  C   UNL     1      41.894  -9.449   7.457  1.00  0.00     0.095 A 
HETATM   24  C   UNL     1      40.888  -9.133   8.369  1.00  0.00     0.039 A 
HETATM   25  C   UNL     1      41.142  -9.182   9.743  1.00  0.00     0.011 A 
HETATM   26  C   UNL     1      42.399  -9.557  10.248  1.00  0.00    -0.048 A 
HETATM   27  C   UNL     1      43.407  -9.855   9.310  1.00  0.00     0.040 A 
BRANCH  23  28
HETATM   28  O   UNL     1      41.740  -9.457   6.091  1.00  0.00    -0.354 OA
HETATM   29  C   UNL     1      40.451  -9.785   5.588  1.00  0.00     0.210 C 
ENDBRANCH  23  28
BRANCH  26  30
HETATM   30  C   UNL     1      42.618  -9.673  11.768  1.00  0.00    -0.024 C 
HETATM   31  C   UNL     1      43.493 -10.910  12.067  1.00  0.00     0.019 C 
HETATM   32  C   UNL     1      43.327  -8.451  12.396  1.00  0.00     0.019 C 
HETATM   33  C   UNL     1      41.260  -9.827  12.483  1.00  0.00     0.019 C 
ENDBRANCH  26  30
ENDBRANCH  19  22
ENDBRANCH   1  18
TORSDOF 9
ENDMDL
MODEL 6
REMARK VINA RESULT:      -7.6      1.206      2.027
REMARK  9 active torsions:
REMARK  status: ('A' for Active; 'I' for Inactive)
REMARK    1  A    between atoms: C_4  and  S_5 
REMARK    2  A    between atoms: S_5  and  C_6 
REMARK    3  A    between atoms: C_6  and  C_7 
REMARK       I    between atoms: C_7  and  N_8 
REMARK    4  A    between atoms: C_13  and  C_14 
REMARK    5  A    between atoms: C_14  and  C_15 
REMARK    6  A    between atoms: C_15  and  C_16 
REMARK       I    between atoms: C_16  and  N_17 
REMARK    7  A    between atoms: N_17  and  C_18 
REMARK    8  A    between atoms: C_19  and  O_20 
REMARK    9  A    between atoms: C_24  and  C_25 
ROOT
HETATM    1  C   UNL     1      42.122 -12.324   4.842  1.00  0.00     0.108 C 
ENDROOT
BRANCH   1   2
HETATM    2  C   UNL     1      42.384 -10.841   5.139  1.00  0.00     0.052 C 
BRANCH   2   3
HETATM    3  C   UNL     1      42.917 -10.467   6.505  1.00  0.00    -0.009 A 
HETATM    4  C   UNL     1      44.239 -10.732   6.875  1.00  0.00     0.042 A 
HETATM    5  C   UNL     1      45.223 -11.400   5.956  1.00  0.00     0.071 C 
HETATM    6  N   UNL     1      44.734 -10.440   8.098  1.00  0.00    -0.228 NA
HETATM    7  C   UNL     1      43.907  -9.856   8.970  1.00  0.00     0.189 A 
HETATM    8  N   UNL     1      42.622  -9.580   8.729  1.00  0.00    -0.228 NA
HETATM    9  C   UNL     1      42.134  -9.893   7.507  1.00  0.00     0.042 A 
HETATM   10  C   UNL     1      40.684  -9.557   7.320  1.00  0.00     0.071 C 
BRANCH   7  11
HETATM   11  S   UNL     1      44.524  -9.476  10.589  1.00  0.00    -0.081 SA
BRANCH  11  12
HETATM   12  C   UNL     1      43.614 -10.734  11.541  1.00  0.00     0.185 C 
BRANCH  12  13
HETATM   13  C   UNL     1      42.409 -10.110  12.214  1.00  0.00     0.225 C 
HETATM   14  N   UNL     1      41.242 -10.143  11.503  1.00  0.00    -0.370 N 
HETATM   15  H   UNL     1      41.274 -10.231  10.494  1.00  0.00     0.159 HD
HETATM   16  H   UNL     1      40.455  -9.654  11.908  1.00  0.00     0.159 HD
HETATM   17  O   UNL     1      42.426  -9.662  13.357  1.00  0.00    -0.273 OA
ENDBRANCH  12  13
ENDBRANCH  11  12
ENDBRANCH   7  11
ENDBRANCH   2   3
ENDBRANCH   1   2
BRANCH   1  18
HETATM   18  C   UNL     1      40.654 -12.693   4.743  1.00  0.00     0.222 C 
HETATM   19  N   UNL     1      40.300 -14.003   4.601  1.00  0.00    -0.325 N 
HETATM   20  H   UNL     1      39.338 -14.185   4.877  1.00  0.00     0.169 HD
HETATM   21  O   UNL     1      39.764 -11.849   4.853  1.00  0.00    -0.273 OA
BRANCH  19  22
HETATM   22  C   UNL     1      40.999 -15.147   4.164  1.00  0.00     0.069 A 
HETATM   23  C   UNL     1      40.761 -15.579   2.846  1.00  0.00     0.095 A 
HETATM   24  C   UNL     1      41.468 -16.670   2.343  1.00  0.00     0.039 A 
HETATM   25  C   UNL     1      42.425 -17.314   3.133  1.00  0.00     0.011 A 
HETATM   26  C   UNL     1      42.713 -16.884   4.440  1.00  0.00    -0.048 A 
HETATM   27  C   UNL     1      41.976 -15.791   4.936  1.00  0.00     0.040 A 
BRANCH  23  28
HETATM   28  O   UNL     1      39.821 -14.862   2.145  1.00  0.00    -0.354 OA
HETATM   29  C   UNL     1      40.221 -14.330   0.887  1.00  0.00     0.210 C 
ENDBRANCH  23  28
BRANCH  26  30
HETATM   30  C   UNL     1      43.828 -17.571   5.251  1.00  0.00    -0.024 C 
HETATM   31  C   UNL     1      44.647 -18.491   4.320  1.00  0.00     0.019 C 
HETATM   32  C   UNL     1      44.823 -16.587   5.910  1.00  0.00     0.019 C 
HETATM   33  C   UNL     1      43.208 -18.416   6.384  1.00  0.00     0.019 C 
ENDBRANCH  26  30
ENDBRANCH  19  22
ENDBRANCH   1  18
TORSDOF 9
ENDMDL
MODEL 7
REMARK VINA RESULT:      -7.5      3.965      6.241
REMARK  9 active torsions:
REMARK  status: ('A' for Active; 'I' for Inactive)
REMARK    1  A    between atoms: C_4  and  S_5 
REMARK    2  A    between atoms: S_5  and  C_6 
REMARK    3  A    between atoms: C_6  and  C_7 
REMARK       I    between atoms: C_7  and  N_8 
REMARK    4  A    between atoms: C_13  and  C_14 
REMARK    5  A    between atoms: C_14  and  C_15 
REMARK    6  A    between atoms: C_15  and  C_16 
REMARK       I    between atoms: C_16  and  N_17 
REMARK    7  A    between atoms: N_17  and  C_18 
REMARK    8  A    between atoms: C_19  and  O_20 
REMARK    9  A    between atoms: C_24  and  C_25 
ROOT
HETATM    1  C   UNL     1      41.408 -12.656   5.860  1.00  0.00     0.108 C 
ENDROOT
BRANCH   1   2
HETATM    2  C   UNL     1      41.457 -11.185   5.422  1.00  0.00     0.052 C 
BRANCH   2   3
HETATM    3  C   UNL     1      41.351 -10.873   3.946  1.00  0.00    -0.009 A 
HETATM    4  C   UNL     1      42.411 -11.117   3.066  1.00  0.00     0.042 A 
HETATM    5  C   UNL     1      43.721 -11.701   3.513  1.00  0.00     0.071 C 
HETATM    6  N   UNL     1      42.358 -10.819   1.750  1.00  0.00    -0.228 NA
HETATM    7  C   UNL     1      41.225 -10.283   1.287  1.00  0.00     0.189 A 
HETATM    8  N   UNL     1      40.162  -9.987   2.043  1.00  0.00    -0.228 NA
HETATM    9  C   UNL     1      40.234 -10.274   3.363  1.00  0.00     0.042 A 
HETATM   10  C   UNL     1      39.005  -9.907   4.140  1.00  0.00     0.071 C 
BRANCH   7  11
HETATM   11  S   UNL     1      41.131  -9.865  -0.434  1.00  0.00    -0.081 SA
BRANCH  11  12
HETATM   12  C   UNL     1      39.654 -10.831  -0.881  1.00  0.00     0.185 C 
BRANCH  12  13
HETATM   13  C   UNL     1      40.062 -12.159  -1.486  1.00  0.00     0.225 C 
HETATM   14  N   UNL     1      41.374 -12.271  -1.855  1.00  0.00    -0.370 N 
HETATM   15  H   UNL     1      41.911 -11.435  -2.052  1.00  0.00     0.159 HD
HETATM   16  H   UNL     1      41.633 -13.121  -2.338  1.00  0.00     0.159 HD
HETATM   17  O   UNL     1      39.306 -13.121  -1.584  1.00  0.00    -0.273 OA
ENDBRANCH  12  13
ENDBRANCH  11  12
ENDBRANCH   7  11
ENDBRANCH   2   3
ENDBRANCH   1   2
BRANCH   1  18
HETATM   18  C   UNL     1      40.034 -13.291   5.769  1.00  0.00     0.222 C 
HETATM   19  N   UNL     1      39.923 -14.598   5.393  1.00  0.00    -0.325 N 
HETATM   20  H   UNL     1      39.042 -15.018   5.678  1.00  0.00     0.169 HD
HETATM   21  O   UNL     1      39.013 -12.679   6.087  1.00  0.00    -0.273 OA
BRANCH  19  22
HETATM   22  C   UNL     1      40.784 -15.478   4.706  1.00  0.00     0.069 A 
HETATM   23  C   UNL     1      40.634 -15.561   3.310  1.00  0.00     0.095 A 
HETATM   24  C   UNL     1      41.496 -16.372   2.573  1.00  0.00     0.039 A 
HETATM   25  C   UNL     1      42.519 -17.077   3.215  1.00  0.00     0.011 A 
HETATM   26  C   UNL     1      42.719 -16.986   4.603  1.00  0.00    -0.048 A 
HETATM   27  C   UNL     1      41.827 -16.175   5.331  1.00  0.00     0.040 A 
BRANCH  23  28
HETATM   28  O   UNL     1      39.616 -14.808   2.774  1.00  0.00    -0.354 OA
HETATM   29  C   UNL     1      39.986 -13.764   1.881  1.00  0.00     0.210 C 
ENDBRANCH  23  28
BRANCH  26  30
HETATM   30  C   UNL     1      43.904 -17.717   5.263  1.00  0.00    -0.024 C 
HETATM   31  C   UNL     1      44.651 -18.549   4.197  1.00  0.00     0.019 C 
HETATM   32  C   UNL     1      44.942 -16.773   5.913  1.00  0.00     0.019 C 
HETATM   33  C   UNL     1      43.389 -18.658   6.372  1.00  0.00     0.019 C 
ENDBRANCH  26  30
ENDBRANCH  19  22
ENDBRANCH   1  18
TORSDOF 9
ENDMDL
MODEL 8
REMARK VINA RESULT:      -7.5      3.525      6.028
REMARK  9 active torsions:
REMARK  status: ('A' for Active; 'I' for Inactive)
REMARK    1  A    between atoms: C_4  and  S_5 
REMARK    2  A    between atoms: S_5  and  C_6 
REMARK    3  A    between atoms: C_6  and  C_7 
REMARK       I    between atoms: C_7  and  N_8 
REMARK    4  A    between atoms: C_13  and  C_14 
REMARK    5  A    between atoms: C_14  and  C_15 
REMARK    6  A    between atoms: C_15  and  C_16 
REMARK       I    between atoms: C_16  and  N_17 
REMARK    7  A    between atoms: N_17  and  C_18 
REMARK    8  A    between atoms: C_19  and  O_20 
REMARK    9  A    between atoms: C_24  and  C_25 
ROOT
HETATM    1  C   UNL     1      44.065 -14.700   6.596  1.00  0.00     0.108 C 
ENDROOT
BRANCH   1   2
HETATM    2  C   UNL     1      43.524 -13.327   7.020  1.00  0.00     0.052 C 
BRANCH   2   3
HETATM    3  C   UNL     1      42.901 -12.444   5.962  1.00  0.00    -0.009 A 
HETATM    4  C   UNL     1      43.646 -11.473   5.285  1.00  0.00     0.042 A 
HETATM    5  C   UNL     1      45.105 -11.233   5.553  1.00  0.00     0.071 C 
HETATM    6  N   UNL     1      43.110 -10.648   4.359  1.00  0.00    -0.228 NA
HETATM    7  C   UNL     1      41.812 -10.797   4.081  1.00  0.00     0.189 A 
HETATM    8  N   UNL     1      41.004 -11.676   4.684  1.00  0.00    -0.228 NA
HETATM    9  C   UNL     1      41.549 -12.484   5.622  1.00  0.00     0.042 A 
HETATM   10  C   UNL     1      40.575 -13.435   6.253  1.00  0.00     0.071 C 
BRANCH   7  11
HETATM   11  S   UNL     1      41.077  -9.717   2.882  1.00  0.00    -0.081 SA
BRANCH  11  12
HETATM   12  C   UNL     1      41.662 -10.537   1.365  1.00  0.00     0.185 C 
BRANCH  12  13
HETATM   13  C   UNL     1      41.539  -9.598   0.183  1.00  0.00     0.225 C 
HETATM   14  N   UNL     1      40.320  -9.002   0.016  1.00  0.00    -0.370 N 
HETATM   15  H   UNL     1      39.494  -9.434   0.411  1.00  0.00     0.159 HD
HETATM   16  H   UNL     1      40.205  -8.442  -0.818  1.00  0.00     0.159 HD
HETATM   17  O   UNL     1      42.477  -9.309  -0.554  1.00  0.00    -0.273 OA
ENDBRANCH  12  13
ENDBRANCH  11  12
ENDBRANCH   7  11
ENDBRANCH   2   3
ENDBRANCH   1   2
BRANCH   1  18
HETATM   18  C   UNL     1      43.268 -15.878   7.124  1.00  0.00     0.222 C 
HETATM   19  N   UNL     1      42.900 -16.875   6.268  1.00  0.00    -0.325 N 
HETATM   20  H   UNL     1      42.682 -17.746   6.746  1.00  0.00     0.169 HD
HETATM   21  O   UNL     1      42.997 -15.994   8.320  1.00  0.00    -0.273 OA
BRANCH  19  22
HETATM   22  C   UNL     1      42.776 -16.942   4.865  1.00  0.00     0.069 A 
HETATM   23  C   UNL     1      43.469 -17.977   4.210  1.00  0.00     0.095 A 
HETATM   24  C   UNL     1      43.336 -18.126   2.830  1.00  0.00     0.039 A 
HETATM   25  C   UNL     1      42.499 -17.270   2.108  1.00  0.00     0.011 A 
HETATM   26  C   UNL     1      41.764 -16.251   2.738  1.00  0.00    -0.048 A 
HETATM   27  C   UNL     1      41.926 -16.106   4.129  1.00  0.00     0.040 A 
BRANCH  23  28
HETATM   28  O   UNL     1      44.243 -18.779   5.015  1.00  0.00    -0.354 OA
HETATM   29  C   UNL     1      44.298 -20.162   4.686  1.00  0.00     0.210 C 
ENDBRANCH  23  28
BRANCH  26  30
HETATM   30  C   UNL     1      40.794 -15.379   1.919  1.00  0.00    -0.024 C 
HETATM   31  C   UNL     1      41.603 -14.413   1.025  1.00  0.00     0.019 C 
HETATM   32  C   UNL     1      39.857 -16.183   0.988  1.00  0.00     0.019 C 
HETATM   33  C   UNL     1      39.896 -14.559   2.868  1.00  0.00     0.019 C 
ENDBRANCH  26  30
ENDBRANCH  19  22
ENDBRANCH   1  18
TORSDOF 9
ENDMDL
MODEL 9
REMARK VINA RESULT:      -7.5      2.665      4.608
REMARK  9 active torsions:
REMARK  status: ('A' for Active; 'I' for Inactive)
REMARK    1  A    between atoms: C_4  and  S_5 
REMARK    2  A    between atoms: S_5  and  C_6 
REMARK    3  A    between atoms: C_6  and  C_7 
REMARK       I    between atoms: C_7  and  N_8 
REMARK    4  A    between atoms: C_13  and  C_14 
REMARK    5  A    between atoms: C_14  and  C_15 
REMARK    6  A    between atoms: C_15  and  C_16 
REMARK       I    between atoms: C_16  and  N_17 
REMARK    7  A    between atoms: N_17  and  C_18 
REMARK    8  A    between atoms: C_19  and  O_20 
REMARK    9  A    between atoms: C_24  and  C_25 
ROOT
HETATM    1  C   UNL     1      43.868 -11.152   7.387  1.00  0.00     0.108 C 
ENDROOT
BRANCH   1   2
HETATM    2  C   UNL     1      43.815  -9.723   7.947  1.00  0.00     0.052 C 
BRANCH   2   3
HETATM    3  C   UNL     1      43.179  -9.509   9.303  1.00  0.00    -0.009 A 
HETATM    4  C   UNL     1      43.911  -9.647  10.487  1.00  0.00     0.042 A 
HETATM    5  C   UNL     1      45.368 -10.015  10.505  1.00  0.00     0.071 C 
HETATM    6  N   UNL     1      43.364  -9.494  11.712  1.00  0.00    -0.228 NA
HETATM    7  C   UNL     1      42.067  -9.180  11.770  1.00  0.00     0.189 A 
HETATM    8  N   UNL     1      41.271  -9.047  10.704  1.00  0.00    -0.228 NA
HETATM    9  C   UNL     1      41.827  -9.219   9.484  1.00  0.00     0.042 A 
HETATM   10  C   UNL     1      40.866  -9.059   8.342  1.00  0.00     0.071 C 
BRANCH   7  11
HETATM   11  S   UNL     1      41.316  -8.989  13.366  1.00  0.00    -0.081 SA
BRANCH  11  12
HETATM   12  C   UNL     1      39.573  -9.210  12.888  1.00  0.00     0.185 C 
BRANCH  12  13
HETATM   13  C   UNL     1      39.271 -10.679  12.677  1.00  0.00     0.225 C 
HETATM   14  N   UNL     1      38.949 -11.047  11.399  1.00  0.00    -0.370 N 
HETATM   15  H   UNL     1      38.583 -10.354  10.757  1.00  0.00     0.159 HD
HETATM   16  H   UNL     1      38.663 -12.008  11.268  1.00  0.00     0.159 HD
HETATM   17  O   UNL     1      39.374 -11.527  13.559  1.00  0.00    -0.273 OA
ENDBRANCH  12  13
ENDBRANCH  11  12
ENDBRANCH   7  11
ENDBRANCH   2   3
ENDBRANCH   1   2
BRANCH   1  18
HETATM   18  C   UNL     1      44.809 -11.330   6.211  1.00  0.00     0.222 C 
HETATM   19  N   UNL     1      44.305 -11.700   4.999  1.00  0.00    -0.325 N 
HETATM   20  H   UNL     1      44.926 -11.471   4.226  1.00  0.00     0.169 HD
HETATM   21  O   UNL     1      46.014 -11.086   6.302  1.00  0.00    -0.273 OA
BRANCH  19  22
HETATM   22  C   UNL     1      43.102 -12.320   4.605  1.00  0.00     0.069 A 
HETATM   23  C   UNL     1      42.080 -11.484   4.119  1.00  0.00     0.095 A 
HETATM   24  C   UNL     1      40.890 -12.049   3.662  1.00  0.00     0.039 A 
HETATM   25  C   UNL     1      40.724 -13.437   3.663  1.00  0.00     0.011 A 
HETATM   26  C   UNL     1      41.740 -14.302   4.107  1.00  0.00    -0.048 A 
HETATM   27  C   UNL     1      42.928 -13.710   4.580  1.00  0.00     0.040 A 
BRANCH  23  28
HETATM   28  O   UNL     1      42.353 -10.137   4.136  1.00  0.00    -0.354 OA
HETATM   29  C   UNL     1      41.297  -9.269   4.529  1.00  0.00     0.210 C 
ENDBRANCH  23  28
BRANCH  26  30
HETATM   30  C   UNL     1      41.549 -15.828   4.020  1.00  0.00    -0.024 C 
HETATM   31  C   UNL     1      40.985 -16.196   2.630  1.00  0.00     0.019 C 
HETATM   32  C   UNL     1      42.853 -16.636   4.211  1.00  0.00     0.019 C 
HETATM   33  C   UNL     1      40.561 -16.295   5.109  1.00  0.00     0.019 C 
ENDBRANCH  26  30
ENDBRANCH  19  22
ENDBRANCH   1  18
TORSDOF 9
ENDMDL
MODEL 10
REMARK VINA RESULT:      -7.4      1.492      1.797
REMARK  9 active torsions:
REMARK  status: ('A' for Active; 'I' for Inactive)
REMARK    1  A    between atoms: C_4  and  S_5 
REMARK    2  A    between atoms: S_5  and  C_6 
REMARK    3  A    between atoms: C_6  and  C_7 
REMARK       I    between atoms: C_7  and  N_8 
REMARK    4  A    between atoms: C_13  and  C_14 
REMARK    5  A    between atoms: C_14  and  C_15 
REMARK    6  A    between atoms: C_15  and  C_16 
REMARK       I    between atoms: C_16  and  N_17 
REMARK    7  A    between atoms: N_17  and  C_18 
REMARK    8  A    between atoms: C_19  and  O_20 
REMARK    9  A    between atoms: C_24  and  C_25 
ROOT
HETATM    1  C   UNL     1      41.293 -11.913   4.027  1.00  0.00     0.108 C 
ENDROOT
BRANCH   1   2
HETATM    2  C   UNL     1      41.433 -12.240   5.521  1.00  0.00     0.052 C 
BRANCH   2   3
HETATM    3  C   UNL     1      42.335 -11.366   6.363  1.00  0.00    -0.009 A 
HETATM    4  C   UNL     1      42.012 -10.035   6.646  1.00  0.00     0.042 A 
HETATM    5  C   UNL     1      40.759  -9.377   6.142  1.00  0.00     0.071 C 
HETATM    6  N   UNL     1      42.813  -9.221   7.368  1.00  0.00    -0.228 NA
HETATM    7  C   UNL     1      43.952  -9.738   7.836  1.00  0.00     0.189 A 
HETATM    8  N   UNL     1      44.368 -10.988   7.606  1.00  0.00    -0.228 NA
HETATM    9  C   UNL     1      43.566 -11.788   6.868  1.00  0.00     0.042 A 
HETATM   10  C   UNL     1      44.107 -13.170   6.651  1.00  0.00     0.071 C 
BRANCH   7  11
HETATM   11  S   UNL     1      45.032  -8.688   8.773  1.00  0.00    -0.081 SA
BRANCH  11  12
HETATM   12  C   UNL     1      45.260  -9.748  10.236  1.00  0.00     0.185 C 
BRANCH  12  13
HETATM   13  C   UNL     1      44.009  -9.737  11.089  1.00  0.00     0.225 C 
HETATM   14  N   UNL     1      43.317 -10.915  11.154  1.00  0.00    -0.370 N 
HETATM   15  H   UNL     1      43.422 -11.597  10.412  1.00  0.00     0.159 HD
HETATM   16  H   UNL     1      42.437 -10.892  11.651  1.00  0.00     0.159 HD
HETATM   17  O   UNL     1      43.651  -8.771  11.757  1.00  0.00    -0.273 OA
ENDBRANCH  12  13
ENDBRANCH  11  12
ENDBRANCH   7  11
ENDBRANCH   2   3
ENDBRANCH   1   2
BRANCH   1  18
HETATM   18  C   UNL     1      42.603 -11.898   3.262  1.00  0.00     0.222 C 
HETATM   19  N   UNL     1      43.060 -13.051   2.694  1.00  0.00    -0.325 N 
HETATM   20  H   UNL     1      43.732 -12.885   1.948  1.00  0.00     0.169 HD
HETATM   21  O   UNL     1      43.238 -10.858   3.083  1.00  0.00    -0.273 OA
BRANCH  19  22
HETATM   22  C   UNL     1      42.781 -14.414   2.923  1.00  0.00     0.069 A 
HETATM   23  C   UNL     1      42.047 -15.093   1.933  1.00  0.00     0.095 A 
HETATM   24  C   UNL     1      41.792 -16.455   2.081  1.00  0.00     0.039 A 
HETATM   25  C   UNL     1      42.285 -17.147   3.191  1.00  0.00     0.011 A 
HETATM   26  C   UNL     1      43.054 -16.507   4.179  1.00  0.00    -0.048 A 
HETATM   27  C   UNL     1      43.286 -15.126   4.019  1.00  0.00     0.040 A 
BRANCH  23  28
HETATM   28  O   UNL     1      41.632 -14.328   0.870  1.00  0.00    -0.354 OA
HETATM   29  C   UNL     1      40.229 -14.143   0.717  1.00  0.00     0.210 C 
ENDBRANCH  23  28
BRANCH  26  30
HETATM   30  C   UNL     1      43.644 -17.319   5.347  1.00  0.00    -0.024 C 
HETATM   31  C   UNL     1      44.053 -18.720   4.842  1.00  0.00     0.019 C 
HETATM   32  C   UNL     1      44.899 -16.681   5.985  1.00  0.00     0.019 C 
HETATM   33  C   UNL     1      42.592 -17.470   6.465  1.00  0.00     0.019 C 
ENDBRANCH  26  30
ENDBRANCH  19  22
ENDBRANCH   1  18
TORSDOF 9
ENDMDL
