MODEL 1
REMARK VINA RESULT:      -8.3      0.000      0.000
REMARK  4 active torsions:
REMARK  status: ('A' for Active; 'I' for Inactive)
REMARK    1  A    between atoms: C_5  and  C_6 
REMARK       I    between atoms: C_6  and  N_7 
REMARK    2  A    between atoms: N_7  and  C_8 
REMARK    3  A    between atoms: C_8  and  N_9 
REMARK    4  A    between atoms: N_9  and  C_10 
ROOT
HETATM    1  C   UNL     1      43.613 -15.755   5.655  1.00  0.00     0.257 C 
HETATM    2  N   UNL     1      42.648 -14.804   5.343  1.00  0.00    -0.299 N 
HETATM    3  O   UNL     1      44.462 -15.668   6.532  1.00  0.00    -0.267 OA
HETATM    4  H   UNL     1      42.306 -14.830   4.393  1.00  0.00     0.171 HD
ENDROOT
BRANCH   2   5
HETATM    5  C   UNL     1      42.456 -13.601   5.950  1.00  0.00     0.180 C 
HETATM    6  S   UNL     1      41.516 -12.453   5.174  1.00  0.00    -0.040 SA
BRANCH   5   7
HETATM    7  N   UNL     1      43.037 -13.291   7.130  1.00  0.00    -0.318 N 
HETATM    8  H   UNL     1      42.953 -13.995   7.849  1.00  0.00     0.170 HD
BRANCH   7   9
HETATM    9  C   UNL     1      44.077 -12.365   7.324  1.00  0.00     0.129 A 
HETATM   10  N   UNL     1      44.123 -11.615   8.446  1.00  0.00    -0.236 NA
HETATM   11  C   UNL     1      45.085 -10.663   8.533  1.00  0.00     0.033 A 
HETATM   12  C   UNL     1      45.104  -9.820   9.771  1.00  0.00     0.070 C 
HETATM   13  C   UNL     1      45.996 -10.415   7.511  1.00  0.00     0.027 A 
HETATM   14  C   UNL     1      45.933 -11.190   6.361  1.00  0.00     0.006 A 
HETATM   15  C   UNL     1      44.958 -12.178   6.263  1.00  0.00     0.050 A 
ENDBRANCH   7   9
ENDBRANCH   5   7
ENDBRANCH   2   5
BRANCH   1  16
HETATM   16  C   UNL     1      43.672 -16.886   4.690  1.00  0.00     0.032 A 
HETATM   17  C   UNL     1      43.190 -16.685   3.392  1.00  0.00     0.017 A 
HETATM   18  C   UNL     1      43.155 -17.748   2.487  1.00  0.00     0.007 A 
HETATM   19  C   UNL     1      43.607 -19.017   2.867  1.00  0.00    -0.062 A 
HETATM   20  C   UNL     1      43.577 -20.163   1.898  1.00  0.00     0.048 C 
HETATM   21  C   UNL     1      44.124 -19.202   4.157  1.00  0.00     0.007 A 
HETATM   22  C   UNL     1      44.155 -18.143   5.069  1.00  0.00     0.017 A 
ENDBRANCH   1  16
TORSDOF 4
ENDMDL
MODEL 2
REMARK VINA RESULT:      -8.2      0.266      1.103
REMARK  4 active torsions:
REMARK  status: ('A' for Active; 'I' for Inactive)
REMARK    1  A    between atoms: C_5  and  C_6 
REMARK       I    between atoms: C_6  and  N_7 
REMARK    2  A    between atoms: N_7  and  C_8 
REMARK    3  A    between atoms: C_8  and  N_9 
REMARK    4  A    between atoms: N_9  and  C_10 
ROOT
HETATM    1  C   UNL     1      43.473 -15.589   5.646  1.00  0.00     0.257 C 
HETATM    2  N   UNL     1      42.586 -14.563   5.335  1.00  0.00    -0.299 N 
HETATM    3  O   UNL     1      44.336 -15.563   6.514  1.00  0.00    -0.267 OA
HETATM    4  H   UNL     1      42.233 -14.569   4.389  1.00  0.00     0.171 HD
ENDROOT
BRANCH   2   5
HETATM    5  C   UNL     1      42.501 -13.343   5.932  1.00  0.00     0.180 C 
HETATM    6  S   UNL     1      41.737 -12.100   5.110  1.00  0.00    -0.040 SA
BRANCH   5   7
HETATM    7  N   UNL     1      43.054 -13.094   7.139  1.00  0.00    -0.318 N 
HETATM    8  H   UNL     1      42.932 -13.824   7.827  1.00  0.00     0.170 HD
BRANCH   7   9
HETATM    9  C   UNL     1      44.108 -12.202   7.401  1.00  0.00     0.129 A 
HETATM   10  N   UNL     1      44.097 -11.439   8.516  1.00  0.00    -0.236 NA
HETATM   11  C   UNL     1      45.082 -10.519   8.664  1.00  0.00     0.033 A 
HETATM   12  C   UNL     1      45.038  -9.661   9.892  1.00  0.00     0.070 C 
HETATM   13  C   UNL     1      46.075 -10.316   7.711  1.00  0.00     0.027 A 
HETATM   14  C   UNL     1      46.070 -11.103   6.568  1.00  0.00     0.006 A 
HETATM   15  C   UNL     1      45.071 -12.059   6.408  1.00  0.00     0.050 A 
ENDBRANCH   7   9
ENDBRANCH   5   7
ENDBRANCH   2   5
BRANCH   1  16
HETATM   16  C   UNL     1      43.427 -16.729   4.693  1.00  0.00     0.032 A 
HETATM   17  C   UNL     1      44.141 -17.891   5.004  1.00  0.00     0.017 A 
HETATM   18  C   UNL     1      44.187 -18.949   4.093  1.00  0.00     0.007 A 
HETATM   19  C   UNL     1      43.515 -18.858   2.868  1.00  0.00    -0.062 A 
HETATM   20  C   UNL     1      43.556 -19.993   1.886  1.00  0.00     0.048 C 
HETATM   21  C   UNL     1      42.770 -17.706   2.579  1.00  0.00     0.007 A 
HETATM   22  C   UNL     1      42.726 -16.642   3.485  1.00  0.00     0.017 A 
ENDBRANCH   1  16
TORSDOF 4
ENDMDL
MODEL 3
REMARK VINA RESULT:      -7.6      4.706      7.250
REMARK  4 active torsions:
REMARK  status: ('A' for Active; 'I' for Inactive)
REMARK    1  A    between atoms: C_5  and  C_6 
REMARK       I    between atoms: C_6  and  N_7 
REMARK    2  A    between atoms: N_7  and  C_8 
REMARK    3  A    between atoms: C_8  and  N_9 
REMARK    4  A    between atoms: N_9  and  C_10 
ROOT
HETATM    1  C   UNL     1      42.951 -15.569   2.294  1.00  0.00     0.257 C 
HETATM    2  N   UNL     1      41.655 -15.115   2.517  1.00  0.00    -0.299 N 
HETATM    3  O   UNL     1      43.762 -15.094   1.509  1.00  0.00    -0.267 OA
HETATM    4  H   UNL     1      41.008 -15.809   2.864  1.00  0.00     0.171 HD
ENDROOT
BRANCH   2   5
HETATM    5  C   UNL     1      41.041 -14.060   1.915  1.00  0.00     0.180 C 
HETATM    6  S   UNL     1      39.620 -13.476   2.579  1.00  0.00    -0.040 SA
BRANCH   5   7
HETATM    7  N   UNL     1      41.516 -13.506   0.778  1.00  0.00    -0.318 N 
HETATM    8  H   UNL     1      42.519 -13.544   0.667  1.00  0.00     0.170 HD
BRANCH   7   9
HETATM    9  C   UNL     1      40.794 -13.307  -0.412  1.00  0.00     0.129 A 
HETATM   10  N   UNL     1      40.047 -14.305  -0.932  1.00  0.00    -0.236 NA
HETATM   11  C   UNL     1      39.460 -14.096  -2.136  1.00  0.00     0.033 A 
HETATM   12  C   UNL     1      38.659 -15.224  -2.713  1.00  0.00     0.070 C 
HETATM   13  C   UNL     1      39.619 -12.918  -2.859  1.00  0.00     0.027 A 
HETATM   14  C   UNL     1      40.394 -11.903  -2.315  1.00  0.00     0.006 A 
HETATM   15  C   UNL     1      40.993 -12.100  -1.074  1.00  0.00     0.050 A 
ENDBRANCH   7   9
ENDBRANCH   5   7
ENDBRANCH   2   5
BRANCH   1  16
HETATM   16  C   UNL     1      43.262 -16.851   2.981  1.00  0.00     0.032 A 
HETATM   17  C   UNL     1      43.560 -16.824   4.348  1.00  0.00     0.017 A 
HETATM   18  C   UNL     1      43.936 -17.997   5.005  1.00  0.00     0.007 A 
HETATM   19  C   UNL     1      44.012 -19.208   4.305  1.00  0.00    -0.062 A 
HETATM   20  C   UNL     1      44.411 -20.474   5.006  1.00  0.00     0.048 C 
HETATM   21  C   UNL     1      43.675 -19.235   2.944  1.00  0.00     0.007 A 
HETATM   22  C   UNL     1      43.304 -18.062   2.281  1.00  0.00     0.017 A 
ENDBRANCH   1  16
TORSDOF 4
ENDMDL
MODEL 4
REMARK VINA RESULT:      -7.4      4.929      7.301
REMARK  4 active torsions:
REMARK  status: ('A' for Active; 'I' for Inactive)
REMARK    1  A    between atoms: C_5  and  C_6 
REMARK       I    between atoms: C_6  and  N_7 
REMARK    2  A    between atoms: N_7  and  C_8 
REMARK    3  A    between atoms: C_8  and  N_9 
REMARK    4  A    between atoms: N_9  and  C_10 
ROOT
HETATM    1  C   UNL     1      42.927 -15.648   2.239  1.00  0.00     0.257 C 
HETATM    2  N   UNL     1      41.590 -15.276   2.329  1.00  0.00    -0.299 N 
HETATM    3  O   UNL     1      43.784 -15.114   1.545  1.00  0.00    -0.267 OA
HETATM    4  H   UNL     1      40.954 -16.012   2.602  1.00  0.00     0.171 HD
ENDROOT
BRANCH   2   5
HETATM    5  C   UNL     1      40.977 -14.252   1.675  1.00  0.00     0.180 C 
HETATM    6  S   UNL     1      39.695 -13.477   2.423  1.00  0.00    -0.040 SA
BRANCH   5   7
HETATM    7  N   UNL     1      41.339 -13.877   0.428  1.00  0.00    -0.318 N 
HETATM    8  H   UNL     1      42.278 -14.131   0.158  1.00  0.00     0.170 HD
BRANCH   7   9
HETATM    9  C   UNL     1      40.468 -13.601  -0.640  1.00  0.00     0.129 A 
HETATM   10  N   UNL     1      40.321 -12.337  -1.093  1.00  0.00    -0.236 NA
HETATM   11  C   UNL     1      39.389 -12.111  -2.051  1.00  0.00     0.033 A 
HETATM   12  C   UNL     1      39.218 -10.699  -2.521  1.00  0.00     0.070 C 
HETATM   13  C   UNL     1      38.570 -13.115  -2.559  1.00  0.00     0.027 A 
HETATM   14  C   UNL     1      38.728 -14.408  -2.080  1.00  0.00     0.006 A 
HETATM   15  C   UNL     1      39.689 -14.656  -1.104  1.00  0.00     0.050 A 
ENDBRANCH   7   9
ENDBRANCH   5   7
ENDBRANCH   2   5
BRANCH   1  16
HETATM   16  C   UNL     1      43.244 -16.918   2.944  1.00  0.00     0.032 A 
HETATM   17  C   UNL     1      43.576 -16.865   4.302  1.00  0.00     0.017 A 
HETATM   18  C   UNL     1      43.958 -18.028   4.974  1.00  0.00     0.007 A 
HETATM   19  C   UNL     1      44.006 -19.253   4.299  1.00  0.00    -0.062 A 
HETATM   20  C   UNL     1      44.413 -20.507   5.016  1.00  0.00     0.048 C 
HETATM   21  C   UNL     1      43.636 -19.305   2.947  1.00  0.00     0.007 A 
HETATM   22  C   UNL     1      43.259 -18.143   2.269  1.00  0.00     0.017 A 
ENDBRANCH   1  16
TORSDOF 4
ENDMDL
MODEL 5
REMARK VINA RESULT:      -7.4      2.044      7.246
REMARK  4 active torsions:
REMARK  status: ('A' for Active; 'I' for Inactive)
REMARK    1  A    between atoms: C_5  and  C_6 
REMARK       I    between atoms: C_6  and  N_7 
REMARK    2  A    between atoms: N_7  and  C_8 
REMARK    3  A    between atoms: C_8  and  N_9 
REMARK    4  A    between atoms: N_9  and  C_10 
ROOT
HETATM    1  C   UNL     1      43.720 -11.664   4.711  1.00  0.00     0.257 C 
HETATM    2  N   UNL     1      42.562 -12.432   4.736  1.00  0.00    -0.299 N 
HETATM    3  O   UNL     1      44.424 -11.442   3.733  1.00  0.00    -0.267 OA
HETATM    4  H   UNL     1      42.333 -12.840   5.631  1.00  0.00     0.171 HD
ENDROOT
BRANCH   2   5
HETATM    5  C   UNL     1      41.983 -13.078   3.687  1.00  0.00     0.180 C 
HETATM    6  S   UNL     1      40.339 -12.882   3.434  1.00  0.00    -0.040 SA
BRANCH   5   7
HETATM    7  N   UNL     1      42.681 -13.905   2.879  1.00  0.00    -0.318 N 
HETATM    8  H   UNL     1      43.339 -13.450   2.262  1.00  0.00     0.170 HD
BRANCH   7   9
HETATM    9  C   UNL     1      42.925 -15.272   3.102  1.00  0.00     0.129 A 
HETATM   10  N   UNL     1      43.247 -15.716   4.336  1.00  0.00    -0.236 NA
HETATM   11  C   UNL     1      43.578 -17.024   4.473  1.00  0.00     0.033 A 
HETATM   12  C   UNL     1      43.961 -17.494   5.843  1.00  0.00     0.070 C 
HETATM   13  C   UNL     1      43.625 -17.906   3.398  1.00  0.00     0.027 A 
HETATM   14  C   UNL     1      43.298 -17.435   2.135  1.00  0.00     0.006 A 
HETATM   15  C   UNL     1      42.945 -16.097   1.982  1.00  0.00     0.050 A 
ENDBRANCH   7   9
ENDBRANCH   5   7
ENDBRANCH   2   5
BRANCH   1  16
HETATM   16  C   UNL     1      44.186 -11.239   6.058  1.00  0.00     0.032 A 
HETATM   17  C   UNL     1      43.238 -10.791   6.984  1.00  0.00     0.017 A 
HETATM   18  C   UNL     1      43.649 -10.308   8.228  1.00  0.00     0.007 A 
HETATM   19  C   UNL     1      45.009 -10.274   8.561  1.00  0.00    -0.062 A 
HETATM   20  C   UNL     1      45.458  -9.760   9.897  1.00  0.00     0.048 C 
HETATM   21  C   UNL     1      45.951 -10.760   7.642  1.00  0.00     0.007 A 
HETATM   22  C   UNL     1      45.545 -11.239   6.394  1.00  0.00     0.017 A 
ENDBRANCH   1  16
TORSDOF 4
ENDMDL
MODEL 6
REMARK VINA RESULT:      -7.0      5.321      7.551
REMARK  4 active torsions:
REMARK  status: ('A' for Active; 'I' for Inactive)
REMARK    1  A    between atoms: C_5  and  C_6 
REMARK       I    between atoms: C_6  and  N_7 
REMARK    2  A    between atoms: N_7  and  C_8 
REMARK    3  A    between atoms: C_8  and  N_9 
REMARK    4  A    between atoms: N_9  and  C_10 
ROOT
HETATM    1  C   UNL     1      40.629 -15.351   2.382  1.00  0.00     0.257 C 
HETATM    2  N   UNL     1      41.022 -14.026   2.227  1.00  0.00    -0.299 N 
HETATM    3  O   UNL     1      39.497 -15.795   2.229  1.00  0.00    -0.267 OA
HETATM    4  H   UNL     1      41.840 -13.754   2.754  1.00  0.00     0.171 HD
ENDROOT
BRANCH   2   5
HETATM    5  C   UNL     1      40.237 -12.973   1.873  1.00  0.00     0.180 C 
HETATM    6  S   UNL     1      40.499 -11.494   2.611  1.00  0.00    -0.040 SA
BRANCH   5   7
HETATM    7  N   UNL     1      39.227 -13.098   0.983  1.00  0.00    -0.318 N 
HETATM    8  H   UNL     1      38.311 -12.860   1.336  1.00  0.00     0.170 HD
BRANCH   7   9
HETATM    9  C   UNL     1      39.347 -13.075  -0.417  1.00  0.00     0.129 A 
HETATM   10  N   UNL     1      39.139 -11.929  -1.101  1.00  0.00    -0.236 NA
HETATM   11  C   UNL     1      39.161 -11.987  -2.456  1.00  0.00     0.033 A 
HETATM   12  C   UNL     1      38.899 -10.713  -3.201  1.00  0.00     0.070 C 
HETATM   13  C   UNL     1      39.359 -13.173  -3.157  1.00  0.00     0.027 A 
HETATM   14  C   UNL     1      39.566 -14.343  -2.441  1.00  0.00     0.006 A 
HETATM   15  C   UNL     1      39.557 -14.296  -1.050  1.00  0.00     0.050 A 
ENDBRANCH   7   9
ENDBRANCH   5   7
ENDBRANCH   2   5
BRANCH   1  16
HETATM   16  C   UNL     1      41.688 -16.228   2.948  1.00  0.00     0.032 A 
HETATM   17  C   UNL     1      42.329 -17.137   2.100  1.00  0.00     0.017 A 
HETATM   18  C   UNL     1      43.270 -18.032   2.615  1.00  0.00     0.007 A 
HETATM   19  C   UNL     1      43.583 -18.021   3.980  1.00  0.00    -0.062 A 
HETATM   20  C   UNL     1      44.596 -18.976   4.540  1.00  0.00     0.048 C 
HETATM   21  C   UNL     1      42.965 -17.082   4.818  1.00  0.00     0.007 A 
HETATM   22  C   UNL     1      42.019 -16.189   4.308  1.00  0.00     0.017 A 
ENDBRANCH   1  16
TORSDOF 4
ENDMDL
MODEL 7
REMARK VINA RESULT:      -6.8     15.711     16.841
REMARK  4 active torsions:
REMARK  status: ('A' for Active; 'I' for Inactive)
REMARK    1  A    between atoms: C_5  and  C_6 
REMARK       I    between atoms: C_6  and  N_7 
REMARK    2  A    between atoms: N_7  and  C_8 
REMARK    3  A    between atoms: C_8  and  N_9 
REMARK    4  A    between atoms: N_9  and  C_10 
ROOT
HETATM    1  C   UNL     1      45.879 -28.796  -0.434  1.00  0.00     0.257 C 
HETATM    2  N   UNL     1      45.561 -29.722   0.553  1.00  0.00    -0.299 N 
HETATM    3  O   UNL     1      46.427 -27.714  -0.265  1.00  0.00    -0.267 OA
HETATM    4  H   UNL     1      44.793 -30.340   0.336  1.00  0.00     0.171 HD
ENDROOT
BRANCH   2   5
HETATM    5  C   UNL     1      45.800 -29.612   1.889  1.00  0.00     0.180 C 
HETATM    6  S   UNL     1      44.783 -30.409   2.953  1.00  0.00    -0.040 SA
BRANCH   5   7
HETATM    7  N   UNL     1      46.798 -28.844   2.379  1.00  0.00    -0.318 N 
HETATM    8  H   UNL     1      46.501 -28.071   2.958  1.00  0.00     0.170 HD
BRANCH   7   9
HETATM    9  C   UNL     1      48.137 -29.235   2.552  1.00  0.00     0.129 A 
HETATM   10  N   UNL     1      48.833 -29.762   1.522  1.00  0.00    -0.236 NA
HETATM   11  C   UNL     1      50.084 -30.222   1.771  1.00  0.00     0.033 A 
HETATM   12  C   UNL     1      50.832 -30.830   0.624  1.00  0.00     0.070 C 
HETATM   13  C   UNL     1      50.659 -30.197   3.039  1.00  0.00     0.027 A 
HETATM   14  C   UNL     1      49.929 -29.658   4.089  1.00  0.00     0.006 A 
HETATM   15  C   UNL     1      48.648 -29.172   3.845  1.00  0.00     0.050 A 
ENDBRANCH   7   9
ENDBRANCH   5   7
ENDBRANCH   2   5
BRANCH   1  16
HETATM   16  C   UNL     1      45.327 -29.136  -1.773  1.00  0.00     0.032 A 
HETATM   17  C   UNL     1      44.704 -30.376  -1.946  1.00  0.00     0.017 A 
HETATM   18  C   UNL     1      44.248 -30.760  -3.208  1.00  0.00     0.007 A 
HETATM   19  C   UNL     1      44.404 -29.907  -4.307  1.00  0.00    -0.062 A 
HETATM   20  C   UNL     1      43.913 -30.311  -5.667  1.00  0.00     0.048 C 
HETATM   21  C   UNL     1      44.996 -28.649  -4.120  1.00  0.00     0.007 A 
HETATM   22  C   UNL     1      45.459 -28.263  -2.859  1.00  0.00     0.017 A 
ENDBRANCH   1  16
TORSDOF 4
ENDMDL
MODEL 8
REMARK VINA RESULT:      -6.8      4.191      4.828
REMARK  4 active torsions:
REMARK  status: ('A' for Active; 'I' for Inactive)
REMARK    1  A    between atoms: C_5  and  C_6 
REMARK       I    between atoms: C_6  and  N_7 
REMARK    2  A    between atoms: N_7  and  C_8 
REMARK    3  A    between atoms: C_8  and  N_9 
REMARK    4  A    between atoms: N_9  and  C_10 
ROOT
HETATM    1  C   UNL     1      42.158 -15.605   3.089  1.00  0.00     0.257 C 
HETATM    2  N   UNL     1      40.859 -15.818   2.643  1.00  0.00    -0.299 N 
HETATM    3  O   UNL     1      42.803 -14.569   2.982  1.00  0.00    -0.267 OA
HETATM    4  H   UNL     1      40.622 -16.779   2.443  1.00  0.00     0.171 HD
ENDROOT
BRANCH   2   5
HETATM    5  C   UNL     1      40.052 -14.923   2.010  1.00  0.00     0.180 C 
HETATM    6  S   UNL     1      40.171 -14.773   0.347  1.00  0.00    -0.040 SA
BRANCH   5   7
HETATM    7  N   UNL     1      39.198 -14.123   2.686  1.00  0.00    -0.318 N 
HETATM    8  H   UNL     1      38.345 -14.568   2.995  1.00  0.00     0.170 HD
BRANCH   7   9
HETATM    9  C   UNL     1      39.533 -12.942   3.371  1.00  0.00     0.129 A 
HETATM   10  N   UNL     1      39.705 -11.786   2.695  1.00  0.00    -0.236 NA
HETATM   11  C   UNL     1      40.134 -10.703   3.390  1.00  0.00     0.033 A 
HETATM   12  C   UNL     1      40.348  -9.435   2.620  1.00  0.00     0.070 C 
HETATM   13  C   UNL     1      40.426 -10.747   4.750  1.00  0.00     0.027 A 
HETATM   14  C   UNL     1      40.250 -11.943   5.430  1.00  0.00     0.006 A 
HETATM   15  C   UNL     1      39.800 -13.059   4.731  1.00  0.00     0.050 A 
ENDBRANCH   7   9
ENDBRANCH   5   7
ENDBRANCH   2   5
BRANCH   1  16
HETATM   16  C   UNL     1      42.831 -16.836   3.583  1.00  0.00     0.032 A 
HETATM   17  C   UNL     1      43.138 -17.846   2.665  1.00  0.00     0.017 A 
HETATM   18  C   UNL     1      43.695 -19.048   3.108  1.00  0.00     0.007 A 
HETATM   19  C   UNL     1      43.956 -19.249   4.469  1.00  0.00    -0.062 A 
HETATM   20  C   UNL     1      44.558 -20.536   4.951  1.00  0.00     0.048 C 
HETATM   21  C   UNL     1      43.680 -18.218   5.379  1.00  0.00     0.007 A 
HETATM   22  C   UNL     1      43.118 -17.016   4.941  1.00  0.00     0.017 A 
ENDBRANCH   1  16
TORSDOF 4
ENDMDL
MODEL 9
REMARK VINA RESULT:      -6.8     15.581     17.000
REMARK  4 active torsions:
REMARK  status: ('A' for Active; 'I' for Inactive)
REMARK    1  A    between atoms: C_5  and  C_6 
REMARK       I    between atoms: C_6  and  N_7 
REMARK    2  A    between atoms: N_7  and  C_8 
REMARK    3  A    between atoms: C_8  and  N_9 
REMARK    4  A    between atoms: N_9  and  C_10 
ROOT
HETATM    1  C   UNL     1      46.569 -29.169   2.573  1.00  0.00     0.257 C 
HETATM    2  N   UNL     1      45.632 -30.117   2.178  1.00  0.00    -0.299 N 
HETATM    3  O   UNL     1      46.551 -27.974   2.304  1.00  0.00    -0.267 OA
HETATM    4  H   UNL     1      45.973 -31.066   2.127  1.00  0.00     0.171 HD
ENDROOT
BRANCH   2   5
HETATM    5  C   UNL     1      44.517 -29.905   1.427  1.00  0.00     0.180 C 
HETATM    6  S   UNL     1      43.326 -31.081   1.412  1.00  0.00    -0.040 SA
BRANCH   5   7
HETATM    7  N   UNL     1      44.366 -28.803   0.660  1.00  0.00    -0.318 N 
HETATM    8  H   UNL     1      44.275 -27.934   1.167  1.00  0.00     0.170 HD
BRANCH   7   9
HETATM    9  C   UNL     1      44.761 -28.667  -0.683  1.00  0.00     0.129 A 
HETATM   10  N   UNL     1      44.004 -29.188  -1.673  1.00  0.00    -0.236 NA
HETATM   11  C   UNL     1      44.485 -29.122  -2.939  1.00  0.00     0.033 A 
HETATM   12  C   UNL     1      43.648 -29.732  -4.022  1.00  0.00     0.070 C 
HETATM   13  C   UNL     1      45.725 -28.571  -3.248  1.00  0.00     0.027 A 
HETATM   14  C   UNL     1      46.494 -28.044  -2.219  1.00  0.00     0.006 A 
HETATM   15  C   UNL     1      46.007 -28.095  -0.917  1.00  0.00     0.050 A 
ENDBRANCH   7   9
ENDBRANCH   5   7
ENDBRANCH   2   5
BRANCH   1  16
HETATM   16  C   UNL     1      47.765 -29.750   3.239  1.00  0.00     0.032 A 
HETATM   17  C   UNL     1      47.693 -31.062   3.719  1.00  0.00     0.017 A 
HETATM   18  C   UNL     1      48.768 -31.610   4.422  1.00  0.00     0.007 A 
HETATM   19  C   UNL     1      49.927 -30.856   4.644  1.00  0.00    -0.062 A 
HETATM   20  C   UNL     1      51.089 -31.440   5.394  1.00  0.00     0.048 C 
HETATM   21  C   UNL     1      50.008 -29.555   4.126  1.00  0.00     0.007 A 
HETATM   22  C   UNL     1      48.932 -29.000   3.428  1.00  0.00     0.017 A 
ENDBRANCH   1  16
TORSDOF 4
ENDMDL
MODEL 10
REMARK VINA RESULT:      -6.8     15.861     17.467
REMARK  4 active torsions:
REMARK  status: ('A' for Active; 'I' for Inactive)
REMARK    1  A    between atoms: C_5  and  C_6 
REMARK       I    between atoms: C_6  and  N_7 
REMARK    2  A    between atoms: N_7  and  C_8 
REMARK    3  A    between atoms: C_8  and  N_9 
REMARK    4  A    between atoms: N_9  and  C_10 
ROOT
HETATM    1  C   UNL     1      42.475 -29.575   1.576  1.00  0.00     0.257 C 
HETATM    2  N   UNL     1      43.823 -29.916   1.558  1.00  0.00    -0.299 N 
HETATM    3  O   UNL     1      41.969 -28.585   1.061  1.00  0.00    -0.267 OA
HETATM    4  H   UNL     1      44.132 -30.499   2.323  1.00  0.00     0.171 HD
ENDROOT
BRANCH   2   5
HETATM    5  C   UNL     1      44.836 -29.228   0.965  1.00  0.00     0.180 C 
HETATM    6  S   UNL     1      46.354 -29.270   1.669  1.00  0.00    -0.040 SA
BRANCH   5   7
HETATM    7  N   UNL     1      44.642 -28.476  -0.142  1.00  0.00    -0.318 N 
HETATM    8  H   UNL     1      44.882 -27.499  -0.046  1.00  0.00     0.170 HD
BRANCH   7   9
HETATM    9  C   UNL     1      44.587 -28.947  -1.465  1.00  0.00     0.129 A 
HETATM   10  N   UNL     1      44.315 -30.245  -1.718  1.00  0.00    -0.236 NA
HETATM   11  C   UNL     1      44.382 -30.668  -3.004  1.00  0.00     0.033 A 
HETATM   12  C   UNL     1      44.105 -32.118  -3.263  1.00  0.00     0.070 C 
HETATM   13  C   UNL     1      44.744 -29.832  -4.056  1.00  0.00     0.027 A 
HETATM   14  C   UNL     1      45.027 -28.502  -3.780  1.00  0.00     0.006 A 
HETATM   15  C   UNL     1      44.951 -28.052  -2.466  1.00  0.00     0.050 A 
ENDBRANCH   7   9
ENDBRANCH   5   7
ENDBRANCH   2   5
BRANCH   1  16
HETATM   16  C   UNL     1      41.650 -30.442   2.459  1.00  0.00     0.032 A 
HETATM   17  C   UNL     1      40.869 -31.445   1.873  1.00  0.00     0.017 A 
HETATM   18  C   UNL     1      40.021 -32.222   2.664  1.00  0.00     0.007 A 
HETATM   19  C   UNL     1      39.950 -32.011   4.046  1.00  0.00    -0.062 A 
HETATM   20  C   UNL     1      39.044 -32.846   4.903  1.00  0.00     0.048 C 
HETATM   21  C   UNL     1      40.764 -31.030   4.632  1.00  0.00     0.007 A 
HETATM   22  C   UNL     1      41.610 -30.245   3.844  1.00  0.00     0.017 A 
ENDBRANCH   1  16
TORSDOF 4
ENDMDL
