MODEL 1
REMARK VINA RESULT:      -8.0      0.000      0.000
REMARK  4 active torsions:
REMARK  status: ('A' for Active; 'I' for Inactive)
REMARK    1  A    between atoms: C_4  and  C_5 
REMARK    2  A    between atoms: C_7  and  N_8 
REMARK       I    between atoms: N_8  and  C_9 
REMARK    3  A    between atoms: C_9  and  C_10 
REMARK    4  A    between atoms: C_10  and  C_11 
ROOT
HETATM    1  C   UNL     1      43.148 -16.215   3.762  1.00  0.00     0.019 A 
HETATM    2  C   UNL     1      42.700 -15.594   2.582  1.00  0.00     0.045 A 
HETATM    3  C   UNL     1      42.369 -14.235   2.564  1.00  0.00     0.035 A 
HETATM    4  C   UNL     1      42.489 -13.492   3.746  1.00  0.00     0.029 A 
HETATM    5  C   UNL     1      42.936 -14.092   4.923  1.00  0.00     0.003 A 
HETATM    6  C   UNL     1      43.261 -15.446   4.929  1.00  0.00     0.016 A 
ENDROOT
BRANCH   3   7
HETATM    7  N   UNL     1      41.909 -13.542   1.423  1.00  0.00    -0.327 N 
HETATM    8  C   UNL     1      40.718 -13.732   0.732  1.00  0.00     0.227 C 
HETATM    9  O   UNL     1      39.865 -14.578   0.991  1.00  0.00    -0.273 OA
HETATM   10  H   UNL     1      42.534 -12.832   1.064  1.00  0.00     0.169 HD
BRANCH   8  11
HETATM   11  C   UNL     1      40.600 -12.793  -0.474  1.00  0.00     0.159 C 
BRANCH  11  12
HETATM   12  C   UNL     1      39.600 -13.233  -1.499  1.00  0.00     0.017 A 
HETATM   13  N   UNL     1      38.244 -13.026  -1.364  1.00  0.00    -0.369 N 
HETATM   14  H   UNL     1      37.816 -12.528  -0.588  1.00  0.00     0.165 HD
HETATM   15  C   UNL     1      37.584 -13.562  -2.438  1.00  0.00     0.088 A 
HETATM   16  C   UNL     1      38.519 -14.123  -3.275  1.00  0.00     0.019 A 
HETATM   17  C   UNL     1      39.789 -13.917  -2.686  1.00  0.00     0.027 A 
ENDBRANCH  11  12
ENDBRANCH   8  11
ENDBRANCH   3   7
BRANCH   1  18
HETATM   18  C   UNL     1      43.492 -17.635   3.810  1.00  0.00     0.180 A 
HETATM   19  N   UNL     1      43.866 -18.365   4.846  1.00  0.00    -0.226 NA
HETATM   20  C   UNL     1      44.057 -19.624   4.324  1.00  0.00     0.063 A 
HETATM   21  C   UNL     1      44.478 -20.752   5.179  1.00  0.00     0.073 C 
HETATM   22  C   UNL     1      43.798 -19.604   2.970  1.00  0.00     0.076 A 
HETATM   23  O   UNL     1      43.431 -18.332   2.632  1.00  0.00    -0.294 OA
HETATM   24  C   UNL     1      43.828 -20.606   1.892  1.00  0.00     0.079 C 
ENDBRANCH   1  18
TORSDOF 4
ENDMDL
MODEL 2
REMARK VINA RESULT:      -8.0      3.707      6.810
REMARK  4 active torsions:
REMARK  status: ('A' for Active; 'I' for Inactive)
REMARK    1  A    between atoms: C_4  and  C_5 
REMARK    2  A    between atoms: C_7  and  N_8 
REMARK       I    between atoms: N_8  and  C_9 
REMARK    3  A    between atoms: C_9  and  C_10 
REMARK    4  A    between atoms: C_10  and  C_11 
ROOT
HETATM    1  C   UNL     1      43.251 -15.957   3.347  1.00  0.00     0.019 A 
HETATM    2  C   UNL     1      43.125 -15.102   4.457  1.00  0.00     0.045 A 
HETATM    3  C   UNL     1      42.876 -13.736   4.290  1.00  0.00     0.035 A 
HETATM    4  C   UNL     1      42.753 -13.222   2.992  1.00  0.00     0.029 A 
HETATM    5  C   UNL     1      42.870 -14.057   1.881  1.00  0.00     0.003 A 
HETATM    6  C   UNL     1      43.120 -15.416   2.059  1.00  0.00     0.016 A 
ENDROOT
BRANCH   3   7
HETATM    7  N   UNL     1      42.742 -12.815   5.352  1.00  0.00    -0.327 N 
HETATM    8  C   UNL     1      43.511 -11.685   5.603  1.00  0.00     0.227 C 
HETATM    9  O   UNL     1      44.477 -11.312   4.941  1.00  0.00    -0.273 OA
HETATM   10  H   UNL     1      42.003 -13.017   6.012  1.00  0.00     0.169 HD
BRANCH   8  11
HETATM   11  C   UNL     1      43.061 -10.958   6.876  1.00  0.00     0.159 C 
BRANCH  11  12
HETATM   12  C   UNL     1      44.118 -10.095   7.496  1.00  0.00     0.017 A 
HETATM   13  N   UNL     1      45.461 -10.401   7.450  1.00  0.00    -0.369 N 
HETATM   14  H   UNL     1      45.848 -11.205   6.963  1.00  0.00     0.165 HD
HETATM   15  C   UNL     1      46.176  -9.449   8.125  1.00  0.00     0.088 A 
HETATM   16  C   UNL     1      45.290  -8.519   8.616  1.00  0.00     0.019 A 
HETATM   17  C   UNL     1      43.993  -8.924   8.221  1.00  0.00     0.027 A 
ENDBRANCH  11  12
ENDBRANCH   8  11
ENDBRANCH   3   7
BRANCH   1  18
HETATM   18  C   UNL     1      43.520 -17.386   3.493  1.00  0.00     0.180 A 
HETATM   19  N   UNL     1      43.885 -18.057   4.570  1.00  0.00    -0.226 NA
HETATM   20  C   UNL     1      43.993 -19.360   4.139  1.00  0.00     0.063 A 
HETATM   21  C   UNL     1      44.378 -20.444   5.066  1.00  0.00     0.073 C 
HETATM   22  C   UNL     1      43.694 -19.425   2.795  1.00  0.00     0.076 A 
HETATM   23  O   UNL     1      43.386 -18.164   2.372  1.00  0.00    -0.294 OA
HETATM   24  C   UNL     1      43.638 -20.504   1.796  1.00  0.00     0.079 C 
ENDBRANCH   1  18
TORSDOF 4
ENDMDL
MODEL 3
REMARK VINA RESULT:      -7.6      4.974      7.707
REMARK  4 active torsions:
REMARK  status: ('A' for Active; 'I' for Inactive)
REMARK    1  A    between atoms: C_4  and  C_5 
REMARK    2  A    between atoms: C_7  and  N_8 
REMARK       I    between atoms: N_8  and  C_9 
REMARK    3  A    between atoms: C_9  and  C_10 
REMARK    4  A    between atoms: C_10  and  C_11 
ROOT
HETATM    1  C   UNL     1      43.016 -15.317   5.562  1.00  0.00     0.019 A 
HETATM    2  C   UNL     1      43.926 -14.496   6.252  1.00  0.00     0.045 A 
HETATM    3  C   UNL     1      43.627 -13.157   6.522  1.00  0.00     0.035 A 
HETATM    4  C   UNL     1      42.399 -12.636   6.094  1.00  0.00     0.029 A 
HETATM    5  C   UNL     1      41.484 -13.438   5.412  1.00  0.00     0.003 A 
HETATM    6  C   UNL     1      41.793 -14.769   5.147  1.00  0.00     0.016 A 
ENDROOT
BRANCH   3   7
HETATM    7  N   UNL     1      44.489 -12.271   7.204  1.00  0.00    -0.327 N 
HETATM    8  C   UNL     1      45.345 -11.323   6.657  1.00  0.00     0.227 C 
HETATM    9  O   UNL     1      45.519 -11.120   5.457  1.00  0.00    -0.273 OA
HETATM   10  H   UNL     1      44.485 -12.350   8.213  1.00  0.00     0.169 HD
BRANCH   8  11
HETATM   11  C   UNL     1      46.135 -10.574   7.737  1.00  0.00     0.159 C 
BRANCH  11  12
HETATM   12  C   UNL     1      45.279  -9.891   8.760  1.00  0.00     0.017 A 
HETATM   13  N   UNL     1      44.362  -8.913   8.443  1.00  0.00    -0.369 N 
HETATM   14  H   UNL     1      44.161  -8.604   7.495  1.00  0.00     0.165 HD
HETATM   15  C   UNL     1      43.756  -8.458   9.583  1.00  0.00     0.088 A 
HETATM   16  C   UNL     1      44.287  -9.144  10.650  1.00  0.00     0.019 A 
HETATM   17  C   UNL     1      45.246 -10.047  10.134  1.00  0.00     0.027 A 
ENDBRANCH  11  12
ENDBRANCH   8  11
ENDBRANCH   3   7
BRANCH   1  18
HETATM   18  C   UNL     1      43.307 -16.717   5.258  1.00  0.00     0.180 A 
HETATM   19  N   UNL     1      43.429 -17.739   6.086  1.00  0.00    -0.226 NA
HETATM   20  C   UNL     1      43.699 -18.811   5.266  1.00  0.00     0.063 A 
HETATM   21  C   UNL     1      43.897 -20.167   5.818  1.00  0.00     0.073 C 
HETATM   22  C   UNL     1      43.740 -18.387   3.955  1.00  0.00     0.076 A 
HETATM   23  O   UNL     1      43.485 -17.046   3.940  1.00  0.00    -0.294 OA
HETATM   24  C   UNL     1      43.977 -19.043   2.659  1.00  0.00     0.079 C 
ENDBRANCH   1  18
TORSDOF 4
ENDMDL
MODEL 4
REMARK VINA RESULT:      -7.2      6.920     10.123
REMARK  4 active torsions:
REMARK  status: ('A' for Active; 'I' for Inactive)
REMARK    1  A    between atoms: C_4  and  C_5 
REMARK    2  A    between atoms: C_7  and  N_8 
REMARK       I    between atoms: N_8  and  C_9 
REMARK    3  A    between atoms: C_9  and  C_10 
REMARK    4  A    between atoms: C_10  and  C_11 
ROOT
HETATM    1  C   UNL     1      44.399 -11.871   7.003  1.00  0.00     0.019 A 
HETATM    2  C   UNL     1      43.808 -11.254   8.120  1.00  0.00     0.045 A 
HETATM    3  C   UNL     1      44.507 -10.304   8.873  1.00  0.00     0.035 A 
HETATM    4  C   UNL     1      45.815  -9.970   8.497  1.00  0.00     0.029 A 
HETATM    5  C   UNL     1      46.413 -10.570   7.389  1.00  0.00     0.003 A 
HETATM    6  C   UNL     1      45.709 -11.516   6.649  1.00  0.00     0.016 A 
ENDROOT
BRANCH   3   7
HETATM    7  N   UNL     1      43.985  -9.646  10.007  1.00  0.00    -0.327 N 
HETATM    8  C   UNL     1      43.769 -10.172  11.275  1.00  0.00     0.227 C 
HETATM    9  O   UNL     1      43.975 -11.336  11.613  1.00  0.00    -0.273 OA
HETATM   10  H   UNL     1      43.728  -8.677   9.868  1.00  0.00     0.169 HD
BRANCH   8  11
HETATM   11  C   UNL     1      43.162  -9.137  12.229  1.00  0.00     0.159 C 
BRANCH  11  12
HETATM   12  C   UNL     1      41.693  -9.311  12.469  1.00  0.00     0.017 A 
HETATM   13  N   UNL     1      41.100 -10.543  12.645  1.00  0.00    -0.369 N 
HETATM   14  H   UNL     1      41.608 -11.423  12.668  1.00  0.00     0.165 HD
HETATM   15  C   UNL     1      39.751 -10.388  12.813  1.00  0.00     0.088 A 
HETATM   16  C   UNL     1      39.464  -9.046  12.742  1.00  0.00     0.019 A 
HETATM   17  C   UNL     1      40.686  -8.365  12.525  1.00  0.00     0.027 A 
ENDBRANCH  11  12
ENDBRANCH   8  11
ENDBRANCH   3   7
BRANCH   1  18
HETATM   18  C   UNL     1      43.695 -12.874   6.205  1.00  0.00     0.180 A 
HETATM   19  N   UNL     1      42.834 -12.696   5.219  1.00  0.00    -0.226 NA
HETATM   20  C   UNL     1      42.492 -13.972   4.833  1.00  0.00     0.063 A 
HETATM   21  C   UNL     1      41.540 -14.208   3.728  1.00  0.00     0.073 C 
HETATM   22  C   UNL     1      43.161 -14.885   5.619  1.00  0.00     0.076 A 
HETATM   23  O   UNL     1      43.939 -14.189   6.500  1.00  0.00    -0.294 OA
HETATM   24  C   UNL     1      43.210 -16.354   5.690  1.00  0.00     0.079 C 
ENDBRANCH   1  18
TORSDOF 4
ENDMDL
MODEL 5
REMARK VINA RESULT:      -7.2      1.628      7.545
REMARK  4 active torsions:
REMARK  status: ('A' for Active; 'I' for Inactive)
REMARK    1  A    between atoms: C_4  and  C_5 
REMARK    2  A    between atoms: C_7  and  N_8 
REMARK       I    between atoms: N_8  and  C_9 
REMARK    3  A    between atoms: C_9  and  C_10 
REMARK    4  A    between atoms: C_10  and  C_11 
ROOT
HETATM    1  C   UNL     1      41.500 -13.164   1.415  1.00  0.00     0.019 A 
HETATM    2  C   UNL     1      42.172 -14.328   1.832  1.00  0.00     0.045 A 
HETATM    3  C   UNL     1      42.778 -14.399   3.091  1.00  0.00     0.035 A 
HETATM    4  C   UNL     1      42.708 -13.287   3.941  1.00  0.00     0.029 A 
HETATM    5  C   UNL     1      42.042 -12.128   3.544  1.00  0.00     0.003 A 
HETATM    6  C   UNL     1      41.444 -12.068   2.288  1.00  0.00     0.016 A 
ENDROOT
BRANCH   3   7
HETATM    7  N   UNL     1      43.472 -15.527   3.579  1.00  0.00    -0.327 N 
HETATM    8  C   UNL     1      43.016 -16.490   4.471  1.00  0.00     0.227 C 
HETATM    9  O   UNL     1      41.916 -16.498   5.018  1.00  0.00    -0.273 OA
HETATM   10  H   UNL     1      44.421 -15.633   3.242  1.00  0.00     0.169 HD
BRANCH   8  11
HETATM   11  C   UNL     1      44.087 -17.546   4.770  1.00  0.00     0.159 C 
BRANCH  11  12
HETATM   12  C   UNL     1      43.926 -18.820   3.997  1.00  0.00     0.017 A 
HETATM   13  N   UNL     1      44.126 -20.066   4.550  1.00  0.00    -0.369 N 
HETATM   14  H   UNL     1      44.358 -20.227   5.526  1.00  0.00     0.165 HD
HETATM   15  C   UNL     1      43.937 -21.031   3.598  1.00  0.00     0.088 A 
HETATM   16  C   UNL     1      43.613 -20.407   2.417  1.00  0.00     0.019 A 
HETATM   17  C   UNL     1      43.606 -19.014   2.665  1.00  0.00     0.027 A 
ENDBRANCH  11  12
ENDBRANCH   8  11
ENDBRANCH   3   7
BRANCH   1  18
HETATM   18  C   UNL     1      40.867 -13.061   0.102  1.00  0.00     0.180 A 
HETATM   19  N   UNL     1      40.821 -12.027  -0.719  1.00  0.00    -0.226 NA
HETATM   20  C   UNL     1      40.106 -12.485  -1.803  1.00  0.00     0.063 A 
HETATM   21  C   UNL     1      39.839 -11.616  -2.967  1.00  0.00     0.073 C 
HETATM   22  C   UNL     1      39.732 -13.794  -1.586  1.00  0.00     0.076 A 
HETATM   23  O   UNL     1      40.220 -14.173  -0.368  1.00  0.00    -0.294 OA
HETATM   24  C   UNL     1      38.975 -14.797  -2.352  1.00  0.00     0.079 C 
ENDBRANCH   1  18
TORSDOF 4
ENDMDL
MODEL 6
REMARK VINA RESULT:      -7.1      3.894      7.777
REMARK  4 active torsions:
REMARK  status: ('A' for Active; 'I' for Inactive)
REMARK    1  A    between atoms: C_4  and  C_5 
REMARK    2  A    between atoms: C_7  and  N_8 
REMARK       I    between atoms: N_8  and  C_9 
REMARK    3  A    between atoms: C_9  and  C_10 
REMARK    4  A    between atoms: C_10  and  C_11 
ROOT
HETATM    1  C   UNL     1      42.398 -12.051   5.821  1.00  0.00     0.019 A 
HETATM    2  C   UNL     1      42.950 -13.069   5.022  1.00  0.00     0.045 A 
HETATM    3  C   UNL     1      42.135 -13.893   4.239  1.00  0.00     0.035 A 
HETATM    4  C   UNL     1      40.748 -13.692   4.259  1.00  0.00     0.029 A 
HETATM    5  C   UNL     1      40.186 -12.684   5.042  1.00  0.00     0.003 A 
HETATM    6  C   UNL     1      41.007 -11.871   5.819  1.00  0.00     0.016 A 
ENDROOT
BRANCH   3   7
HETATM    7  N   UNL     1      42.612 -14.936   3.416  1.00  0.00    -0.327 N 
HETATM    8  C   UNL     1      42.447 -16.304   3.591  1.00  0.00     0.227 C 
HETATM    9  O   UNL     1      41.870 -16.842   4.533  1.00  0.00    -0.273 OA
HETATM   10  H   UNL     1      43.150 -14.643   2.610  1.00  0.00     0.169 HD
BRANCH   8  11
HETATM   11  C   UNL     1      43.143 -17.111   2.488  1.00  0.00     0.159 C 
BRANCH  11  12
HETATM   12  C   UNL     1      43.449 -18.529   2.865  1.00  0.00     0.017 A 
HETATM   13  N   UNL     1      43.963 -18.887   4.093  1.00  0.00    -0.369 N 
HETATM   14  H   UNL     1      44.137 -18.233   4.852  1.00  0.00     0.165 HD
HETATM   15  C   UNL     1      44.166 -20.240   4.133  1.00  0.00     0.088 A 
HETATM   16  C   UNL     1      43.784 -20.764   2.921  1.00  0.00     0.019 A 
HETATM   17  C   UNL     1      43.332 -19.688   2.120  1.00  0.00     0.027 A 
ENDBRANCH  11  12
ENDBRANCH   8  11
ENDBRANCH   3   7
BRANCH   1  18
HETATM   18  C   UNL     1      43.226 -11.182   6.655  1.00  0.00     0.180 A 
HETATM   19  N   UNL     1      42.855 -10.195   7.451  1.00  0.00    -0.226 NA
HETATM   20  C   UNL     1      44.034  -9.730   7.988  1.00  0.00     0.063 A 
HETATM   21  C   UNL     1      44.048  -8.613   8.954  1.00  0.00     0.073 C 
HETATM   22  C   UNL     1      45.089 -10.458   7.480  1.00  0.00     0.076 A 
HETATM   23  O   UNL     1      44.579 -11.395   6.627  1.00  0.00    -0.294 OA
HETATM   24  C   UNL     1      46.549 -10.437   7.664  1.00  0.00     0.079 C 
ENDBRANCH   1  18
TORSDOF 4
ENDMDL
MODEL 7
REMARK VINA RESULT:      -7.1      3.302      6.474
REMARK  4 active torsions:
REMARK  status: ('A' for Active; 'I' for Inactive)
REMARK    1  A    between atoms: C_4  and  C_5 
REMARK    2  A    between atoms: C_7  and  N_8 
REMARK       I    between atoms: N_8  and  C_9 
REMARK    3  A    between atoms: C_9  and  C_10 
REMARK    4  A    between atoms: C_10  and  C_11 
ROOT
HETATM    1  C   UNL     1      41.876 -16.095   2.910  1.00  0.00     0.019 A 
HETATM    2  C   UNL     1      42.367 -14.970   3.597  1.00  0.00     0.045 A 
HETATM    3  C   UNL     1      41.694 -13.744   3.546  1.00  0.00     0.035 A 
HETATM    4  C   UNL     1      40.514 -13.649   2.796  1.00  0.00     0.029 A 
HETATM    5  C   UNL     1      40.012 -14.757   2.114  1.00  0.00     0.003 A 
HETATM    6  C   UNL     1      40.691 -15.971   2.170  1.00  0.00     0.016 A 
ENDROOT
BRANCH   3   7
HETATM    7  N   UNL     1      42.124 -12.571   4.202  1.00  0.00    -0.327 N 
HETATM    8  C   UNL     1      42.396 -12.401   5.555  1.00  0.00     0.227 C 
HETATM    9  O   UNL     1      42.271 -13.259   6.425  1.00  0.00    -0.273 OA
HETATM   10  H   UNL     1      42.234 -11.757   3.611  1.00  0.00     0.169 HD
BRANCH   8  11
HETATM   11  C   UNL     1      42.816 -10.962   5.877  1.00  0.00     0.159 C 
BRANCH  11  12
HETATM   12  C   UNL     1      44.068 -10.857   6.695  1.00  0.00     0.017 A 
HETATM   13  N   UNL     1      44.093 -10.330   7.968  1.00  0.00    -0.369 N 
HETATM   14  H   UNL     1      43.270 -10.009   8.469  1.00  0.00     0.165 HD
HETATM   15  C   UNL     1      45.375 -10.337   8.447  1.00  0.00     0.088 A 
HETATM   16  C   UNL     1      46.190 -10.871   7.477  1.00  0.00     0.019 A 
HETATM   17  C   UNL     1      45.369 -11.199   6.372  1.00  0.00     0.027 A 
ENDBRANCH  11  12
ENDBRANCH   8  11
ENDBRANCH   3   7
BRANCH   1  18
HETATM   18  C   UNL     1      42.565 -17.385   2.939  1.00  0.00     0.180 A 
HETATM   19  N   UNL     1      42.672 -18.290   1.983  1.00  0.00    -0.226 NA
HETATM   20  C   UNL     1      43.423 -19.295   2.551  1.00  0.00     0.063 A 
HETATM   21  C   UNL     1      43.780 -20.508   1.788  1.00  0.00     0.073 C 
HETATM   22  C   UNL     1      43.736 -18.957   3.850  1.00  0.00     0.076 A 
HETATM   23  O   UNL     1      43.192 -17.731   4.107  1.00  0.00    -0.294 OA
HETATM   24  C   UNL     1      44.489 -19.601   4.938  1.00  0.00     0.079 C 
ENDBRANCH   1  18
TORSDOF 4
ENDMDL
MODEL 8
REMARK VINA RESULT:      -7.0      2.158      2.743
REMARK  4 active torsions:
REMARK  status: ('A' for Active; 'I' for Inactive)
REMARK    1  A    between atoms: C_4  and  C_5 
REMARK    2  A    between atoms: C_7  and  N_8 
REMARK       I    between atoms: N_8  and  C_9 
REMARK    3  A    between atoms: C_9  and  C_10 
REMARK    4  A    between atoms: C_10  and  C_11 
ROOT
HETATM    1  C   UNL     1      41.062 -14.792   4.169  1.00  0.00     0.019 A 
HETATM    2  C   UNL     1      40.511 -14.503   2.908  1.00  0.00     0.045 A 
HETATM    3  C   UNL     1      39.651 -13.415   2.729  1.00  0.00     0.035 A 
HETATM    4  C   UNL     1      39.340 -12.608   3.831  1.00  0.00     0.029 A 
HETATM    5  C   UNL     1      39.881 -12.878   5.087  1.00  0.00     0.003 A 
HETATM    6  C   UNL     1      40.736 -13.965   5.254  1.00  0.00     0.016 A 
ENDROOT
BRANCH   3   7
HETATM    7  N   UNL     1      39.056 -13.064   1.498  1.00  0.00    -0.327 N 
HETATM    8  C   UNL     1      39.662 -12.476   0.394  1.00  0.00     0.227 C 
HETATM    9  O   UNL     1      40.838 -12.129   0.321  1.00  0.00    -0.273 OA
HETATM   10  H   UNL     1      38.065 -13.256   1.423  1.00  0.00     0.169 HD
BRANCH   8  11
HETATM   11  C   UNL     1      38.664 -12.231  -0.744  1.00  0.00     0.159 C 
BRANCH  11  12
HETATM   12  C   UNL     1      38.594 -13.340  -1.749  1.00  0.00     0.017 A 
HETATM   13  N   UNL     1      37.917 -13.230  -2.945  1.00  0.00    -0.369 N 
HETATM   14  H   UNL     1      37.448 -12.385  -3.260  1.00  0.00     0.165 HD
HETATM   15  C   UNL     1      38.004 -14.408  -3.636  1.00  0.00     0.088 A 
HETATM   16  C   UNL     1      38.740 -15.291  -2.883  1.00  0.00     0.019 A 
HETATM   17  C   UNL     1      39.113 -14.621  -1.694  1.00  0.00     0.027 A 
ENDBRANCH  11  12
ENDBRANCH   8  11
ENDBRANCH   3   7
BRANCH   1  18
HETATM   18  C   UNL     1      41.957 -15.928   4.386  1.00  0.00     0.180 A 
HETATM   19  N   UNL     1      42.628 -16.638   3.497  1.00  0.00    -0.226 NA
HETATM   20  C   UNL     1      43.305 -17.571   4.249  1.00  0.00     0.063 A 
HETATM   21  C   UNL     1      44.194 -18.566   3.615  1.00  0.00     0.073 C 
HETATM   22  C   UNL     1      43.003 -17.394   5.582  1.00  0.00     0.076 A 
HETATM   23  O   UNL     1      42.142 -16.338   5.680  1.00  0.00    -0.294 OA
HETATM   24  C   UNL     1      43.400 -18.059   6.834  1.00  0.00     0.079 C 
ENDBRANCH   1  18
TORSDOF 4
ENDMDL
MODEL 9
REMARK VINA RESULT:      -6.9      1.783      2.096
REMARK  4 active torsions:
REMARK  status: ('A' for Active; 'I' for Inactive)
REMARK    1  A    between atoms: C_4  and  C_5 
REMARK    2  A    between atoms: C_7  and  N_8 
REMARK       I    between atoms: N_8  and  C_9 
REMARK    3  A    between atoms: C_9  and  C_10 
REMARK    4  A    between atoms: C_10  and  C_11 
ROOT
HETATM    1  C   UNL     1      42.697 -15.776   2.500  1.00  0.00     0.019 A 
HETATM    2  C   UNL     1      42.019 -15.558   1.287  1.00  0.00     0.045 A 
HETATM    3  C   UNL     1      41.609 -14.275   0.910  1.00  0.00     0.035 A 
HETATM    4  C   UNL     1      41.884 -13.197   1.763  1.00  0.00     0.029 A 
HETATM    5  C   UNL     1      42.559 -13.396   2.967  1.00  0.00     0.003 A 
HETATM    6  C   UNL     1      42.961 -14.678   3.332  1.00  0.00     0.016 A 
ENDROOT
BRANCH   3   7
HETATM    7  N   UNL     1      40.921 -13.978  -0.286  1.00  0.00    -0.327 N 
HETATM    8  C   UNL     1      39.759 -13.232  -0.439  1.00  0.00     0.227 C 
HETATM    9  O   UNL     1      39.107 -12.724   0.470  1.00  0.00    -0.273 OA
HETATM   10  H   UNL     1      41.324 -14.370  -1.128  1.00  0.00     0.169 HD
BRANCH   8  11
HETATM   11  C   UNL     1      39.313 -13.161  -1.905  1.00  0.00     0.159 C 
BRANCH  11  12
HETATM   12  C   UNL     1      39.483 -11.810  -2.533  1.00  0.00     0.017 A 
HETATM   13  N   UNL     1      38.468 -11.157  -3.198  1.00  0.00    -0.369 N 
HETATM   14  H   UNL     1      37.519 -11.512  -3.283  1.00  0.00     0.165 HD
HETATM   15  C   UNL     1      38.927  -9.965  -3.688  1.00  0.00     0.088 A 
HETATM   16  C   UNL     1      40.252  -9.843  -3.341  1.00  0.00     0.019 A 
HETATM   17  C   UNL     1      40.605 -11.005  -2.613  1.00  0.00     0.027 A 
ENDBRANCH  11  12
ENDBRANCH   8  11
ENDBRANCH   3   7
BRANCH   1  18
HETATM   18  C   UNL     1      43.129 -17.107   2.922  1.00  0.00     0.180 A 
HETATM   19  N   UNL     1      43.548 -17.508   4.109  1.00  0.00    -0.226 NA
HETATM   20  C   UNL     1      43.816 -18.847   3.940  1.00  0.00     0.063 A 
HETATM   21  C   UNL     1      44.306 -19.676   5.060  1.00  0.00     0.073 C 
HETATM   22  C   UNL     1      43.555 -19.207   2.635  1.00  0.00     0.076 A 
HETATM   23  O   UNL     1      43.110 -18.098   1.975  1.00  0.00    -0.294 OA
HETATM   24  C   UNL     1      43.646 -20.459   1.866  1.00  0.00     0.079 C 
ENDBRANCH   1  18
TORSDOF 4
ENDMDL
MODEL 10
REMARK VINA RESULT:      -6.9      3.111      5.430
REMARK  4 active torsions:
REMARK  status: ('A' for Active; 'I' for Inactive)
REMARK    1  A    between atoms: C_4  and  C_5 
REMARK    2  A    between atoms: C_7  and  N_8 
REMARK       I    between atoms: N_8  and  C_9 
REMARK    3  A    between atoms: C_9  and  C_10 
REMARK    4  A    between atoms: C_10  and  C_11 
ROOT
HETATM    1  C   UNL     1      42.552 -13.973   5.731  1.00  0.00     0.019 A 
HETATM    2  C   UNL     1      41.861 -13.908   4.507  1.00  0.00     0.045 A 
HETATM    3  C   UNL     1      41.232 -15.037   3.972  1.00  0.00     0.035 A 
HETATM    4  C   UNL     1      41.300 -16.248   4.675  1.00  0.00     0.029 A 
HETATM    5  C   UNL     1      41.977 -16.328   5.892  1.00  0.00     0.003 A 
HETATM    6  C   UNL     1      42.600 -15.198   6.414  1.00  0.00     0.016 A 
ENDROOT
BRANCH   3   7
HETATM    7  N   UNL     1      40.525 -15.052   2.751  1.00  0.00    -0.327 N 
HETATM    8  C   UNL     1      41.040 -15.195   1.468  1.00  0.00     0.227 C 
HETATM    9  O   UNL     1      42.230 -15.303   1.181  1.00  0.00    -0.273 OA
HETATM   10  H   UNL     1      39.523 -14.930   2.827  1.00  0.00     0.169 HD
BRANCH   8  11
HETATM   11  C   UNL     1      39.942 -15.133   0.400  1.00  0.00     0.159 C 
BRANCH  11  12
HETATM   12  C   UNL     1      40.213 -14.155  -0.703  1.00  0.00     0.017 A 
HETATM   13  N   UNL     1      40.968 -13.015  -0.528  1.00  0.00    -0.369 N 
HETATM   14  H   UNL     1      41.433 -12.765   0.340  1.00  0.00     0.165 HD
HETATM   15  C   UNL     1      41.014 -12.306  -1.699  1.00  0.00     0.088 A 
HETATM   16  C   UNL     1      40.281 -12.990  -2.640  1.00  0.00     0.019 A 
HETATM   17  C   UNL     1      39.775 -14.154  -2.015  1.00  0.00     0.027 A 
ENDBRANCH  11  12
ENDBRANCH   8  11
ENDBRANCH   3   7
BRANCH   1  18
HETATM   18  C   UNL     1      43.225 -12.811   6.307  1.00  0.00     0.180 A 
HETATM   19  N   UNL     1      44.482 -12.684   6.690  1.00  0.00    -0.226 NA
HETATM   20  C   UNL     1      44.569 -11.389   7.149  1.00  0.00     0.063 A 
HETATM   21  C   UNL     1      45.840 -10.843   7.666  1.00  0.00     0.073 C 
HETATM   22  C   UNL     1      43.339 -10.778   7.034  1.00  0.00     0.076 A 
HETATM   23  O   UNL     1      42.471 -11.681   6.490  1.00  0.00    -0.294 OA
HETATM   24  C   UNL     1      42.811  -9.440   7.348  1.00  0.00     0.079 C 
ENDBRANCH   1  18
TORSDOF 4
ENDMDL
