MODEL 1
REMARK VINA RESULT:      -9.7      0.000      0.000
REMARK  3 active torsions:
REMARK  status: ('A' for Active; 'I' for Inactive)
REMARK    1  A    between atoms: C_9  and  C_10 
REMARK       I    between atoms: C_10  and  N_11 
REMARK    2  A    between atoms: N_11  and  C_12 
REMARK    3  A    between atoms: C_19  and  C_20 
REMARK       I    between atoms: C_20  and  N_21 
ROOT
HETATM    1  C   UNL     1      44.538 -11.987   6.773  1.00  0.00     0.035 A 
HETATM    2  C   UNL     1      43.946 -11.665   8.002  1.00  0.00     0.046 A 
HETATM    3  C   UNL     1      44.550 -10.706   8.840  1.00  0.00     0.030 A 
HETATM    4  C   UNL     1      45.707 -10.075   8.408  1.00  0.00     0.063 A 
HETATM    5  N   UNL     1      46.044  -9.216   9.418  1.00  0.00    -0.277 N 
HETATM    6  H   UNL     1      46.836  -8.584   9.448  1.00  0.00     0.189 HD
HETATM    7  N   UNL     1      45.223  -9.256  10.483  1.00  0.00    -0.168 NA
HETATM    8  C   UNL     1      44.295 -10.178  10.140  1.00  0.00     0.156 A 
HETATM    9  C   UNL     1      46.312 -10.353   7.180  1.00  0.00     0.034 A 
HETATM   10  C   UNL     1      45.711 -11.334   6.377  1.00  0.00     0.032 A 
ENDROOT
BRANCH   1  11
HETATM   11  N   UNL     1      44.051 -13.024   5.951  1.00  0.00    -0.325 N 
HETATM   12  C   UNL     1      42.724 -13.401   5.815  1.00  0.00     0.252 C 
HETATM   13  O   UNL     1      41.750 -12.703   6.084  1.00  0.00    -0.270 OA
HETATM   14  H   UNL     1      44.723 -13.556   5.408  1.00  0.00     0.169 HD
BRANCH  12  15
HETATM   15  C   UNL     1      42.580 -14.869   5.415  1.00  0.00     0.225 C 
HETATM   16  C   UNL     1      42.871 -15.090   3.929  1.00  0.00     0.083 C 
HETATM   17  C   UNL     1      43.210 -16.528   4.010  1.00  0.00    -0.021 A 
HETATM   18  C   UNL     1      43.534 -16.843   5.319  1.00  0.00     0.076 A 
HETATM   19  C   UNL     1      43.259 -17.480   3.010  1.00  0.00     0.017 A 
HETATM   20  C   UNL     1      43.931 -18.112   5.682  1.00  0.00     0.044 A 
HETATM   21  O   UNL     1      43.401 -15.779   6.182  1.00  0.00    -0.336 OA
HETATM   22  C   UNL     1      43.963 -19.113   4.692  1.00  0.00    -0.053 A 
HETATM   23  C   UNL     1      43.632 -18.791   3.345  1.00  0.00    -0.055 A 
HETATM   24  C   UNL     1      44.373 -20.508   5.078  1.00  0.00     0.049 C 
HETATM   25  C   UNL     1      43.633 -19.840   2.266  1.00  0.00     0.049 C 
ENDBRANCH  12  15
ENDBRANCH   1  11
BRANCH   8  26
HETATM   26  C   UNL     1      43.209 -10.557  11.058  1.00  0.00     0.270 C 
HETATM   27  N   UNL     1      43.550 -11.529  11.959  1.00  0.00    -0.365 N 
HETATM   28  H   UNL     1      44.483 -11.923  11.920  1.00  0.00     0.159 HD
HETATM   29  H   UNL     1      42.855 -11.875  12.602  1.00  0.00     0.159 HD
HETATM   30  O   UNL     1      42.079 -10.082  11.037  1.00  0.00    -0.266 OA
ENDBRANCH   8  26
TORSDOF 3
ENDMDL
MODEL 2
REMARK VINA RESULT:      -9.4      2.136      2.679
REMARK  3 active torsions:
REMARK  status: ('A' for Active; 'I' for Inactive)
REMARK    1  A    between atoms: C_9  and  C_10 
REMARK       I    between atoms: C_10  and  N_11 
REMARK    2  A    between atoms: N_11  and  C_12 
REMARK    3  A    between atoms: C_19  and  C_20 
REMARK       I    between atoms: C_20  and  N_21 
ROOT
HETATM    1  C   UNL     1      42.682 -12.026   6.302  1.00  0.00     0.035 A 
HETATM    2  C   UNL     1      43.619 -11.264   7.013  1.00  0.00     0.046 A 
HETATM    3  C   UNL     1      43.275  -9.975   7.466  1.00  0.00     0.030 A 
HETATM    4  C   UNL     1      41.993  -9.501   7.224  1.00  0.00     0.063 A 
HETATM    5  N   UNL     1      41.965  -8.250   7.775  1.00  0.00    -0.277 N 
HETATM    6  H   UNL     1      41.184  -7.605   7.792  1.00  0.00     0.189 HD
HETATM    7  N   UNL     1      43.127  -7.856   8.327  1.00  0.00    -0.168 NA
HETATM    8  C   UNL     1      43.948  -8.914   8.140  1.00  0.00     0.156 A 
HETATM    9  C   UNL     1      41.025 -10.241   6.540  1.00  0.00     0.034 A 
HETATM   10  C   UNL     1      41.402 -11.509   6.070  1.00  0.00     0.032 A 
ENDROOT
BRANCH   1  11
HETATM   11  N   UNL     1      43.007 -13.267   5.717  1.00  0.00    -0.325 N 
HETATM   12  C   UNL     1      42.849 -13.606   4.382  1.00  0.00     0.252 C 
HETATM   13  O   UNL     1      42.751 -12.813   3.449  1.00  0.00    -0.270 OA
HETATM   14  H   UNL     1      43.386 -13.992   6.319  1.00  0.00     0.169 HD
BRANCH  12  15
HETATM   15  C   UNL     1      42.662 -15.110   4.187  1.00  0.00     0.225 C 
HETATM   16  C   UNL     1      43.013 -15.550   2.764  1.00  0.00     0.083 C 
HETATM   17  C   UNL     1      43.286 -16.973   3.064  1.00  0.00    -0.021 A 
HETATM   18  C   UNL     1      43.536 -17.109   4.419  1.00  0.00     0.076 A 
HETATM   19  C   UNL     1      43.341 -18.059   2.212  1.00  0.00     0.017 A 
HETATM   20  C   UNL     1      43.861 -18.326   4.977  1.00  0.00     0.044 A 
HETATM   21  O   UNL     1      43.408 -15.929   5.116  1.00  0.00    -0.336 OA
HETATM   22  C   UNL     1      43.897 -19.459   4.142  1.00  0.00    -0.053 A 
HETATM   23  C   UNL     1      43.643 -19.321   2.748  1.00  0.00    -0.055 A 
HETATM   24  C   UNL     1      44.229 -20.798   4.741  1.00  0.00     0.049 C 
HETATM   25  C   UNL     1      43.650 -20.513   1.829  1.00  0.00     0.049 C 
ENDBRANCH  12  15
ENDBRANCH   1  11
BRANCH   8  26
HETATM   26  C   UNL     1      45.353  -8.885   8.576  1.00  0.00     0.270 C 
HETATM   27  N   UNL     1      45.550  -9.316   9.860  1.00  0.00    -0.365 N 
HETATM   28  H   UNL     1      44.745  -9.593  10.409  1.00  0.00     0.159 HD
HETATM   29  H   UNL     1      46.478  -9.296  10.253  1.00  0.00     0.159 HD
HETATM   30  O   UNL     1      46.290  -8.498   7.888  1.00  0.00    -0.266 OA
ENDBRANCH   8  26
TORSDOF 3
ENDMDL
MODEL 3
REMARK VINA RESULT:      -9.3      5.651      8.684
REMARK  3 active torsions:
REMARK  status: ('A' for Active; 'I' for Inactive)
REMARK    1  A    between atoms: C_9  and  C_10 
REMARK       I    between atoms: C_10  and  N_11 
REMARK    2  A    between atoms: N_11  and  C_12 
REMARK    3  A    between atoms: C_19  and  C_20 
REMARK       I    between atoms: C_20  and  N_21 
ROOT
HETATM    1  C   UNL     1      40.065 -13.124   1.579  1.00  0.00     0.035 A 
HETATM    2  C   UNL     1      39.913 -13.253   0.192  1.00  0.00     0.046 A 
HETATM    3  C   UNL     1      38.928 -12.500  -0.477  1.00  0.00     0.030 A 
HETATM    4  C   UNL     1      38.150 -11.615   0.256  1.00  0.00     0.063 A 
HETATM    5  N   UNL     1      37.305 -11.044  -0.655  1.00  0.00    -0.277 N 
HETATM    6  H   UNL     1      36.595 -10.342  -0.478  1.00  0.00     0.189 HD
HETATM    7  N   UNL     1      37.445 -11.502  -1.912  1.00  0.00    -0.168 NA
HETATM    8  C   UNL     1      38.445 -12.408  -1.816  1.00  0.00     0.156 A 
HETATM    9  C   UNL     1      38.289 -11.442   1.635  1.00  0.00     0.034 A 
HETATM   10  C   UNL     1      39.254 -12.227   2.285  1.00  0.00     0.032 A 
ENDROOT
BRANCH   1  11
HETATM   11  N   UNL     1      40.945 -13.939   2.321  1.00  0.00    -0.325 N 
HETATM   12  C   UNL     1      42.297 -13.707   2.522  1.00  0.00     0.252 C 
HETATM   13  O   UNL     1      42.861 -12.622   2.412  1.00  0.00    -0.270 OA
HETATM   14  H   UNL     1      40.570 -14.781   2.745  1.00  0.00     0.169 HD
BRANCH  12  15
HETATM   15  C   UNL     1      43.074 -15.000   2.769  1.00  0.00     0.225 C 
HETATM   16  C   UNL     1      42.918 -15.496   4.208  1.00  0.00     0.083 C 
HETATM   17  C   UNL     1      43.245 -16.917   3.959  1.00  0.00    -0.021 A 
HETATM   18  C   UNL     1      43.085 -17.188   2.611  1.00  0.00     0.076 A 
HETATM   19  C   UNL     1      43.626 -17.903   4.849  1.00  0.00     0.017 A 
HETATM   20  C   UNL     1      43.284 -18.451   2.097  1.00  0.00     0.044 A 
HETATM   21  O   UNL     1      42.732 -16.081   1.873  1.00  0.00    -0.336 OA
HETATM   22  C   UNL     1      43.701 -19.473   2.972  1.00  0.00    -0.053 A 
HETATM   23  C   UNL     1      43.865 -19.197   4.359  1.00  0.00    -0.055 A 
HETATM   24  C   UNL     1      43.944 -20.852   2.421  1.00  0.00     0.049 C 
HETATM   25  C   UNL     1      44.331 -20.258   5.319  1.00  0.00     0.049 C 
ENDBRANCH  12  15
ENDBRANCH   1  11
BRANCH   8  26
HETATM   26  C   UNL     1      38.899 -13.181  -2.981  1.00  0.00     0.270 C 
HETATM   27  N   UNL     1      37.897 -13.839  -3.643  1.00  0.00    -0.365 N 
HETATM   28  H   UNL     1      36.951 -13.769  -3.286  1.00  0.00     0.159 HD
HETATM   29  H   UNL     1      38.123 -14.422  -4.433  1.00  0.00     0.159 HD
HETATM   30  O   UNL     1      40.065 -13.272  -3.349  1.00  0.00    -0.266 OA
ENDBRANCH   8  26
TORSDOF 3
ENDMDL
MODEL 4
REMARK VINA RESULT:      -9.3      1.753      1.766
REMARK  3 active torsions:
REMARK  status: ('A' for Active; 'I' for Inactive)
REMARK    1  A    between atoms: C_9  and  C_10 
REMARK       I    between atoms: C_10  and  N_11 
REMARK    2  A    between atoms: N_11  and  C_12 
REMARK    3  A    between atoms: C_19  and  C_20 
REMARK       I    between atoms: C_20  and  N_21 
ROOT
HETATM    1  C   UNL     1      44.124 -11.912   6.379  1.00  0.00     0.035 A 
HETATM    2  C   UNL     1      43.012 -11.246   6.912  1.00  0.00     0.046 A 
HETATM    3  C   UNL     1      43.200 -10.167   7.799  1.00  0.00     0.030 A 
HETATM    4  C   UNL     1      44.494  -9.765   8.098  1.00  0.00     0.063 A 
HETATM    5  N   UNL     1      44.352  -8.717   8.965  1.00  0.00    -0.277 N 
HETATM    6  H   UNL     1      45.090  -8.169   9.392  1.00  0.00     0.189 HD
HETATM    7  N   UNL     1      43.078  -8.422   9.280  1.00  0.00    -0.168 NA
HETATM    8  C   UNL     1      42.354  -9.315   8.568  1.00  0.00     0.156 A 
HETATM    9  C   UNL     1      45.626 -10.389   7.567  1.00  0.00     0.034 A 
HETATM   10  C   UNL     1      45.414 -11.482   6.712  1.00  0.00     0.032 A 
ENDROOT
BRANCH   1  11
HETATM   11  N   UNL     1      44.000 -13.072   5.588  1.00  0.00    -0.325 N 
HETATM   12  C   UNL     1      42.970 -13.348   4.702  1.00  0.00     0.252 C 
HETATM   13  O   UNL     1      42.218 -12.519   4.198  1.00  0.00    -0.270 OA
HETATM   14  H   UNL     1      44.720 -13.783   5.670  1.00  0.00     0.169 HD
BRANCH  12  15
HETATM   15  C   UNL     1      42.762 -14.850   4.510  1.00  0.00     0.225 C 
HETATM   16  C   UNL     1      42.993 -15.280   3.060  1.00  0.00     0.083 C 
HETATM   17  C   UNL     1      43.284 -16.707   3.325  1.00  0.00    -0.021 A 
HETATM   18  C   UNL     1      43.643 -16.855   4.654  1.00  0.00     0.076 A 
HETATM   19  C   UNL     1      43.265 -17.785   2.463  1.00  0.00     0.017 A 
HETATM   20  C   UNL     1      44.008 -18.077   5.174  1.00  0.00     0.044 A 
HETATM   21  O   UNL     1      43.577 -15.680   5.369  1.00  0.00    -0.336 OA
HETATM   22  C   UNL     1      43.971 -19.203   4.329  1.00  0.00    -0.053 A 
HETATM   23  C   UNL     1      43.604 -19.053   2.962  1.00  0.00    -0.055 A 
HETATM   24  C   UNL     1      44.345 -20.549   4.888  1.00  0.00     0.049 C 
HETATM   25  C   UNL     1      43.531 -20.237   2.036  1.00  0.00     0.049 C 
ENDBRANCH  12  15
ENDBRANCH   1  11
BRANCH   8  26
HETATM   26  C   UNL     1      40.886  -9.359   8.653  1.00  0.00     0.270 C 
HETATM   27  N   UNL     1      40.405  -9.661   9.898  1.00  0.00    -0.365 N 
HETATM   28  H   UNL     1      41.067  -9.848  10.643  1.00  0.00     0.159 HD
HETATM   29  H   UNL     1      39.411  -9.747  10.038  1.00  0.00     0.159 HD
HETATM   30  O   UNL     1      40.126  -9.169   7.710  1.00  0.00    -0.266 OA
ENDBRANCH   8  26
TORSDOF 3
ENDMDL
MODEL 5
REMARK VINA RESULT:      -9.0      2.743      9.191
REMARK  3 active torsions:
REMARK  status: ('A' for Active; 'I' for Inactive)
REMARK    1  A    between atoms: C_9  and  C_10 
REMARK       I    between atoms: C_10  and  N_11 
REMARK    2  A    between atoms: N_11  and  C_12 
REMARK    3  A    between atoms: C_19  and  C_20 
REMARK       I    between atoms: C_20  and  N_21 
ROOT
HETATM    1  C   UNL     1      43.178 -13.647   6.746  1.00  0.00     0.035 A 
HETATM    2  C   UNL     1      43.151 -13.848   5.359  1.00  0.00     0.046 A 
HETATM    3  C   UNL     1      43.142 -15.158   4.842  1.00  0.00     0.030 A 
HETATM    4  C   UNL     1      43.123 -16.227   5.727  1.00  0.00     0.063 A 
HETATM    5  N   UNL     1      43.115 -17.344   4.938  1.00  0.00    -0.277 N 
HETATM    6  H   UNL     1      43.097 -18.310   5.243  1.00  0.00     0.189 HD
HETATM    7  N   UNL     1      43.158 -17.096   3.617  1.00  0.00    -0.168 NA
HETATM    8  C   UNL     1      43.178 -15.745   3.542  1.00  0.00     0.156 A 
HETATM    9  C   UNL     1      43.125 -16.064   7.115  1.00  0.00     0.034 A 
HETATM   10  C   UNL     1      43.169 -14.751   7.606  1.00  0.00     0.032 A 
ENDROOT
BRANCH   1  11
HETATM   11  N   UNL     1      43.315 -12.366   7.319  1.00  0.00    -0.325 N 
HETATM   12  C   UNL     1      44.492 -11.642   7.426  1.00  0.00     0.252 C 
HETATM   13  O   UNL     1      45.502 -11.813   6.750  1.00  0.00    -0.270 OA
HETATM   14  H   UNL     1      42.484 -11.924   7.700  1.00  0.00     0.169 HD
BRANCH  12  15
HETATM   15  C   UNL     1      44.464 -10.666   8.603  1.00  0.00     0.225 C 
HETATM   16  C   UNL     1      43.694  -9.386   8.267  1.00  0.00     0.083 C 
HETATM   17  C   UNL     1      43.370  -8.987   9.654  1.00  0.00    -0.021 A 
HETATM   18  C   UNL     1      43.488 -10.091  10.482  1.00  0.00     0.076 A 
HETATM   19  C   UNL     1      42.973  -7.759  10.148  1.00  0.00     0.017 A 
HETATM   20  C   UNL     1      43.206 -10.020  11.828  1.00  0.00     0.044 A 
HETATM   21  O   UNL     1      43.922 -11.219   9.823  1.00  0.00    -0.336 OA
HETATM   22  C   UNL     1      42.827  -8.776  12.369  1.00  0.00    -0.053 A 
HETATM   23  C   UNL     1      42.703  -7.640  11.520  1.00  0.00    -0.055 A 
HETATM   24  C   UNL     1      42.537  -8.679  13.843  1.00  0.00     0.049 C 
HETATM   25  C   UNL     1      42.322  -6.291  12.068  1.00  0.00     0.049 C 
ENDBRANCH  12  15
ENDBRANCH   1  11
BRANCH   8  26
HETATM   26  C   UNL     1      43.260 -15.046   2.251  1.00  0.00     0.270 C 
HETATM   27  N   UNL     1      43.271 -15.876   1.163  1.00  0.00    -0.365 N 
HETATM   28  H   UNL     1      43.247 -16.878   1.316  1.00  0.00     0.159 HD
HETATM   29  H   UNL     1      43.362 -15.484   0.239  1.00  0.00     0.159 HD
HETATM   30  O   UNL     1      43.333 -13.830   2.118  1.00  0.00    -0.266 OA
ENDBRANCH   8  26
TORSDOF 3
ENDMDL
MODEL 6
REMARK VINA RESULT:      -8.8      3.247      9.036
REMARK  3 active torsions:
REMARK  status: ('A' for Active; 'I' for Inactive)
REMARK    1  A    between atoms: C_9  and  C_10 
REMARK       I    between atoms: C_10  and  N_11 
REMARK    2  A    between atoms: N_11  and  C_12 
REMARK    3  A    between atoms: C_19  and  C_20 
REMARK       I    between atoms: C_20  and  N_21 
ROOT
HETATM    1  C   UNL     1      42.889 -15.714   4.092  1.00  0.00     0.035 A 
HETATM    2  C   UNL     1      43.263 -16.941   4.657  1.00  0.00     0.046 A 
HETATM    3  C   UNL     1      43.457 -18.063   3.827  1.00  0.00     0.030 A 
HETATM    4  C   UNL     1      43.307 -17.916   2.456  1.00  0.00     0.063 A 
HETATM    5  N   UNL     1      43.558 -19.154   1.933  1.00  0.00    -0.277 N 
HETATM    6  H   UNL     1      43.544 -19.423   0.956  1.00  0.00     0.189 HD
HETATM    7  N   UNL     1      43.828 -20.103   2.848  1.00  0.00    -0.168 NA
HETATM    8  C   UNL     1      43.766 -19.441   4.027  1.00  0.00     0.156 A 
HETATM    9  C   UNL     1      42.959 -16.703   1.855  1.00  0.00     0.034 A 
HETATM   10  C   UNL     1      42.738 -15.608   2.704  1.00  0.00     0.032 A 
ENDROOT
BRANCH   1  11
HETATM   11  N   UNL     1      42.559 -14.591   4.878  1.00  0.00    -0.325 N 
HETATM   12  C   UNL     1      42.993 -13.292   4.667  1.00  0.00     0.252 C 
HETATM   13  O   UNL     1      43.418 -12.843   3.606  1.00  0.00    -0.270 OA
HETATM   14  H   UNL     1      41.954 -14.734   5.681  1.00  0.00     0.169 HD
BRANCH  12  15
HETATM   15  C   UNL     1      43.026 -12.477   5.960  1.00  0.00     0.225 C 
HETATM   16  C   UNL     1      44.381 -12.577   6.665  1.00  0.00     0.083 C 
HETATM   17  C   UNL     1      44.282 -11.327   7.450  1.00  0.00    -0.021 A 
HETATM   18  C   UNL     1      43.327 -10.506   6.875  1.00  0.00     0.076 A 
HETATM   19  C   UNL     1      44.994 -10.927   8.565  1.00  0.00     0.017 A 
HETATM   20  C   UNL     1      43.051  -9.253   7.377  1.00  0.00     0.044 A 
HETATM   21  O   UNL     1      42.700 -11.079   5.792  1.00  0.00    -0.336 OA
HETATM   22  C   UNL     1      43.738  -8.826   8.530  1.00  0.00    -0.053 A 
HETATM   23  C   UNL     1      44.722  -9.668   9.122  1.00  0.00    -0.055 A 
HETATM   24  C   UNL     1      43.432  -7.469   9.102  1.00  0.00     0.049 C 
HETATM   25  C   UNL     1      45.459  -9.254  10.368  1.00  0.00     0.049 C 
ENDBRANCH  12  15
ENDBRANCH   1  11
BRANCH   8  26
HETATM   26  C   UNL     1      43.971 -20.131   5.309  1.00  0.00     0.270 C 
HETATM   27  N   UNL     1      44.744 -21.257   5.223  1.00  0.00    -0.365 N 
HETATM   28  H   UNL     1      45.090 -21.541   4.313  1.00  0.00     0.159 HD
HETATM   29  H   UNL     1      44.906 -21.813   6.048  1.00  0.00     0.159 HD
HETATM   30  O   UNL     1      43.492 -19.774   6.380  1.00  0.00    -0.266 OA
ENDBRANCH   8  26
TORSDOF 3
ENDMDL
MODEL 7
REMARK VINA RESULT:      -8.7      5.701      8.744
REMARK  3 active torsions:
REMARK  status: ('A' for Active; 'I' for Inactive)
REMARK    1  A    between atoms: C_9  and  C_10 
REMARK       I    between atoms: C_10  and  N_11 
REMARK    2  A    between atoms: N_11  and  C_12 
REMARK    3  A    between atoms: C_19  and  C_20 
REMARK       I    between atoms: C_20  and  N_21 
ROOT
HETATM    1  C   UNL     1      42.374 -15.627   2.480  1.00  0.00     0.035 A 
HETATM    2  C   UNL     1      42.268 -15.599   3.877  1.00  0.00     0.046 A 
HETATM    3  C   UNL     1      42.787 -16.664   4.640  1.00  0.00     0.030 A 
HETATM    4  C   UNL     1      43.428 -17.706   3.985  1.00  0.00     0.063 A 
HETATM    5  N   UNL     1      43.815 -18.566   4.975  1.00  0.00    -0.277 N 
HETATM    6  H   UNL     1      44.317 -19.441   4.867  1.00  0.00     0.189 HD
HETATM    7  N   UNL     1      43.455 -18.190   6.215  1.00  0.00    -0.168 NA
HETATM    8  C   UNL     1      42.814 -17.015   6.022  1.00  0.00     0.156 A 
HETATM    9  C   UNL     1      43.574 -17.756   2.596  1.00  0.00     0.034 A 
HETATM   10  C   UNL     1      43.020 -16.701   1.855  1.00  0.00     0.032 A 
ENDROOT
BRANCH   1  11
HETATM   11  N   UNL     1      41.766 -14.656   1.658  1.00  0.00    -0.325 N 
HETATM   12  C   UNL     1      40.639 -14.842   0.873  1.00  0.00     0.252 C 
HETATM   13  O   UNL     1      39.798 -15.724   1.025  1.00  0.00    -0.270 OA
HETATM   14  H   UNL     1      42.186 -13.732   1.623  1.00  0.00     0.169 HD
BRANCH  12  15
HETATM   15  C   UNL     1      40.612 -13.899  -0.330  1.00  0.00     0.225 C 
HETATM   16  C   UNL     1      39.184 -13.607  -0.796  1.00  0.00     0.083 C 
HETATM   17  C   UNL     1      39.465 -12.331  -1.491  1.00  0.00    -0.021 A 
HETATM   18  C   UNL     1      40.666 -11.820  -1.029  1.00  0.00     0.076 A 
HETATM   19  C   UNL     1      38.713 -11.656  -2.432  1.00  0.00     0.017 A 
HETATM   20  C   UNL     1      41.160 -10.614  -1.475  1.00  0.00     0.044 A 
HETATM   21  O   UNL     1      41.290 -12.641  -0.117  1.00  0.00    -0.336 OA
HETATM   22  C   UNL     1      40.432  -9.914  -2.456  1.00  0.00    -0.053 A 
HETATM   23  C   UNL     1      39.196 -10.436  -2.932  1.00  0.00    -0.055 A 
HETATM   24  C   UNL     1      40.970  -8.606  -2.970  1.00  0.00     0.049 C 
HETATM   25  C   UNL     1      38.404  -9.727  -3.997  1.00  0.00     0.049 C 
ENDBRANCH  12  15
ENDBRANCH   1  11
BRANCH   8  26
HETATM   26  C   UNL     1      42.220 -16.268   7.141  1.00  0.00     0.270 C 
HETATM   27  N   UNL     1      43.090 -16.006   8.165  1.00  0.00    -0.365 N 
HETATM   28  H   UNL     1      44.041 -16.350   8.095  1.00  0.00     0.159 HD
HETATM   29  H   UNL     1      42.758 -15.530   8.989  1.00  0.00     0.159 HD
HETATM   30  O   UNL     1      41.049 -15.912   7.201  1.00  0.00    -0.266 OA
ENDBRANCH   8  26
TORSDOF 3
ENDMDL
MODEL 8
REMARK VINA RESULT:      -8.4      5.598      8.775
REMARK  3 active torsions:
REMARK  status: ('A' for Active; 'I' for Inactive)
REMARK    1  A    between atoms: C_9  and  C_10 
REMARK       I    between atoms: C_10  and  N_11 
REMARK    2  A    between atoms: N_11  and  C_12 
REMARK    3  A    between atoms: C_19  and  C_20 
REMARK       I    between atoms: C_20  and  N_21 
ROOT
HETATM    1  C   UNL     1      41.968 -16.303   2.451  1.00  0.00     0.035 A 
HETATM    2  C   UNL     1      41.926 -16.091   3.836  1.00  0.00     0.046 A 
HETATM    3  C   UNL     1      42.684 -16.913   4.693  1.00  0.00     0.030 A 
HETATM    4  C   UNL     1      43.487 -17.899   4.137  1.00  0.00     0.063 A 
HETATM    5  N   UNL     1      44.086 -18.514   5.201  1.00  0.00    -0.277 N 
HETATM    6  H   UNL     1      44.747 -19.283   5.174  1.00  0.00     0.189 HD
HETATM    7  N   UNL     1      43.719 -18.035   6.404  1.00  0.00    -0.168 NA
HETATM    8  C   UNL     1      42.848 -17.045   6.104  1.00  0.00     0.156 A 
HETATM    9  C   UNL     1      43.572 -18.124   2.761  1.00  0.00     0.034 A 
HETATM   10  C   UNL     1      42.783 -17.314   1.930  1.00  0.00     0.032 A 
ENDROOT
BRANCH   1  11
HETATM   11  N   UNL     1      41.139 -15.598   1.555  1.00  0.00    -0.325 N 
HETATM   12  C   UNL     1      41.224 -14.246   1.258  1.00  0.00     0.252 C 
HETATM   13  O   UNL     1      42.212 -13.537   1.427  1.00  0.00    -0.270 OA
HETATM   14  H   UNL     1      40.402 -16.112   1.083  1.00  0.00     0.169 HD
BRANCH  12  15
HETATM   15  C   UNL     1      39.881 -13.668   0.812  1.00  0.00     0.225 C 
HETATM   16  C   UNL     1      39.426 -12.517   1.713  1.00  0.00     0.083 C 
HETATM   17  C   UNL     1      38.516 -11.864   0.746  1.00  0.00    -0.021 A 
HETATM   18  C   UNL     1      38.840 -12.283  -0.534  1.00  0.00     0.076 A 
HETATM   19  C   UNL     1      37.503 -10.951   0.968  1.00  0.00     0.017 A 
HETATM   20  C   UNL     1      38.178 -11.802  -1.642  1.00  0.00     0.044 A 
HETATM   21  O   UNL     1      39.853 -13.214  -0.560  1.00  0.00    -0.336 OA
HETATM   22  C   UNL     1      37.120 -10.892  -1.449  1.00  0.00    -0.053 A 
HETATM   23  C   UNL     1      36.787 -10.459  -0.135  1.00  0.00    -0.055 A 
HETATM   24  C   UNL     1      36.374 -10.376  -2.649  1.00  0.00     0.049 C 
HETATM   25  C   UNL     1      35.648  -9.506   0.110  1.00  0.00     0.049 C 
ENDBRANCH  12  15
ENDBRANCH   1  11
BRANCH   8  26
HETATM   26  C   UNL     1      42.172 -16.269   7.155  1.00  0.00     0.270 C 
HETATM   27  N   UNL     1      42.996 -15.862   8.169  1.00  0.00    -0.365 N 
HETATM   28  H   UNL     1      43.973 -16.132   8.140  1.00  0.00     0.159 HD
HETATM   29  H   UNL     1      42.610 -15.355   8.950  1.00  0.00     0.159 HD
HETATM   30  O   UNL     1      40.975 -16.005   7.169  1.00  0.00    -0.266 OA
ENDBRANCH   8  26
TORSDOF 3
ENDMDL
MODEL 9
REMARK VINA RESULT:      -8.3      4.558      6.539
REMARK  3 active torsions:
REMARK  status: ('A' for Active; 'I' for Inactive)
REMARK    1  A    between atoms: C_9  and  C_10 
REMARK       I    between atoms: C_10  and  N_11 
REMARK    2  A    between atoms: N_11  and  C_12 
REMARK    3  A    between atoms: C_19  and  C_20 
REMARK       I    between atoms: C_20  and  N_21 
ROOT
HETATM    1  C   UNL     1      41.265 -11.594   3.356  1.00  0.00     0.035 A 
HETATM    2  C   UNL     1      41.454 -11.302   1.998  1.00  0.00     0.046 A 
HETATM    3  C   UNL     1      41.262  -9.986   1.533  1.00  0.00     0.030 A 
HETATM    4  C   UNL     1      40.921  -8.996   2.444  1.00  0.00     0.063 A 
HETATM    5  N   UNL     1      40.809  -7.852   1.705  1.00  0.00    -0.277 N 
HETATM    6  H   UNL     1      40.576  -6.924   2.040  1.00  0.00     0.189 HD
HETATM    7  N   UNL     1      41.017  -8.016   0.385  1.00  0.00    -0.168 NA
HETATM    8  C   UNL     1      41.295  -9.334   0.264  1.00  0.00     0.156 A 
HETATM    9  C   UNL     1      40.748  -9.246   3.808  1.00  0.00     0.034 A 
HETATM   10  C   UNL     1      40.912 -10.570   4.243  1.00  0.00     0.032 A 
ENDROOT
BRANCH   1  11
HETATM   11  N   UNL     1      41.320 -12.911   3.858  1.00  0.00    -0.325 N 
HETATM   12  C   UNL     1      42.444 -13.543   4.367  1.00  0.00     0.252 C 
HETATM   13  O   UNL     1      43.450 -12.981   4.792  1.00  0.00    -0.270 OA
HETATM   14  H   UNL     1      40.467 -13.461   3.845  1.00  0.00     0.169 HD
BRANCH  12  15
HETATM   15  C   UNL     1      42.369 -15.062   4.217  1.00  0.00     0.225 C 
HETATM   16  C   UNL     1      42.671 -15.512   2.786  1.00  0.00     0.083 C 
HETATM   17  C   UNL     1      43.076 -16.900   3.101  1.00  0.00    -0.021 A 
HETATM   18  C   UNL     1      43.414 -16.978   4.442  1.00  0.00     0.076 A 
HETATM   19  C   UNL     1      43.171 -18.000   2.272  1.00  0.00     0.017 A 
HETATM   20  C   UNL     1      43.868 -18.149   5.007  1.00  0.00     0.044 A 
HETATM   21  O   UNL     1      43.230 -15.793   5.118  1.00  0.00    -0.336 OA
HETATM   22  C   UNL     1      43.949 -19.298   4.196  1.00  0.00    -0.053 A 
HETATM   23  C   UNL     1      43.604 -19.219   2.817  1.00  0.00    -0.055 A 
HETATM   24  C   UNL     1      44.422 -20.590   4.805  1.00  0.00     0.049 C 
HETATM   25  C   UNL     1      43.656 -20.432   1.926  1.00  0.00     0.049 C 
ENDBRANCH  12  15
ENDBRANCH   1  11
BRANCH   8  26
HETATM   26  C   UNL     1      41.556  -9.949  -1.046  1.00  0.00     0.270 C 
HETATM   27  N   UNL     1      42.079  -9.090  -1.974  1.00  0.00    -0.365 N 
HETATM   28  H   UNL     1      42.224  -8.121  -1.713  1.00  0.00     0.159 HD
HETATM   29  H   UNL     1      42.256  -9.418  -2.911  1.00  0.00     0.159 HD
HETATM   30  O   UNL     1      41.321 -11.119  -1.329  1.00  0.00    -0.266 OA
ENDBRANCH   8  26
TORSDOF 3
ENDMDL
MODEL 10
REMARK VINA RESULT:      -8.1      5.376      8.597
REMARK  3 active torsions:
REMARK  status: ('A' for Active; 'I' for Inactive)
REMARK    1  A    between atoms: C_9  and  C_10 
REMARK       I    between atoms: C_10  and  N_11 
REMARK    2  A    between atoms: N_11  and  C_12 
REMARK    3  A    between atoms: C_19  and  C_20 
REMARK       I    between atoms: C_20  and  N_21 
ROOT
HETATM    1  C   UNL     1      41.297 -15.417   3.904  1.00  0.00     0.035 A 
HETATM    2  C   UNL     1      42.077 -16.573   4.037  1.00  0.00     0.046 A 
HETATM    3  C   UNL     1      42.542 -16.961   5.310  1.00  0.00     0.030 A 
HETATM    4  C   UNL     1      42.184 -16.200   6.413  1.00  0.00     0.063 A 
HETATM    5  N   UNL     1      42.774 -16.818   7.481  1.00  0.00    -0.277 N 
HETATM    6  H   UNL     1      42.725 -16.541   8.454  1.00  0.00     0.189 HD
HETATM    7  N   UNL     1      43.511 -17.898   7.164  1.00  0.00    -0.168 NA
HETATM    8  C   UNL     1      43.380 -17.996   5.821  1.00  0.00     0.156 A 
HETATM    9  C   UNL     1      41.388 -15.055   6.321  1.00  0.00     0.034 A 
HETATM   10  C   UNL     1      40.964 -14.670   5.040  1.00  0.00     0.032 A 
ENDROOT
BRANCH   1  11
HETATM   11  N   UNL     1      40.908 -14.911   2.646  1.00  0.00    -0.325 N 
HETATM   12  C   UNL     1      41.729 -14.255   1.742  1.00  0.00     0.252 C 
HETATM   13  O   UNL     1      42.955 -14.319   1.711  1.00  0.00    -0.270 OA
HETATM   14  H   UNL     1      39.938 -15.023   2.367  1.00  0.00     0.169 HD
BRANCH  12  15
HETATM   15  C   UNL     1      40.947 -13.300   0.841  1.00  0.00     0.225 C 
HETATM   16  C   UNL     1      40.242 -14.037  -0.300  1.00  0.00     0.083 C 
HETATM   17  C   UNL     1      39.202 -13.020  -0.574  1.00  0.00    -0.021 A 
HETATM   18  C   UNL     1      39.078 -12.193   0.530  1.00  0.00     0.076 A 
HETATM   19  C   UNL     1      38.407 -12.851  -1.690  1.00  0.00     0.017 A 
HETATM   20  C   UNL     1      38.151 -11.174   0.570  1.00  0.00     0.044 A 
HETATM   21  O   UNL     1      39.970 -12.490   1.535  1.00  0.00    -0.336 OA
HETATM   22  C   UNL     1      37.344 -10.956  -0.563  1.00  0.00    -0.053 A 
HETATM   23  C   UNL     1      37.469 -11.807  -1.698  1.00  0.00    -0.055 A 
HETATM   24  C   UNL     1      36.343  -9.834  -0.541  1.00  0.00     0.049 C 
HETATM   25  C   UNL     1      36.639 -11.589  -2.934  1.00  0.00     0.049 C 
ENDBRANCH  12  15
ENDBRANCH   1  11
BRANCH   8  26
HETATM   26  C   UNL     1      44.068 -19.045   5.054  1.00  0.00     0.270 C 
HETATM   27  N   UNL     1      43.933 -20.302   5.577  1.00  0.00    -0.365 N 
HETATM   28  H   UNL     1      43.407 -20.418   6.436  1.00  0.00     0.159 HD
HETATM   29  H   UNL     1      44.402 -21.077   5.135  1.00  0.00     0.159 HD
HETATM   30  O   UNL     1      44.732 -18.849   4.042  1.00  0.00    -0.266 OA
ENDBRANCH   8  26
TORSDOF 3
ENDMDL
