MODEL 1
REMARK VINA RESULT:      -7.3      0.000      0.000
REMARK  4 active torsions:
REMARK  status: ('A' for Active; 'I' for Inactive)
REMARK    1  A    between atoms: O_2  and  C_3 
REMARK    2  A    between atoms: C_5  and  N_6 
REMARK    3  A    between atoms: N_6  and  C_7 
REMARK    4  A    between atoms: C_7  and  C_8 
ROOT
HETATM    1  N   UNL     1      39.645 -14.506   1.225  1.00  0.00    -0.371 N 
HETATM    2  H   UNL     1      39.202 -14.010   1.990  1.00  0.00     0.161 HD
ENDROOT
BRANCH   1   3
HETATM    3  C   UNL     1      39.978 -13.857   0.064  1.00  0.00     0.103 A 
HETATM    4  C   UNL     1      39.572 -14.230  -1.220  1.00  0.00     0.085 A 
HETATM    5  C   UNL     1      39.950 -13.480  -2.336  1.00  0.00     0.073 A 
HETATM    6  C   UNL     1      40.734 -12.351  -2.161  1.00  0.00     0.053 A 
HETATM    7  C   UNL     1      41.114 -12.004  -0.874  1.00  0.00     0.092 A 
HETATM    8  N   UNL     1      40.730 -12.749   0.171  1.00  0.00    -0.352 N 
HETATM    9  H   UNL     1      41.009 -12.464   1.105  1.00  0.00     0.166 HD
BRANCH   5  10
HETATM   10  O   UNL     1      39.483 -13.958  -3.525  1.00  0.00    -0.356 OA
HETATM   11  C   UNL     1      38.294 -14.743  -3.503  1.00  0.00     0.210 C 
ENDBRANCH   5  10
ENDBRANCH   1   3
BRANCH   1  12
HETATM   12  C   UNL     1      40.236 -15.777   1.634  1.00  0.00     0.180 C 
BRANCH  12  13
HETATM   13  C   UNL     1      41.216 -15.690   2.744  1.00  0.00     0.053 A 
HETATM   14  N   UNL     1      42.152 -16.675   3.016  1.00  0.00    -0.306 N 
HETATM   15  C   UNL     1      42.876 -16.243   4.124  1.00  0.00     0.133 A 
HETATM   16  C   UNL     1      42.397 -17.891   2.375  1.00  0.00     0.118 A 
HETATM   17  C   UNL     1      43.907 -17.095   4.608  1.00  0.00     0.052 A 
HETATM   18  N   UNL     1      42.454 -15.072   4.548  1.00  0.00    -0.241 NA
HETATM   19  C   UNL     1      44.148 -18.269   3.994  1.00  0.00     0.024 A 
HETATM   20  C   UNL     1      43.373 -18.694   2.835  1.00  0.00     0.027 A 
HETATM   21 BR   UNL     1      43.774 -20.332   2.049  1.00  0.00    -0.050 Br
HETATM   22  C   UNL     1      41.431 -14.729   3.712  1.00  0.00     0.146 A 
ENDBRANCH  12  13
ENDBRANCH   1  12
TORSDOF 4
ENDMDL
MODEL 2
REMARK VINA RESULT:      -7.0      4.725      6.636
REMARK  4 active torsions:
REMARK  status: ('A' for Active; 'I' for Inactive)
REMARK    1  A    between atoms: O_2  and  C_3 
REMARK    2  A    between atoms: C_5  and  N_6 
REMARK    3  A    between atoms: N_6  and  C_7 
REMARK    4  A    between atoms: C_7  and  C_8 
ROOT
HETATM    1  N   UNL     1      42.786 -14.485   7.495  1.00  0.00    -0.371 N 
HETATM    2  H   UNL     1      43.328 -14.651   8.335  1.00  0.00     0.161 HD
ENDROOT
BRANCH   1   3
HETATM    3  C   UNL     1      43.044 -13.404   6.691  1.00  0.00     0.103 A 
HETATM    4  C   UNL     1      44.230 -12.665   6.681  1.00  0.00     0.085 A 
HETATM    5  C   UNL     1      44.397 -11.594   5.799  1.00  0.00     0.073 A 
HETATM    6  C   UNL     1      43.373 -11.270   4.923  1.00  0.00     0.053 A 
HETATM    7  C   UNL     1      42.214 -12.029   4.953  1.00  0.00     0.092 A 
HETATM    8  N   UNL     1      42.092 -13.048   5.813  1.00  0.00    -0.352 N 
HETATM    9  H   UNL     1      41.238 -13.598   5.804  1.00  0.00     0.166 HD
BRANCH   5  10
HETATM   10  O   UNL     1      45.601 -10.962   5.897  1.00  0.00    -0.356 OA
HETATM   11  C   UNL     1      46.180 -10.835   7.193  1.00  0.00     0.210 C 
ENDBRANCH   5  10
ENDBRANCH   1   3
BRANCH   1  12
HETATM   12  C   UNL     1      42.058 -15.667   7.042  1.00  0.00     0.180 C 
BRANCH  12  13
HETATM   13  C   UNL     1      42.811 -16.564   6.133  1.00  0.00     0.053 A 
HETATM   14  N   UNL     1      42.508 -16.719   4.789  1.00  0.00    -0.306 N 
HETATM   15  C   UNL     1      43.420 -17.639   4.278  1.00  0.00     0.133 A 
HETATM   16  C   UNL     1      41.512 -16.125   4.013  1.00  0.00     0.118 A 
HETATM   17  C   UNL     1      43.311 -17.975   2.900  1.00  0.00     0.052 A 
HETATM   18  N   UNL     1      44.253 -18.057   5.205  1.00  0.00    -0.241 NA
HETATM   19  C   UNL     1      42.351 -17.405   2.146  1.00  0.00     0.024 A 
HETATM   20  C   UNL     1      41.412 -16.444   2.710  1.00  0.00     0.027 A 
HETATM   21 BR   UNL     1      40.118 -15.706   1.596  1.00  0.00    -0.050 Br
HETATM   22  C   UNL     1      43.882 -17.409   6.348  1.00  0.00     0.146 A 
ENDBRANCH  12  13
ENDBRANCH   1  12
TORSDOF 4
ENDMDL
MODEL 3
REMARK VINA RESULT:      -6.9      1.023      1.819
REMARK  4 active torsions:
REMARK  status: ('A' for Active; 'I' for Inactive)
REMARK    1  A    between atoms: O_2  and  C_3 
REMARK    2  A    between atoms: C_5  and  N_6 
REMARK    3  A    between atoms: N_6  and  C_7 
REMARK    4  A    between atoms: C_7  and  C_8 
ROOT
HETATM    1  N   UNL     1      39.823 -14.301   0.989  1.00  0.00    -0.371 N 
HETATM    2  H   UNL     1      39.951 -13.535   1.640  1.00  0.00     0.161 HD
ENDROOT
BRANCH   1   3
HETATM    3  C   UNL     1      39.680 -14.069  -0.355  1.00  0.00     0.103 A 
HETATM    4  C   UNL     1      40.120 -12.929  -1.033  1.00  0.00     0.085 A 
HETATM    5  C   UNL     1      39.945 -12.807  -2.414  1.00  0.00     0.073 A 
HETATM    6  C   UNL     1      39.332 -13.834  -3.114  1.00  0.00     0.053 A 
HETATM    7  C   UNL     1      38.915 -14.955  -2.412  1.00  0.00     0.092 A 
HETATM    8  N   UNL     1      39.101 -15.035  -1.088  1.00  0.00    -0.352 N 
HETATM    9  H   UNL     1      38.800 -15.872  -0.601  1.00  0.00     0.166 HD
BRANCH   5  10
HETATM   10  O   UNL     1      40.421 -11.645  -2.945  1.00  0.00    -0.356 OA
HETATM   11  C   UNL     1      41.178 -10.788  -2.094  1.00  0.00     0.210 C 
ENDBRANCH   5  10
ENDBRANCH   1   3
BRANCH   1  12
HETATM   12  C   UNL     1      40.218 -15.593   1.544  1.00  0.00     0.180 C 
BRANCH  12  13
HETATM   13  C   UNL     1      41.181 -15.529   2.671  1.00  0.00     0.053 A 
HETATM   14  N   UNL     1      42.087 -16.537   2.959  1.00  0.00    -0.306 N 
HETATM   15  C   UNL     1      42.802 -16.122   4.079  1.00  0.00     0.133 A 
HETATM   16  C   UNL     1      42.313 -17.759   2.323  1.00  0.00     0.118 A 
HETATM   17  C   UNL     1      43.804 -16.999   4.581  1.00  0.00     0.052 A 
HETATM   18  N   UNL     1      42.403 -14.941   4.496  1.00  0.00    -0.241 NA
HETATM   19  C   UNL     1      44.026 -18.180   3.972  1.00  0.00     0.024 A 
HETATM   20  C   UNL     1      43.260 -18.586   2.800  1.00  0.00     0.027 A 
HETATM   21 BR   UNL     1      43.633 -20.234   2.022  1.00  0.00    -0.050 Br
HETATM   22  C   UNL     1      41.403 -14.573   3.642  1.00  0.00     0.146 A 
ENDBRANCH  12  13
ENDBRANCH   1  12
TORSDOF 4
ENDMDL
MODEL 4
REMARK VINA RESULT:      -6.6      1.625      2.031
REMARK  4 active torsions:
REMARK  status: ('A' for Active; 'I' for Inactive)
REMARK    1  A    between atoms: O_2  and  C_3 
REMARK    2  A    between atoms: C_5  and  N_6 
REMARK    3  A    between atoms: N_6  and  C_7 
REMARK    4  A    between atoms: C_7  and  C_8 
ROOT
HETATM    1  N   UNL     1      41.226 -14.333   0.386  1.00  0.00    -0.371 N 
HETATM    2  H   UNL     1      42.213 -14.378   0.163  1.00  0.00     0.161 HD
ENDROOT
BRANCH   1   3
HETATM    3  C   UNL     1      40.339 -13.720  -0.460  1.00  0.00     0.103 A 
HETATM    4  C   UNL     1      39.337 -12.825  -0.076  1.00  0.00     0.085 A 
HETATM    5  C   UNL     1      38.501 -12.236  -1.028  1.00  0.00     0.073 A 
HETATM    6  C   UNL     1      38.676 -12.542  -2.368  1.00  0.00     0.053 A 
HETATM    7  C   UNL     1      39.684 -13.428  -2.716  1.00  0.00     0.092 A 
HETATM    8  N   UNL     1      40.466 -13.971  -1.774  1.00  0.00    -0.352 N 
HETATM    9  H   UNL     1      41.207 -14.605  -2.058  1.00  0.00     0.166 HD
BRANCH   5  10
HETATM   10  O   UNL     1      37.569 -11.384  -0.513  1.00  0.00    -0.356 OA
HETATM   11  C   UNL     1      37.413 -11.347   0.903  1.00  0.00     0.210 C 
ENDBRANCH   5  10
ENDBRANCH   1   3
BRANCH   1  12
HETATM   12  C   UNL     1      40.827 -15.300   1.407  1.00  0.00     0.180 C 
BRANCH  12  13
HETATM   13  C   UNL     1      41.700 -15.349   2.605  1.00  0.00     0.053 A 
HETATM   14  N   UNL     1      42.455 -16.458   2.954  1.00  0.00    -0.306 N 
HETATM   15  C   UNL     1      43.125 -16.129   4.130  1.00  0.00     0.133 A 
HETATM   16  C   UNL     1      42.583 -17.699   2.328  1.00  0.00     0.118 A 
HETATM   17  C   UNL     1      43.973 -17.119   4.700  1.00  0.00     0.052 A 
HETATM   18  N   UNL     1      42.838 -14.909   4.523  1.00  0.00    -0.241 NA
HETATM   19  C   UNL     1      44.100 -18.319   4.101  1.00  0.00     0.024 A 
HETATM   20  C   UNL     1      43.385 -18.632   2.870  1.00  0.00     0.027 A 
HETATM   21 BR   UNL     1      43.619 -20.314   2.110  1.00  0.00    -0.050 Br
HETATM   22  C   UNL     1      41.958 -14.425   3.598  1.00  0.00     0.146 A 
ENDBRANCH  12  13
ENDBRANCH   1  12
TORSDOF 4
ENDMDL
MODEL 5
REMARK VINA RESULT:      -6.6      3.392      7.087
REMARK  4 active torsions:
REMARK  status: ('A' for Active; 'I' for Inactive)
REMARK    1  A    between atoms: O_2  and  C_3 
REMARK    2  A    between atoms: C_5  and  N_6 
REMARK    3  A    between atoms: N_6  and  C_7 
REMARK    4  A    between atoms: C_7  and  C_8 
ROOT
HETATM    1  N   UNL     1      41.455 -16.658   2.182  1.00  0.00    -0.371 N 
HETATM    2  H   UNL     1      41.381 -16.762   1.177  1.00  0.00     0.161 HD
ENDROOT
BRANCH   1   3
HETATM    3  C   UNL     1      42.470 -17.260   2.880  1.00  0.00     0.103 A 
HETATM    4  C   UNL     1      42.968 -16.837   4.115  1.00  0.00     0.085 A 
HETATM    5  C   UNL     1      43.992 -17.542   4.754  1.00  0.00     0.073 A 
HETATM    6  C   UNL     1      44.512 -18.677   4.151  1.00  0.00     0.053 A 
HETATM    7  C   UNL     1      43.991 -19.074   2.929  1.00  0.00     0.092 A 
HETATM    8  N   UNL     1      43.009 -18.371   2.350  1.00  0.00    -0.352 N 
HETATM    9  H   UNL     1      42.634 -18.692   1.463  1.00  0.00     0.166 HD
BRANCH   5  10
HETATM   10  O   UNL     1      44.379 -17.019   5.952  1.00  0.00    -0.356 OA
HETATM   11  C   UNL     1      43.441 -17.051   7.024  1.00  0.00     0.210 C 
ENDBRANCH   5  10
ENDBRANCH   1   3
BRANCH   1  12
HETATM   12  C   UNL     1      40.683 -15.531   2.698  1.00  0.00     0.180 C 
BRANCH  12  13
HETATM   13  C   UNL     1      41.005 -14.215   2.094  1.00  0.00     0.053 A 
HETATM   14  N   UNL     1      40.639 -13.856   0.807  1.00  0.00    -0.306 N 
HETATM   15  C   UNL     1      41.122 -12.566   0.600  1.00  0.00     0.133 A 
HETATM   16  C   UNL     1      39.936 -14.569  -0.166  1.00  0.00     0.118 A 
HETATM   17  C   UNL     1      40.876 -11.969  -0.667  1.00  0.00     0.052 A 
HETATM   18  N   UNL     1      41.753 -12.113   1.660  1.00  0.00    -0.241 NA
HETATM   19  C   UNL     1      40.199 -12.652  -1.610  1.00  0.00     0.024 A 
HETATM   20  C   UNL     1      39.705 -14.001  -1.362  1.00  0.00     0.027 A 
HETATM   21 BR   UNL     1      38.778 -14.871  -2.721  1.00  0.00    -0.050 Br
HETATM   22  C   UNL     1      41.693 -13.121   2.579  1.00  0.00     0.146 A 
ENDBRANCH  12  13
ENDBRANCH   1  12
TORSDOF 4
ENDMDL
MODEL 6
REMARK VINA RESULT:      -6.6      5.764      8.278
REMARK  4 active torsions:
REMARK  status: ('A' for Active; 'I' for Inactive)
REMARK    1  A    between atoms: O_2  and  C_3 
REMARK    2  A    between atoms: C_5  and  N_6 
REMARK    3  A    between atoms: N_6  and  C_7 
REMARK    4  A    between atoms: C_7  and  C_8 
ROOT
HETATM    1  N   UNL     1      44.040 -12.820   6.294  1.00  0.00    -0.371 N 
HETATM    2  H   UNL     1      43.887 -12.636   5.310  1.00  0.00     0.161 HD
ENDROOT
BRANCH   1   3
HETATM    3  C   UNL     1      44.526 -11.846   7.128  1.00  0.00     0.103 A 
HETATM    4  C   UNL     1      43.859 -11.318   8.236  1.00  0.00     0.085 A 
HETATM    5  C   UNL     1      44.460 -10.343   9.036  1.00  0.00     0.073 A 
HETATM    6  C   UNL     1      45.735  -9.900   8.723  1.00  0.00     0.053 A 
HETATM    7  C   UNL     1      46.373 -10.449   7.621  1.00  0.00     0.092 A 
HETATM    8  N   UNL     1      45.763 -11.384   6.880  1.00  0.00    -0.352 N 
HETATM    9  H   UNL     1      46.258 -11.780   6.087  1.00  0.00     0.166 HD
BRANCH   5  10
HETATM   10  O   UNL     1      43.696  -9.918  10.083  1.00  0.00    -0.356 OA
HETATM   11  C   UNL     1      43.683 -10.720  11.261  1.00  0.00     0.210 C 
ENDBRANCH   5  10
ENDBRANCH   1   3
BRANCH   1  12
HETATM   12  C   UNL     1      43.328 -14.003   6.771  1.00  0.00     0.180 C 
BRANCH  12  13
HETATM   13  C   UNL     1      43.671 -15.269   6.078  1.00  0.00     0.053 A 
HETATM   14  N   UNL     1      43.025 -15.713   4.935  1.00  0.00    -0.306 N 
HETATM   15  C   UNL     1      43.613 -16.928   4.592  1.00  0.00     0.133 A 
HETATM   16  C   UNL     1      41.984 -15.140   4.204  1.00  0.00     0.118 A 
HETATM   17  C   UNL     1      43.113 -17.596   3.439  1.00  0.00     0.052 A 
HETATM   18  N   UNL     1      44.566 -17.258   5.435  1.00  0.00    -0.241 NA
HETATM   19  C   UNL     1      42.108 -17.048   2.731  1.00  0.00     0.024 A 
HETATM   20  C   UNL     1      41.514 -15.774   3.116  1.00  0.00     0.027 A 
HETATM   21 BR   UNL     1      40.129 -15.090   2.079  1.00  0.00    -0.050 Br
HETATM   22  C   UNL     1      44.603 -16.249   6.355  1.00  0.00     0.146 A 
ENDBRANCH  12  13
ENDBRANCH   1  12
TORSDOF 4
ENDMDL
MODEL 7
REMARK VINA RESULT:      -6.5      5.939      8.390
REMARK  4 active torsions:
REMARK  status: ('A' for Active; 'I' for Inactive)
REMARK    1  A    between atoms: O_2  and  C_3 
REMARK    2  A    between atoms: C_5  and  N_6 
REMARK    3  A    between atoms: N_6  and  C_7 
REMARK    4  A    between atoms: C_7  and  C_8 
ROOT
HETATM    1  N   UNL     1      44.730 -12.337   6.376  1.00  0.00    -0.371 N 
HETATM    2  H   UNL     1      44.939 -12.203   5.394  1.00  0.00     0.161 HD
ENDROOT
BRANCH   1   3
HETATM    3  C   UNL     1      44.930 -11.329   7.284  1.00  0.00     0.103 A 
HETATM    4  C   UNL     1      44.123 -11.065   8.394  1.00  0.00     0.085 A 
HETATM    5  C   UNL     1      44.434 -10.024   9.273  1.00  0.00     0.073 A 
HETATM    6  C   UNL     1      45.561  -9.252   9.038  1.00  0.00     0.053 A 
HETATM    7  C   UNL     1      46.344  -9.545   7.932  1.00  0.00     0.092 A 
HETATM    8  N   UNL     1      46.012 -10.552   7.113  1.00  0.00    -0.352 N 
HETATM    9  H   UNL     1      46.611 -10.755   6.320  1.00  0.00     0.166 HD
BRANCH   5  10
HETATM   10  O   UNL     1      43.563  -9.880  10.312  1.00  0.00    -0.356 OA
HETATM   11  C   UNL     1      43.886  -8.928  11.322  1.00  0.00     0.210 C 
ENDBRANCH   5  10
ENDBRANCH   1   3
BRANCH   1  12
HETATM   12  C   UNL     1      43.852 -13.479   6.622  1.00  0.00     0.180 C 
BRANCH  12  13
HETATM   13  C   UNL     1      42.813 -13.710   5.590  1.00  0.00     0.053 A 
HETATM   14  N   UNL     1      42.718 -14.878   4.850  1.00  0.00    -0.306 N 
HETATM   15  C   UNL     1      41.637 -14.717   3.987  1.00  0.00     0.133 A 
HETATM   16  C   UNL     1      43.500 -16.034   4.881  1.00  0.00     0.118 A 
HETATM   17  C   UNL     1      41.334 -15.793   3.107  1.00  0.00     0.052 A 
HETATM   18  N   UNL     1      41.066 -13.544   4.144  1.00  0.00    -0.241 NA
HETATM   19  C   UNL     1      42.085 -16.911   3.133  1.00  0.00     0.024 A 
HETATM   20  C   UNL     1      43.210 -17.049   4.048  1.00  0.00     0.027 A 
HETATM   21 BR   UNL     1      44.194 -18.628   4.016  1.00  0.00    -0.050 Br
HETATM   22  C   UNL     1      41.786 -12.916   5.120  1.00  0.00     0.146 A 
ENDBRANCH  12  13
ENDBRANCH   1  12
TORSDOF 4
ENDMDL
MODEL 8
REMARK VINA RESULT:      -6.5      3.372      6.956
REMARK  4 active torsions:
REMARK  status: ('A' for Active; 'I' for Inactive)
REMARK    1  A    between atoms: O_2  and  C_3 
REMARK    2  A    between atoms: C_5  and  N_6 
REMARK    3  A    between atoms: N_6  and  C_7 
REMARK    4  A    between atoms: C_7  and  C_8 
ROOT
HETATM    1  N   UNL     1      41.820 -16.001   2.183  1.00  0.00    -0.371 N 
HETATM    2  H   UNL     1      40.938 -16.335   1.811  1.00  0.00     0.161 HD
ENDROOT
BRANCH   1   3
HETATM    3  C   UNL     1      42.624 -16.820   2.933  1.00  0.00     0.103 A 
HETATM    4  C   UNL     1      42.932 -18.150   2.634  1.00  0.00     0.085 A 
HETATM    5  C   UNL     1      43.788 -18.888   3.456  1.00  0.00     0.073 A 
HETATM    6  C   UNL     1      44.338 -18.287   4.577  1.00  0.00     0.053 A 
HETATM    7  C   UNL     1      44.019 -16.964   4.841  1.00  0.00     0.092 A 
HETATM    8  N   UNL     1      43.195 -16.290   4.028  1.00  0.00    -0.352 N 
HETATM    9  H   UNL     1      42.989 -15.318   4.235  1.00  0.00     0.166 HD
BRANCH   5  10
HETATM   10  O   UNL     1      44.001 -20.171   3.046  1.00  0.00    -0.356 OA
HETATM   11  C   UNL     1      43.665 -20.502   1.700  1.00  0.00     0.210 C 
ENDBRANCH   5  10
ENDBRANCH   1   3
BRANCH   1  12
HETATM   12  C   UNL     1      42.300 -14.793   1.517  1.00  0.00     0.180 C 
BRANCH  12  13
HETATM   13  C   UNL     1      41.342 -13.662   1.493  1.00  0.00     0.053 A 
HETATM   14  N   UNL     1      40.390 -13.487   0.501  1.00  0.00    -0.306 N 
HETATM   15  C   UNL     1      39.695 -12.322   0.815  1.00  0.00     0.133 A 
HETATM   16  C   UNL     1      40.108 -14.260  -0.627  1.00  0.00     0.118 A 
HETATM   17  C   UNL     1      38.654 -11.921  -0.068  1.00  0.00     0.052 A 
HETATM   18  N   UNL     1      40.148 -11.774   1.920  1.00  0.00    -0.241 NA
HETATM   19  C   UNL     1      38.378 -12.662  -1.158  1.00  0.00     0.024 A 
HETATM   20  C   UNL     1      39.124 -13.877  -1.459  1.00  0.00     0.027 A 
HETATM   21 BR   UNL     1      38.675 -14.840  -2.987  1.00  0.00    -0.050 Br
HETATM   22  C   UNL     1      41.164 -12.585   2.339  1.00  0.00     0.146 A 
ENDBRANCH  12  13
ENDBRANCH   1  12
TORSDOF 4
ENDMDL
MODEL 9
REMARK VINA RESULT:      -6.4      5.489      7.849
REMARK  4 active torsions:
REMARK  status: ('A' for Active; 'I' for Inactive)
REMARK    1  A    between atoms: O_2  and  C_3 
REMARK    2  A    between atoms: C_5  and  N_6 
REMARK    3  A    between atoms: N_6  and  C_7 
REMARK    4  A    between atoms: C_7  and  C_8 
ROOT
HETATM    1  N   UNL     1      43.432 -11.968   5.462  1.00  0.00    -0.371 N 
HETATM    2  H   UNL     1      42.882 -11.410   4.820  1.00  0.00     0.161 HD
ENDROOT
BRANCH   1   3
HETATM    3  C   UNL     1      44.086 -11.387   6.518  1.00  0.00     0.103 A 
HETATM    4  C   UNL     1      43.478 -10.866   7.663  1.00  0.00     0.085 A 
HETATM    5  C   UNL     1      44.245 -10.318   8.695  1.00  0.00     0.073 A 
HETATM    6  C   UNL     1      45.626 -10.300   8.577  1.00  0.00     0.053 A 
HETATM    7  C   UNL     1      46.198 -10.832   7.432  1.00  0.00     0.092 A 
HETATM    8  N   UNL     1      45.429 -11.349   6.466  1.00  0.00    -0.352 N 
HETATM    9  H   UNL     1      45.874 -11.746   5.645  1.00  0.00     0.166 HD
BRANCH   5  10
HETATM   10  O   UNL     1      43.521  -9.848   9.750  1.00  0.00    -0.356 OA
HETATM   11  C   UNL     1      44.233  -9.461  10.923  1.00  0.00     0.210 C 
ENDBRANCH   5  10
ENDBRANCH   1   3
BRANCH   1  12
HETATM   12  C   UNL     1      43.114 -13.392   5.399  1.00  0.00     0.180 C 
BRANCH  12  13
HETATM   13  C   UNL     1      43.012 -13.956   4.030  1.00  0.00     0.053 A 
HETATM   14  N   UNL     1      43.188 -15.300   3.743  1.00  0.00    -0.306 N 
HETATM   15  C   UNL     1      43.027 -15.438   2.367  1.00  0.00     0.133 A 
HETATM   16  C   UNL     1      43.476 -16.375   4.586  1.00  0.00     0.118 A 
HETATM   17  C   UNL     1      43.167 -16.743   1.817  1.00  0.00     0.052 A 
HETATM   18  N   UNL     1      42.768 -14.284   1.794  1.00  0.00    -0.241 NA
HETATM   19  C   UNL     1      43.445 -17.784   2.626  1.00  0.00     0.024 A 
HETATM   20  C   UNL     1      43.607 -17.607   4.063  1.00  0.00     0.027 A 
HETATM   21 BR   UNL     1      43.990 -19.100   5.105  1.00  0.00    -0.050 Br
HETATM   22  C   UNL     1      42.764 -13.367   2.806  1.00  0.00     0.146 A 
ENDBRANCH  12  13
ENDBRANCH   1  12
TORSDOF 4
ENDMDL
MODEL 10
REMARK VINA RESULT:      -6.3      3.530      7.227
REMARK  4 active torsions:
REMARK  status: ('A' for Active; 'I' for Inactive)
REMARK    1  A    between atoms: O_2  and  C_3 
REMARK    2  A    between atoms: C_5  and  N_6 
REMARK    3  A    between atoms: N_6  and  C_7 
REMARK    4  A    between atoms: C_7  and  C_8 
ROOT
HETATM    1  N   UNL     1      42.813 -14.050   1.921  1.00  0.00    -0.371 N 
HETATM    2  H   UNL     1      43.599 -13.425   1.787  1.00  0.00     0.161 HD
ENDROOT
BRANCH   1   3
HETATM    3  C   UNL     1      42.975 -15.263   2.540  1.00  0.00     0.103 A 
HETATM    4  C   UNL     1      42.941 -16.508   1.908  1.00  0.00     0.085 A 
HETATM    5  C   UNL     1      43.144 -17.685   2.634  1.00  0.00     0.073 A 
HETATM    6  C   UNL     1      43.387 -17.608   3.996  1.00  0.00     0.053 A 
HETATM    7  C   UNL     1      43.422 -16.357   4.592  1.00  0.00     0.092 A 
HETATM    8  N   UNL     1      43.223 -15.252   3.861  1.00  0.00    -0.352 N 
HETATM    9  H   UNL     1      43.269 -14.347   4.319  1.00  0.00     0.166 HD
BRANCH   5  10
HETATM   10  O   UNL     1      43.084 -18.827   1.890  1.00  0.00    -0.356 OA
HETATM   11  C   UNL     1      43.457 -20.049   2.521  1.00  0.00     0.210 C 
ENDBRANCH   5  10
ENDBRANCH   1   3
BRANCH   1  12
HETATM   12  C   UNL     1      41.521 -13.381   1.788  1.00  0.00     0.180 C 
BRANCH  12  13
HETATM   13  C   UNL     1      40.729 -13.768   0.596  1.00  0.00     0.053 A 
HETATM   14  N   UNL     1      40.542 -12.940  -0.499  1.00  0.00    -0.306 N 
HETATM   15  C   UNL     1      39.744 -13.642  -1.399  1.00  0.00     0.133 A 
HETATM   16  C   UNL     1      41.008 -11.647  -0.745  1.00  0.00     0.118 A 
HETATM   17  C   UNL     1      39.402 -12.992  -2.617  1.00  0.00     0.052 A 
HETATM   18  N   UNL     1      39.431 -14.832  -0.938  1.00  0.00    -0.241 NA
HETATM   19  C   UNL     1      39.849 -11.746  -2.860  1.00  0.00     0.024 A 
HETATM   20  C   UNL     1      40.683 -11.037  -1.898  1.00  0.00     0.027 A 
HETATM   21 BR   UNL     1      41.256  -9.317  -2.315  1.00  0.00    -0.050 Br
HETATM   22  C   UNL     1      40.025 -14.916   0.289  1.00  0.00     0.146 A 
ENDBRANCH  12  13
ENDBRANCH   1  12
TORSDOF 4
ENDMDL
