MODEL 1
REMARK VINA RESULT:      -8.2      0.000      0.000
REMARK  5 active torsions:
REMARK  status: ('A' for Active; 'I' for Inactive)
REMARK    1  A    between atoms: C_9  and  C_10 
REMARK    2  A    between atoms: C_11  and  O_12 
REMARK    3  A    between atoms: O_12  and  C_13 
REMARK    4  A    between atoms: C_20  and  C_21 
REMARK       I    between atoms: C_21  and  N_22 
REMARK    5  A    between atoms: N_22  and  C_23 
ROOT
HETATM    1  C   UNL     1      44.039 -13.348   6.385  1.00  0.00     0.070 C 
HETATM    2  C   UNL     1      42.770 -12.896   5.709  1.00  0.00     0.037 C 
HETATM    3  N   UNL     1      42.047 -11.917   6.387  1.00  0.00    -0.192 N 
HETATM    4  C   UNL     1      40.763 -11.628   6.095  1.00  0.00     0.725 A 
HETATM    5  N   UNL     1      40.193 -12.158   4.970  1.00  0.00    -0.084 N 
HETATM    6  N   UNL     1      38.873 -11.870   4.908  1.00  0.00    -0.149 NA
HETATM    7  C   UNL     1      38.740 -11.102   5.995  1.00  0.00     0.275 A 
HETATM    8  N   UNL     1      39.872 -10.930   6.750  1.00  0.00    -0.054 NA
HETATM    9  C   UNL     1      40.911 -12.996   4.003  1.00  0.00     0.205 C 
HETATM   10  C   UNL     1      42.271 -13.421   4.561  1.00  0.00     0.063 C 
HETATM   11  H   UNL     1      42.398 -11.623   7.295  1.00  0.00     0.184 HD
ENDROOT
BRANCH   9  12
HETATM   12  C   UNL     1      41.004 -12.248   2.671  1.00  0.00     0.005 A 
HETATM   13  C   UNL     1      40.400 -12.777   1.511  1.00  0.00     0.083 A 
HETATM   14  C   UNL     1      40.475 -12.076   0.303  1.00  0.00     0.037 A 
HETATM   15  C   UNL     1      41.103 -10.832   0.243  1.00  0.00     0.003 A 
HETATM   16  C   UNL     1      41.665 -10.280   1.389  1.00  0.00     0.001 A 
HETATM   17  C   UNL     1      41.614 -10.979   2.594  1.00  0.00     0.012 A 
BRANCH  13  18
HETATM   18  O   UNL     1      39.785 -13.991   1.646  1.00  0.00    -0.290 OA
BRANCH  18  19
HETATM   19  C   UNL     1      40.161 -15.027   0.745  1.00  0.00     0.505 C 
HETATM   20  F   UNL     1      41.509 -15.138   0.668  1.00  0.00    -0.184 F 
HETATM   21  F   UNL     1      39.667 -16.209   1.189  1.00  0.00    -0.184 F 
ENDBRANCH  18  19
ENDBRANCH  13  18
ENDBRANCH   9  12
BRANCH  10  22
HETATM   22  C   UNL     1      42.908 -14.540   3.814  1.00  0.00     0.256 C 
HETATM   23  N   UNL     1      42.703 -15.774   4.394  1.00  0.00    -0.323 N 
HETATM   24  H   UNL     1      42.194 -15.795   5.268  1.00  0.00     0.169 HD
HETATM   25  O   UNL     1      43.548 -14.285   2.804  1.00  0.00    -0.267 OA
BRANCH  23  26
HETATM   26  C   UNL     1      43.076 -17.032   3.874  1.00  0.00     0.035 A 
HETATM   27  C   UNL     1      42.613 -17.544   2.660  1.00  0.00     0.029 A 
HETATM   28  C   UNL     1      43.006 -18.815   2.229  1.00  0.00     0.002 A 
HETATM   29  C   UNL     1      43.862 -19.588   3.010  1.00  0.00     0.000 A 
HETATM   30  C   UNL     1      44.332 -19.086   4.221  1.00  0.00     0.002 A 
HETATM   31  C   UNL     1      43.945 -17.813   4.648  1.00  0.00     0.029 A 
ENDBRANCH  23  26
ENDBRANCH  10  22
TORSDOF 5
ENDMDL
MODEL 2
REMARK VINA RESULT:      -8.0      2.745      4.680
REMARK  5 active torsions:
REMARK  status: ('A' for Active; 'I' for Inactive)
REMARK    1  A    between atoms: C_9  and  C_10 
REMARK    2  A    between atoms: C_11  and  O_12 
REMARK    3  A    between atoms: O_12  and  C_13 
REMARK    4  A    between atoms: C_20  and  C_21 
REMARK       I    between atoms: C_21  and  N_22 
REMARK    5  A    between atoms: N_22  and  C_23 
ROOT
HETATM    1  C   UNL     1      39.575 -15.333  -0.056  1.00  0.00     0.070 C 
HETATM    2  C   UNL     1      40.145 -14.133   0.658  1.00  0.00     0.037 C 
HETATM    3  N   UNL     1      39.973 -12.913   0.008  1.00  0.00    -0.192 N 
HETATM    4  C   UNL     1      40.674 -11.809   0.337  1.00  0.00     0.725 A 
HETATM    5  N   UNL     1      41.437 -11.810   1.473  1.00  0.00    -0.084 N 
HETATM    6  N   UNL     1      42.167 -10.676   1.573  1.00  0.00    -0.149 NA
HETATM    7  C   UNL     1      41.732 -10.010   0.497  1.00  0.00     0.275 A 
HETATM    8  N   UNL     1      40.819 -10.669  -0.287  1.00  0.00    -0.054 NA
HETATM    9  C   UNL     1      41.509 -12.935   2.412  1.00  0.00     0.205 C 
HETATM   10  C   UNL     1      40.854 -14.181   1.814  1.00  0.00     0.063 C 
HETATM   11  H   UNL     1      39.528 -12.929  -0.906  1.00  0.00     0.184 HD
ENDROOT
BRANCH   9  12
HETATM   12  C   UNL     1      40.898 -12.504   3.749  1.00  0.00     0.005 A 
HETATM   13  C   UNL     1      41.716 -12.332   4.885  1.00  0.00     0.083 A 
HETATM   14  C   UNL     1      41.149 -11.920   6.096  1.00  0.00     0.037 A 
HETATM   15  C   UNL     1      39.787 -11.634   6.180  1.00  0.00     0.003 A 
HETATM   16  C   UNL     1      38.978 -11.759   5.056  1.00  0.00     0.001 A 
HETATM   17  C   UNL     1      39.527 -12.187   3.849  1.00  0.00     0.012 A 
BRANCH  13  18
HETATM   18  O   UNL     1      43.044 -12.612   4.726  1.00  0.00    -0.290 OA
BRANCH  18  19
HETATM   19  C   UNL     1      43.957 -11.520   4.733  1.00  0.00     0.505 C 
HETATM   20  F   UNL     1      44.839 -11.630   5.756  1.00  0.00    -0.184 F 
HETATM   21  F   UNL     1      44.658 -11.514   3.573  1.00  0.00    -0.184 F 
ENDBRANCH  18  19
ENDBRANCH  13  18
ENDBRANCH   9  12
BRANCH  10  22
HETATM   22  C   UNL     1      41.185 -15.442   2.533  1.00  0.00     0.256 C 
HETATM   23  N   UNL     1      42.468 -15.888   2.298  1.00  0.00    -0.323 N 
HETATM   24  H   UNL     1      43.029 -15.358   1.644  1.00  0.00     0.169 HD
HETATM   25  O   UNL     1      40.326 -15.967   3.228  1.00  0.00    -0.267 OA
BRANCH  23  26
HETATM   26  C   UNL     1      43.117 -16.980   2.914  1.00  0.00     0.035 A 
HETATM   27  C   UNL     1      43.243 -18.243   2.332  1.00  0.00     0.029 A 
HETATM   28  C   UNL     1      43.874 -19.284   3.022  1.00  0.00     0.002 A 
HETATM   29  C   UNL     1      44.379 -19.071   4.303  1.00  0.00     0.000 A 
HETATM   30  C   UNL     1      44.261 -17.815   4.892  1.00  0.00     0.002 A 
HETATM   31  C   UNL     1      43.637 -16.774   4.199  1.00  0.00     0.029 A 
ENDBRANCH  23  26
ENDBRANCH  10  22
TORSDOF 5
ENDMDL
MODEL 3
REMARK VINA RESULT:      -8.0      2.020      5.308
REMARK  5 active torsions:
REMARK  status: ('A' for Active; 'I' for Inactive)
REMARK    1  A    between atoms: C_9  and  C_10 
REMARK    2  A    between atoms: C_11  and  O_12 
REMARK    3  A    between atoms: O_12  and  C_13 
REMARK    4  A    between atoms: C_20  and  C_21 
REMARK       I    between atoms: C_21  and  N_22 
REMARK    5  A    between atoms: N_22  and  C_23 
ROOT
HETATM    1  C   UNL     1      39.720 -10.604   5.776  1.00  0.00     0.070 C 
HETATM    2  C   UNL     1      41.040 -11.319   5.917  1.00  0.00     0.037 C 
HETATM    3  N   UNL     1      41.891 -10.816   6.898  1.00  0.00    -0.192 N 
HETATM    4  C   UNL     1      43.203 -11.123   6.949  1.00  0.00     0.725 A 
HETATM    5  N   UNL     1      43.694 -12.116   6.146  1.00  0.00    -0.084 N 
HETATM    6  N   UNL     1      45.041 -12.196   6.234  1.00  0.00    -0.149 NA
HETATM    7  C   UNL     1      45.279 -11.267   7.168  1.00  0.00     0.275 A 
HETATM    8  N   UNL     1      44.182 -10.586   7.630  1.00  0.00    -0.054 NA
HETATM    9  C   UNL     1      42.866 -12.928   5.247  1.00  0.00     0.205 C 
HETATM   10  C   UNL     1      41.461 -12.337   5.123  1.00  0.00     0.063 C 
HETATM   11  H   UNL     1      41.585  -9.987   7.402  1.00  0.00     0.184 HD
ENDROOT
BRANCH   9  12
HETATM   12  C   UNL     1      42.878 -14.379   5.738  1.00  0.00     0.005 A 
HETATM   13  C   UNL     1      43.071 -15.439   4.828  1.00  0.00     0.083 A 
HETATM   14  C   UNL     1      43.098 -16.759   5.291  1.00  0.00     0.037 A 
HETATM   15  C   UNL     1      42.982 -17.035   6.653  1.00  0.00     0.003 A 
HETATM   16  C   UNL     1      42.835 -15.996   7.564  1.00  0.00     0.001 A 
HETATM   17  C   UNL     1      42.786 -14.677   7.113  1.00  0.00     0.012 A 
BRANCH  13  18
HETATM   18  O   UNL     1      43.196 -15.095   3.511  1.00  0.00    -0.290 OA
BRANCH  18  19
HETATM   19  C   UNL     1      43.301 -16.148   2.558  1.00  0.00     0.505 C 
HETATM   20  F   UNL     1      42.116 -16.785   2.405  1.00  0.00    -0.184 F 
HETATM   21  F   UNL     1      43.659 -15.632   1.357  1.00  0.00    -0.184 F 
ENDBRANCH  18  19
ENDBRANCH  13  18
ENDBRANCH   9  12
BRANCH  10  22
HETATM   22  C   UNL     1      40.675 -12.879   3.981  1.00  0.00     0.256 C 
HETATM   23  N   UNL     1      41.275 -12.677   2.756  1.00  0.00    -0.323 N 
HETATM   24  H   UNL     1      42.142 -12.157   2.747  1.00  0.00     0.169 HD
HETATM   25  O   UNL     1      39.601 -13.418   4.209  1.00  0.00    -0.267 OA
BRANCH  23  26
HETATM   26  C   UNL     1      40.843 -13.167   1.505  1.00  0.00     0.035 A 
HETATM   27  C   UNL     1      40.333 -14.451   1.304  1.00  0.00     0.029 A 
HETATM   28  C   UNL     1      39.956 -14.873   0.024  1.00  0.00     0.002 A 
HETATM   29  C   UNL     1      40.091 -14.016  -1.066  1.00  0.00     0.000 A 
HETATM   30  C   UNL     1      40.595 -12.733  -0.876  1.00  0.00     0.002 A 
HETATM   31  C   UNL     1      40.965 -12.309   0.404  1.00  0.00     0.029 A 
ENDBRANCH  23  26
ENDBRANCH  10  22
TORSDOF 5
ENDMDL
MODEL 4
REMARK VINA RESULT:      -7.7      2.718      5.536
REMARK  5 active torsions:
REMARK  status: ('A' for Active; 'I' for Inactive)
REMARK    1  A    between atoms: C_9  and  C_10 
REMARK    2  A    between atoms: C_11  and  O_12 
REMARK    3  A    between atoms: O_12  and  C_13 
REMARK    4  A    between atoms: C_20  and  C_21 
REMARK       I    between atoms: C_21  and  N_22 
REMARK    5  A    between atoms: N_22  and  C_23 
ROOT
HETATM    1  C   UNL     1      42.492 -17.744   2.259  1.00  0.00     0.070 C 
HETATM    2  C   UNL     1      42.521 -16.797   3.431  1.00  0.00     0.037 C 
HETATM    3  N   UNL     1      43.452 -17.100   4.422  1.00  0.00    -0.192 N 
HETATM    4  C   UNL     1      43.403 -16.558   5.656  1.00  0.00     0.725 A 
HETATM    5  N   UNL     1      42.541 -15.525   5.904  1.00  0.00    -0.084 N 
HETATM    6  N   UNL     1      42.532 -15.199   7.216  1.00  0.00    -0.149 NA
HETATM    7  C   UNL     1      43.470 -16.032   7.681  1.00  0.00     0.275 A 
HETATM    8  N   UNL     1      44.027 -16.882   6.759  1.00  0.00    -0.054 NA
HETATM    9  C   UNL     1      41.682 -14.911   4.885  1.00  0.00     0.205 C 
HETATM   10  C   UNL     1      41.673 -15.751   3.606  1.00  0.00     0.063 C 
HETATM   11  H   UNL     1      43.998 -17.950   4.306  1.00  0.00     0.184 HD
ENDROOT
BRANCH   9  12
HETATM   12  C   UNL     1      42.133 -13.465   4.662  1.00  0.00     0.005 A 
HETATM   13  C   UNL     1      41.446 -12.400   5.281  1.00  0.00     0.083 A 
HETATM   14  C   UNL     1      41.878 -11.083   5.085  1.00  0.00     0.037 A 
HETATM   15  C   UNL     1      43.013 -10.816   4.319  1.00  0.00     0.003 A 
HETATM   16  C   UNL     1      43.724 -11.861   3.740  1.00  0.00     0.001 A 
HETATM   17  C   UNL     1      43.291 -13.176   3.911  1.00  0.00     0.012 A 
BRANCH  13  18
HETATM   18  O   UNL     1      40.354 -12.735   6.032  1.00  0.00    -0.290 OA
BRANCH  18  19
HETATM   19  C   UNL     1      39.067 -12.450   5.494  1.00  0.00     0.505 C 
HETATM   20  F   UNL     1      38.715 -11.164   5.732  1.00  0.00    -0.184 F 
HETATM   21  F   UNL     1      39.091 -12.638   4.152  1.00  0.00    -0.184 F 
ENDBRANCH  18  19
ENDBRANCH  13  18
ENDBRANCH   9  12
BRANCH  10  22
HETATM   22  C   UNL     1      40.576 -15.405   2.663  1.00  0.00     0.256 C 
HETATM   23  N   UNL     1      40.936 -14.466   1.720  1.00  0.00    -0.323 N 
HETATM   24  H   UNL     1      41.869 -14.082   1.786  1.00  0.00     0.169 HD
HETATM   25  O   UNL     1      39.486 -15.943   2.805  1.00  0.00    -0.267 OA
BRANCH  23  26
HETATM   26  C   UNL     1      40.165 -14.017   0.627  1.00  0.00     0.035 A 
HETATM   27  C   UNL     1      39.864 -14.798  -0.490  1.00  0.00     0.029 A 
HETATM   28  C   UNL     1      39.118 -14.268  -1.549  1.00  0.00     0.002 A 
HETATM   29  C   UNL     1      38.672 -12.949  -1.501  1.00  0.00     0.000 A 
HETATM   30  C   UNL     1      38.963 -12.162  -0.390  1.00  0.00     0.002 A 
HETATM   31  C   UNL     1      39.702 -12.695   0.670  1.00  0.00     0.029 A 
ENDBRANCH  23  26
ENDBRANCH  10  22
TORSDOF 5
ENDMDL
MODEL 5
REMARK VINA RESULT:      -7.3      4.421      6.823
REMARK  5 active torsions:
REMARK  status: ('A' for Active; 'I' for Inactive)
REMARK    1  A    between atoms: C_9  and  C_10 
REMARK    2  A    between atoms: C_11  and  O_12 
REMARK    3  A    between atoms: O_12  and  C_13 
REMARK    4  A    between atoms: C_20  and  C_21 
REMARK       I    between atoms: C_21  and  N_22 
REMARK    5  A    between atoms: N_22  and  C_23 
ROOT
HETATM    1  C   UNL     1      39.592 -10.569   5.499  1.00  0.00     0.070 C 
HETATM    2  C   UNL     1      40.510  -9.690   6.310  1.00  0.00     0.037 C 
HETATM    3  N   UNL     1      39.944  -8.506   6.780  1.00  0.00    -0.192 N 
HETATM    4  C   UNL     1      40.686  -7.479   7.242  1.00  0.00     0.725 A 
HETATM    5  N   UNL     1      42.025  -7.659   7.455  1.00  0.00    -0.084 N 
HETATM    6  N   UNL     1      42.628  -6.495   7.790  1.00  0.00    -0.149 NA
HETATM    7  C   UNL     1      41.571  -5.676   7.830  1.00  0.00     0.275 A 
HETATM    8  N   UNL     1      40.364  -6.238   7.500  1.00  0.00    -0.054 NA
HETATM    9  C   UNL     1      42.723  -8.935   7.262  1.00  0.00     0.205 C 
HETATM   10  C   UNL     1      41.825  -9.938   6.536  1.00  0.00     0.063 C 
HETATM   11  H   UNL     1      38.987  -8.304   6.503  1.00  0.00     0.184 HD
ENDROOT
BRANCH   9  12
HETATM   12  C   UNL     1      43.225  -9.435   8.620  1.00  0.00     0.005 A 
HETATM   13  C   UNL     1      44.598  -9.686   8.825  1.00  0.00     0.083 A 
HETATM   14  C   UNL     1      45.048 -10.125  10.075  1.00  0.00     0.037 A 
HETATM   15  C   UNL     1      44.156 -10.274  11.137  1.00  0.00     0.003 A 
HETATM   16  C   UNL     1      42.807  -9.989  10.959  1.00  0.00     0.001 A 
HETATM   17  C   UNL     1      42.343  -9.570   9.712  1.00  0.00     0.012 A 
BRANCH  13  18
HETATM   18  O   UNL     1      45.418  -9.501   7.746  1.00  0.00    -0.290 OA
BRANCH  18  19
HETATM   19  C   UNL     1      46.037 -10.652   7.181  1.00  0.00     0.505 C 
HETATM   20  F   UNL     1      47.315 -10.776   7.610  1.00  0.00    -0.184 F 
HETATM   21  F   UNL     1      45.356 -11.761   7.562  1.00  0.00    -0.184 F 
ENDBRANCH  18  19
ENDBRANCH  13  18
ENDBRANCH   9  12
BRANCH  10  22
HETATM   22  C   UNL     1      42.552 -11.117   5.992  1.00  0.00     0.256 C 
HETATM   23  N   UNL     1      42.209 -12.305   6.601  1.00  0.00    -0.323 N 
HETATM   24  H   UNL     1      41.549 -12.257   7.366  1.00  0.00     0.169 HD
HETATM   25  O   UNL     1      43.373 -10.943   5.101  1.00  0.00    -0.267 OA
BRANCH  23  26
HETATM   26  C   UNL     1      42.632 -13.602   6.239  1.00  0.00     0.035 A 
HETATM   27  C   UNL     1      43.529 -14.368   6.987  1.00  0.00     0.029 A 
HETATM   28  C   UNL     1      43.923 -15.635   6.543  1.00  0.00     0.002 A 
HETATM   29  C   UNL     1      43.429 -16.144   5.344  1.00  0.00     0.000 A 
HETATM   30  C   UNL     1      42.532 -15.390   4.592  1.00  0.00     0.002 A 
HETATM   31  C   UNL     1      42.133 -14.127   5.040  1.00  0.00     0.029 A 
ENDBRANCH  23  26
ENDBRANCH  10  22
TORSDOF 5
ENDMDL
MODEL 6
REMARK VINA RESULT:      -7.2      3.424      5.664
REMARK  5 active torsions:
REMARK  status: ('A' for Active; 'I' for Inactive)
REMARK    1  A    between atoms: C_9  and  C_10 
REMARK    2  A    between atoms: C_11  and  O_12 
REMARK    3  A    between atoms: O_12  and  C_13 
REMARK    4  A    between atoms: C_20  and  C_21 
REMARK       I    between atoms: C_21  and  N_22 
REMARK    5  A    between atoms: N_22  and  C_23 
ROOT
HETATM    1  C   UNL     1      41.088 -16.236   2.078  1.00  0.00     0.070 C 
HETATM    2  C   UNL     1      40.772 -15.005   1.267  1.00  0.00     0.037 C 
HETATM    3  N   UNL     1      39.788 -15.166   0.294  1.00  0.00    -0.192 N 
HETATM    4  C   UNL     1      39.604 -14.282  -0.707  1.00  0.00     0.725 A 
HETATM    5  N   UNL     1      40.258 -13.080  -0.672  1.00  0.00    -0.084 N 
HETATM    6  N   UNL     1      40.059 -12.382  -1.813  1.00  0.00    -0.149 NA
HETATM    7  C   UNL     1      39.214 -13.198  -2.454  1.00  0.00     0.275 A 
HETATM    8  N   UNL     1      38.912 -14.372  -1.813  1.00  0.00    -0.054 NA
HETATM    9  C   UNL     1      41.125 -12.650   0.430  1.00  0.00     0.205 C 
HETATM   10  C   UNL     1      41.418 -13.816   1.376  1.00  0.00     0.063 C 
HETATM   11  H   UNL     1      39.400 -16.098   0.172  1.00  0.00     0.184 HD
ENDROOT
BRANCH   9  12
HETATM   12  C   UNL     1      40.483 -11.446   1.125  1.00  0.00     0.005 A 
HETATM   13  C   UNL     1      40.969 -10.143   0.890  1.00  0.00     0.083 A 
HETATM   14  C   UNL     1      40.362  -9.048   1.516  1.00  0.00     0.037 A 
HETATM   15  C   UNL     1      39.250  -9.229   2.338  1.00  0.00     0.003 A 
HETATM   16  C   UNL     1      38.735 -10.504   2.543  1.00  0.00     0.001 A 
HETATM   17  C   UNL     1      39.343 -11.605   1.941  1.00  0.00     0.012 A 
BRANCH  13  18
HETATM   18  O   UNL     1      42.050 -10.037   0.059  1.00  0.00    -0.290 OA
BRANCH  18  19
HETATM   19  C   UNL     1      42.013  -9.035  -0.951  1.00  0.00     0.505 C 
HETATM   20  F   UNL     1      43.262  -8.733  -1.381  1.00  0.00    -0.184 F 
HETATM   21  F   UNL     1      41.303  -9.493  -2.012  1.00  0.00    -0.184 F 
ENDBRANCH  18  19
ENDBRANCH  13  18
ENDBRANCH   9  12
BRANCH  10  22
HETATM   22  C   UNL     1      42.552 -13.570   2.307  1.00  0.00     0.256 C 
HETATM   23  N   UNL     1      42.181 -12.926   3.468  1.00  0.00    -0.323 N 
HETATM   24  H   UNL     1      41.211 -12.651   3.553  1.00  0.00     0.169 HD
HETATM   25  O   UNL     1      43.675 -13.924   1.974  1.00  0.00    -0.267 OA
BRANCH  23  26
HETATM   26  C   UNL     1      42.995 -12.654   4.589  1.00  0.00     0.035 A 
HETATM   27  C   UNL     1      43.876 -11.574   4.670  1.00  0.00     0.029 A 
HETATM   28  C   UNL     1      44.672 -11.391   5.806  1.00  0.00     0.002 A 
HETATM   29  C   UNL     1      44.598 -12.290   6.868  1.00  0.00     0.000 A 
HETATM   30  C   UNL     1      43.720 -13.368   6.798  1.00  0.00     0.002 A 
HETATM   31  C   UNL     1      42.920 -13.546   5.667  1.00  0.00     0.029 A 
ENDBRANCH  23  26
ENDBRANCH  10  22
TORSDOF 5
ENDMDL
MODEL 7
REMARK VINA RESULT:      -7.1      2.507      3.183
REMARK  5 active torsions:
REMARK  status: ('A' for Active; 'I' for Inactive)
REMARK    1  A    between atoms: C_9  and  C_10 
REMARK    2  A    between atoms: C_11  and  O_12 
REMARK    3  A    between atoms: O_12  and  C_13 
REMARK    4  A    between atoms: C_20  and  C_21 
REMARK       I    between atoms: C_21  and  N_22 
REMARK    5  A    between atoms: N_22  and  C_23 
ROOT
HETATM    1  C   UNL     1      44.232 -11.722   3.575  1.00  0.00     0.070 C 
HETATM    2  C   UNL     1      42.818 -11.866   3.073  1.00  0.00     0.037 C 
HETATM    3  N   UNL     1      42.003 -10.751   3.253  1.00  0.00    -0.192 N 
HETATM    4  C   UNL     1      40.659 -10.809   3.153  1.00  0.00     0.725 A 
HETATM    5  N   UNL     1      40.069 -11.942   2.663  1.00  0.00    -0.084 N 
HETATM    6  N   UNL     1      38.722 -11.872   2.758  1.00  0.00    -0.149 NA
HETATM    7  C   UNL     1      38.575 -10.636   3.248  1.00  0.00     0.275 A 
HETATM    8  N   UNL     1      39.736  -9.952   3.506  1.00  0.00    -0.054 NA
HETATM    9  C   UNL     1      40.812 -13.109   2.175  1.00  0.00     0.205 C 
HETATM   10  C   UNL     1      42.293 -13.001   2.546  1.00  0.00     0.063 C 
HETATM   11  H   UNL     1      42.401  -9.956   3.746  1.00  0.00     0.184 HD
ENDROOT
BRANCH   9  12
HETATM   12  C   UNL     1      40.568 -13.259   0.671  1.00  0.00     0.005 A 
HETATM   13  C   UNL     1      40.952 -12.234  -0.220  1.00  0.00     0.083 A 
HETATM   14  C   UNL     1      40.740 -12.389  -1.594  1.00  0.00     0.037 A 
HETATM   15  C   UNL     1      40.194 -13.569  -2.098  1.00  0.00     0.003 A 
HETATM   16  C   UNL     1      39.851 -14.603  -1.234  1.00  0.00     0.001 A 
HETATM   17  C   UNL     1      40.038 -14.453   0.139  1.00  0.00     0.012 A 
BRANCH  13  18
HETATM   18  O   UNL     1      41.498 -11.113   0.341  1.00  0.00    -0.290 OA
BRANCH  18  19
HETATM   19  C   UNL     1      41.068  -9.849  -0.153  1.00  0.00     0.505 C 
HETATM   20  F   UNL     1      39.752  -9.652   0.097  1.00  0.00    -0.184 F 
HETATM   21  F   UNL     1      41.765  -8.865   0.466  1.00  0.00    -0.184 F 
ENDBRANCH  18  19
ENDBRANCH  13  18
ENDBRANCH   9  12
BRANCH  10  22
HETATM   22  C   UNL     1      43.045 -14.278   2.407  1.00  0.00     0.256 C 
HETATM   23  N   UNL     1      42.668 -15.240   3.319  1.00  0.00    -0.323 N 
HETATM   24  H   UNL     1      41.970 -14.980   4.003  1.00  0.00     0.169 HD
HETATM   25  O   UNL     1      43.911 -14.360   1.547  1.00  0.00    -0.267 OA
BRANCH  23  26
HETATM   26  C   UNL     1      43.107 -16.581   3.374  1.00  0.00     0.035 A 
HETATM   27  C   UNL     1      42.892 -17.515   2.360  1.00  0.00     0.029 A 
HETATM   28  C   UNL     1      43.332 -18.836   2.505  1.00  0.00     0.002 A 
HETATM   29  C   UNL     1      43.987 -19.233   3.668  1.00  0.00     0.000 A 
HETATM   30  C   UNL     1      44.210 -18.309   4.684  1.00  0.00     0.002 A 
HETATM   31  C   UNL     1      43.777 -16.988   4.536  1.00  0.00     0.029 A 
ENDBRANCH  23  26
ENDBRANCH  10  22
TORSDOF 5
ENDMDL
MODEL 8
REMARK VINA RESULT:      -7.0     15.748     18.347
REMARK  5 active torsions:
REMARK  status: ('A' for Active; 'I' for Inactive)
REMARK    1  A    between atoms: C_9  and  C_10 
REMARK    2  A    between atoms: C_11  and  O_12 
REMARK    3  A    between atoms: O_12  and  C_13 
REMARK    4  A    between atoms: C_20  and  C_21 
REMARK       I    between atoms: C_21  and  N_22 
REMARK    5  A    between atoms: N_22  and  C_23 
ROOT
HETATM    1  C   UNL     1      44.162 -34.375  -0.550  1.00  0.00     0.070 C 
HETATM    2  C   UNL     1      44.106 -32.891  -0.287  1.00  0.00     0.037 C 
HETATM    3  N   UNL     1      43.569 -32.522   0.944  1.00  0.00    -0.192 N 
HETATM    4  C   UNL     1      43.163 -31.264   1.213  1.00  0.00     0.725 A 
HETATM    5  N   UNL     1      43.463 -30.258   0.335  1.00  0.00    -0.084 N 
HETATM    6  N   UNL     1      42.867 -29.100   0.697  1.00  0.00    -0.149 NA
HETATM    7  C   UNL     1      42.286 -29.471   1.843  1.00  0.00     0.275 A 
HETATM    8  N   UNL     1      42.441 -30.788   2.194  1.00  0.00    -0.054 NA
HETATM    9  C   UNL     1      44.261 -30.443  -0.882  1.00  0.00     0.205 C 
HETATM   10  C   UNL     1      44.465 -31.930  -1.176  1.00  0.00     0.063 C 
HETATM   11  H   UNL     1      43.215 -33.265   1.541  1.00  0.00     0.184 HD
ENDROOT
BRANCH   9  12
HETATM   12  C   UNL     1      45.571 -29.663  -0.738  1.00  0.00     0.005 A 
HETATM   13  C   UNL     1      45.768 -28.461  -1.451  1.00  0.00     0.083 A 
HETATM   14  C   UNL     1      46.962 -27.747  -1.297  1.00  0.00     0.037 A 
HETATM   15  C   UNL     1      47.943 -28.189  -0.410  1.00  0.00     0.003 A 
HETATM   16  C   UNL     1      47.742 -29.349   0.330  1.00  0.00     0.001 A 
HETATM   17  C   UNL     1      46.565 -30.080   0.171  1.00  0.00     0.012 A 
BRANCH  13  18
HETATM   18  O   UNL     1      44.758 -28.078  -2.289  1.00  0.00    -0.290 OA
BRANCH  18  19
HETATM   19  C   UNL     1      44.959 -28.246  -3.688  1.00  0.00     0.505 C 
HETATM   20  F   UNL     1      45.352 -27.086  -4.265  1.00  0.00    -0.184 F 
HETATM   21  F   UNL     1      45.931 -29.168  -3.894  1.00  0.00    -0.184 F 
ENDBRANCH  18  19
ENDBRANCH  13  18
ENDBRANCH   9  12
BRANCH  10  22
HETATM   22  C   UNL     1      44.950 -32.213  -2.554  1.00  0.00     0.256 C 
HETATM   23  N   UNL     1      43.947 -32.215  -3.500  1.00  0.00    -0.323 N 
HETATM   24  H   UNL     1      43.002 -32.073  -3.171  1.00  0.00     0.169 HD
HETATM   25  O   UNL     1      46.141 -32.431  -2.726  1.00  0.00    -0.267 OA
BRANCH  23  26
HETATM   26  C   UNL     1      44.095 -32.337  -4.899  1.00  0.00     0.035 A 
HETATM   27  C   UNL     1      44.312 -33.548  -5.558  1.00  0.00     0.029 A 
HETATM   28  C   UNL     1      44.481 -33.580  -6.947  1.00  0.00     0.002 A 
HETATM   29  C   UNL     1      44.439 -32.401  -7.687  1.00  0.00     0.000 A 
HETATM   30  C   UNL     1      44.220 -31.188  -7.039  1.00  0.00     0.002 A 
HETATM   31  C   UNL     1      44.045 -31.157  -5.653  1.00  0.00     0.029 A 
ENDBRANCH  23  26
ENDBRANCH  10  22
TORSDOF 5
ENDMDL
MODEL 9
REMARK VINA RESULT:      -7.0      2.688      5.561
REMARK  5 active torsions:
REMARK  status: ('A' for Active; 'I' for Inactive)
REMARK    1  A    between atoms: C_9  and  C_10 
REMARK    2  A    between atoms: C_11  and  O_12 
REMARK    3  A    between atoms: O_12  and  C_13 
REMARK    4  A    between atoms: C_20  and  C_21 
REMARK       I    between atoms: C_21  and  N_22 
REMARK    5  A    between atoms: N_22  and  C_23 
ROOT
HETATM    1  C   UNL     1      39.109 -10.511   3.456  1.00  0.00     0.070 C 
HETATM    2  C   UNL     1      40.463 -11.125   3.708  1.00  0.00     0.037 C 
HETATM    3  N   UNL     1      40.946 -10.992   5.007  1.00  0.00    -0.192 N 
HETATM    4  C   UNL     1      42.241 -11.198   5.326  1.00  0.00     0.725 A 
HETATM    5  N   UNL     1      43.082 -11.751   4.400  1.00  0.00    -0.084 N 
HETATM    6  N   UNL     1      44.359 -11.761   4.843  1.00  0.00    -0.149 NA
HETATM    7  C   UNL     1      44.194 -11.264   6.075  1.00  0.00     0.275 A 
HETATM    8  N   UNL     1      42.913 -10.905   6.409  1.00  0.00    -0.054 NA
HETATM    9  C   UNL     1      42.656 -12.198   3.068  1.00  0.00     0.205 C 
HETATM   10  C   UNL     1      41.239 -11.710   2.761  1.00  0.00     0.063 C 
HETATM   11  H   UNL     1      40.383 -10.457   5.663  1.00  0.00     0.184 HD
ENDROOT
BRANCH   9  12
HETATM   12  C   UNL     1      42.812 -13.719   2.983  1.00  0.00     0.005 A 
HETATM   13  C   UNL     1      42.289 -14.547   3.998  1.00  0.00     0.083 A 
HETATM   14  C   UNL     1      42.420 -15.937   3.900  1.00  0.00     0.037 A 
HETATM   15  C   UNL     1      43.025 -16.515   2.785  1.00  0.00     0.003 A 
HETATM   16  C   UNL     1      43.506 -15.711   1.758  1.00  0.00     0.001 A 
HETATM   17  C   UNL     1      43.399 -14.324   1.853  1.00  0.00     0.012 A 
BRANCH  13  18
HETATM   18  O   UNL     1      41.693 -13.915   5.053  1.00  0.00    -0.290 OA
BRANCH  18  19
HETATM   19  C   UNL     1      40.655 -14.607   5.739  1.00  0.00     0.505 C 
HETATM   20  F   UNL     1      41.119 -15.171   6.880  1.00  0.00    -0.184 F 
HETATM   21  F   UNL     1      39.675 -13.731   6.072  1.00  0.00    -0.184 F 
ENDBRANCH  18  19
ENDBRANCH  13  18
ENDBRANCH   9  12
BRANCH  10  22
HETATM   22  C   UNL     1      40.864 -11.810   1.325  1.00  0.00     0.256 C 
HETATM   23  N   UNL     1      39.963 -12.819   1.060  1.00  0.00    -0.323 N 
HETATM   24  H   UNL     1      39.687 -13.406   1.836  1.00  0.00     0.169 HD
HETATM   25  O   UNL     1      41.376 -11.036   0.527  1.00  0.00    -0.267 OA
BRANCH  23  26
HETATM   26  C   UNL     1      39.331 -13.096  -0.172  1.00  0.00     0.035 A 
HETATM   27  C   UNL     1      38.365 -12.273  -0.755  1.00  0.00     0.029 A 
HETATM   28  C   UNL     1      37.762 -12.635  -1.965  1.00  0.00     0.002 A 
HETATM   29  C   UNL     1      38.115 -13.824  -2.598  1.00  0.00     0.000 A 
HETATM   30  C   UNL     1      39.079 -14.650  -2.026  1.00  0.00     0.002 A 
HETATM   31  C   UNL     1      39.687 -14.285  -0.822  1.00  0.00     0.029 A 
ENDBRANCH  23  26
ENDBRANCH  10  22
TORSDOF 5
ENDMDL
MODEL 10
REMARK VINA RESULT:      -6.9      1.977      2.654
REMARK  5 active torsions:
REMARK  status: ('A' for Active; 'I' for Inactive)
REMARK    1  A    between atoms: C_9  and  C_10 
REMARK    2  A    between atoms: C_11  and  O_12 
REMARK    3  A    between atoms: O_12  and  C_13 
REMARK    4  A    between atoms: C_20  and  C_21 
REMARK       I    between atoms: C_21  and  N_22 
REMARK    5  A    between atoms: N_22  and  C_23 
ROOT
HETATM    1  C   UNL     1      42.859 -10.442   5.168  1.00  0.00     0.070 C 
HETATM    2  C   UNL     1      41.778 -10.494   4.118  1.00  0.00     0.037 C 
HETATM    3  N   UNL     1      40.854  -9.452   4.159  1.00  0.00    -0.192 N 
HETATM    4  C   UNL     1      39.671  -9.504   3.515  1.00  0.00     0.725 A 
HETATM    5  N   UNL     1      39.434 -10.515   2.623  1.00  0.00    -0.084 N 
HETATM    6  N   UNL     1      38.159 -10.483   2.175  1.00  0.00    -0.149 NA
HETATM    7  C   UNL     1      37.712  -9.380   2.787  1.00  0.00     0.275 A 
HETATM    8  N   UNL     1      38.606  -8.752   3.618  1.00  0.00    -0.054 NA
HETATM    9  C   UNL     1      40.419 -11.542   2.267  1.00  0.00     0.205 C 
HETATM   10  C   UNL     1      41.616 -11.497   3.219  1.00  0.00     0.063 C 
HETATM   11  H   UNL     1      40.947  -8.775   4.912  1.00  0.00     0.184 HD
ENDROOT
BRANCH   9  12
HETATM   12  C   UNL     1      40.803 -11.372   0.794  1.00  0.00     0.005 A 
HETATM   13  C   UNL     1      40.394 -12.323  -0.164  1.00  0.00     0.083 A 
HETATM   14  C   UNL     1      40.735 -12.148  -1.510  1.00  0.00     0.037 A 
HETATM   15  C   UNL     1      41.438 -11.016  -1.921  1.00  0.00     0.003 A 
HETATM   16  C   UNL     1      41.809 -10.050  -0.992  1.00  0.00     0.001 A 
HETATM   17  C   UNL     1      41.493 -10.224   0.355  1.00  0.00     0.012 A 
BRANCH  13  18
HETATM   18  O   UNL     1      39.693 -13.398   0.306  1.00  0.00    -0.290 OA
BRANCH  18  19
HETATM   19  C   UNL     1      39.928 -14.662  -0.306  1.00  0.00     0.505 C 
HETATM   20  F   UNL     1      39.781 -15.669   0.587  1.00  0.00    -0.184 F 
HETATM   21  F   UNL     1      39.031 -14.851  -1.305  1.00  0.00    -0.184 F 
ENDBRANCH  18  19
ENDBRANCH  13  18
ENDBRANCH   9  12
BRANCH  10  22
HETATM   22  C   UNL     1      42.482 -12.706   3.159  1.00  0.00     0.256 C 
HETATM   23  N   UNL     1      41.811 -13.878   3.440  1.00  0.00    -0.323 N 
HETATM   24  H   UNL     1      40.836 -13.801   3.696  1.00  0.00     0.169 HD
HETATM   25  O   UNL     1      43.669 -12.568   2.896  1.00  0.00    -0.267 OA
BRANCH  23  26
HETATM   26  C   UNL     1      42.320 -15.192   3.354  1.00  0.00     0.035 A 
HETATM   27  C   UNL     1      42.545 -16.015   4.459  1.00  0.00     0.029 A 
HETATM   28  C   UNL     1      43.082 -17.297   4.292  1.00  0.00     0.002 A 
HETATM   29  C   UNL     1      43.403 -17.763   3.020  1.00  0.00     0.000 A 
HETATM   30  C   UNL     1      43.180 -16.951   1.911  1.00  0.00     0.002 A 
HETATM   31  C   UNL     1      42.637 -15.674   2.077  1.00  0.00     0.029 A 
ENDBRANCH  23  26
ENDBRANCH  10  22
TORSDOF 5
ENDMDL
