MODEL 1
REMARK VINA RESULT:      -8.6      0.000      0.000
REMARK  6 active torsions:
REMARK  status: ('A' for Active; 'I' for Inactive)
REMARK    1  A    between atoms: C_2  and  C_3 
REMARK    2  A    between atoms: C_3  and  C_4 
REMARK    3  A    between atoms: C_3  and  C_10 
REMARK    4  A    between atoms: C_10  and  C_11 
REMARK       I    between atoms: C_11  and  N_12 
REMARK    5  A    between atoms: N_12  and  C_13 
REMARK    6  A    between atoms: C_15  and  C_16 
ROOT
HETATM    1  C   UNL     1      42.520 -15.366   2.975  1.00  0.00     0.223 C 
HETATM    2  N   UNL     1      41.306 -14.766   2.683  1.00  0.00    -0.327 N 
HETATM    3  O   UNL     1      43.571 -15.215   2.360  1.00  0.00    -0.273 OA
HETATM    4  H   UNL     1      40.582 -14.837   3.385  1.00  0.00     0.169 HD
ENDROOT
BRANCH   2   5
HETATM    5  C   UNL     1      40.984 -14.006   1.538  1.00  0.00     0.035 A 
HETATM    6  C   UNL     1      40.333 -14.530   0.415  1.00  0.00     0.042 A 
HETATM    7  C   UNL     1      40.003 -13.720  -0.687  1.00  0.00    -0.021 A 
HETATM    8  C   UNL     1      40.352 -12.364  -0.641  1.00  0.00     0.012 A 
HETATM    9  C   UNL     1      40.999 -11.830   0.475  1.00  0.00     0.003 A 
HETATM   10  C   UNL     1      41.309 -12.647   1.561  1.00  0.00     0.029 A 
BRANCH   7  11
HETATM   11  C   UNL     1      39.305 -14.295  -1.833  1.00  0.00     0.010 A 
HETATM   12  C   UNL     1      38.944 -13.722  -3.081  1.00  0.00     0.152 A 
HETATM   13  N   UNL     1      38.316 -14.581  -3.890  1.00  0.00    -0.187 NA
HETATM   14  N   UNL     1      38.267 -15.709  -3.168  1.00  0.00    -0.289 N 
HETATM   15  H   UNL     1      37.826 -16.523  -3.580  1.00  0.00     0.188 HD
HETATM   16  C   UNL     1      38.844 -15.592  -1.936  1.00  0.00     0.123 A 
ENDBRANCH   7  11
ENDBRANCH   2   5
BRANCH   1  17
HETATM   17  C   UNL     1      42.458 -16.260   4.201  1.00  0.00     0.116 C 
BRANCH  17  18
HETATM   18  C   UNL     1      43.837 -16.854   4.549  1.00  0.00     0.049 C 
BRANCH  18  19
HETATM   19  C   UNL     1      44.343 -16.644   5.966  1.00  0.00    -0.027 C 
HETATM   20  C   UNL     1      43.691 -16.110   7.008  1.00  0.00     0.007 C 
ENDBRANCH  18  19
BRANCH  18  21
HETATM   21  C   UNL     1      43.852 -18.339   4.197  1.00  0.00    -0.050 A 
HETATM   22  C   UNL     1      44.054 -19.318   5.185  1.00  0.00     0.008 A 
HETATM   23  C   UNL     1      44.064 -20.673   4.852  1.00  0.00     0.001 A 
HETATM   24  C   UNL     1      43.870 -21.067   3.530  1.00  0.00     0.000 A 
HETATM   25  C   UNL     1      43.665 -20.110   2.540  1.00  0.00     0.001 A 
HETATM   26  C   UNL     1      43.658 -18.752   2.870  1.00  0.00     0.008 A 
ENDBRANCH  18  21
ENDBRANCH  17  18
ENDBRANCH   1  17
TORSDOF 6
ENDMDL
MODEL 2
REMARK VINA RESULT:      -8.5      1.528      1.871
REMARK  6 active torsions:
REMARK  status: ('A' for Active; 'I' for Inactive)
REMARK    1  A    between atoms: C_2  and  C_3 
REMARK    2  A    between atoms: C_3  and  C_4 
REMARK    3  A    between atoms: C_3  and  C_10 
REMARK    4  A    between atoms: C_10  and  C_11 
REMARK       I    between atoms: C_11  and  N_12 
REMARK    5  A    between atoms: N_12  and  C_13 
REMARK    6  A    between atoms: C_15  and  C_16 
ROOT
HETATM    1  C   UNL     1      41.900 -14.967   4.023  1.00  0.00     0.223 C 
HETATM    2  N   UNL     1      40.646 -14.932   3.435  1.00  0.00    -0.327 N 
HETATM    3  O   UNL     1      42.760 -14.095   3.951  1.00  0.00    -0.273 OA
HETATM    4  H   UNL     1      39.981 -15.631   3.738  1.00  0.00     0.169 HD
ENDROOT
BRANCH   2   5
HETATM    5  C   UNL     1      40.166 -13.985   2.506  1.00  0.00     0.035 A 
HETATM    6  C   UNL     1      40.555 -13.948   1.162  1.00  0.00     0.042 A 
HETATM    7  C   UNL     1      40.020 -13.004   0.267  1.00  0.00    -0.021 A 
HETATM    8  C   UNL     1      39.083 -12.084   0.757  1.00  0.00     0.012 A 
HETATM    9  C   UNL     1      38.685 -12.113   2.095  1.00  0.00     0.003 A 
HETATM   10  C   UNL     1      39.221 -13.063   2.963  1.00  0.00     0.029 A 
BRANCH   7  11
HETATM   11  C   UNL     1      40.432 -13.007  -1.133  1.00  0.00     0.010 A 
HETATM   12  C   UNL     1      40.149 -13.921  -2.181  1.00  0.00     0.152 A 
HETATM   13  N   UNL     1      40.705 -13.572  -3.345  1.00  0.00    -0.187 NA
HETATM   14  N   UNL     1      41.350 -12.435  -3.054  1.00  0.00    -0.289 N 
HETATM   15  H   UNL     1      41.860 -11.969  -3.796  1.00  0.00     0.188 HD
HETATM   16  C   UNL     1      41.218 -12.053  -1.749  1.00  0.00     0.123 A 
ENDBRANCH   7  11
ENDBRANCH   2   5
BRANCH   1  17
HETATM   17  C   UNL     1      42.138 -16.229   4.833  1.00  0.00     0.116 C 
BRANCH  17  18
HETATM   18  C   UNL     1      43.601 -16.705   4.736  1.00  0.00     0.049 C 
BRANCH  18  19
HETATM   19  C   UNL     1      44.415 -16.706   6.019  1.00  0.00    -0.027 C 
HETATM   20  C   UNL     1      43.971 -16.641   7.282  1.00  0.00     0.007 C 
ENDBRANCH  18  19
BRANCH  18  21
HETATM   21  C   UNL     1      43.643 -18.084   4.083  1.00  0.00    -0.050 A 
HETATM   22  C   UNL     1      44.060 -19.217   4.804  1.00  0.00     0.008 A 
HETATM   23  C   UNL     1      44.092 -20.473   4.197  1.00  0.00     0.001 A 
HETATM   24  C   UNL     1      43.706 -20.615   2.866  1.00  0.00     0.000 A 
HETATM   25  C   UNL     1      43.287 -19.503   2.140  1.00  0.00     0.001 A 
HETATM   26  C   UNL     1      43.257 -18.243   2.743  1.00  0.00     0.008 A 
ENDBRANCH  18  21
ENDBRANCH  17  18
ENDBRANCH   1  17
TORSDOF 6
ENDMDL
MODEL 3
REMARK VINA RESULT:      -8.2      5.419      8.990
REMARK  6 active torsions:
REMARK  status: ('A' for Active; 'I' for Inactive)
REMARK    1  A    between atoms: C_2  and  C_3 
REMARK    2  A    between atoms: C_3  and  C_4 
REMARK    3  A    between atoms: C_3  and  C_10 
REMARK    4  A    between atoms: C_10  and  C_11 
REMARK       I    between atoms: C_11  and  N_12 
REMARK    5  A    between atoms: N_12  and  C_13 
REMARK    6  A    between atoms: C_15  and  C_16 
ROOT
HETATM    1  C   UNL     1      43.518 -13.859   6.438  1.00  0.00     0.223 C 
HETATM    2  N   UNL     1      43.873 -12.544   6.190  1.00  0.00    -0.327 N 
HETATM    3  O   UNL     1      43.539 -14.424   7.528  1.00  0.00    -0.273 OA
HETATM    4  H   UNL     1      43.623 -12.167   5.284  1.00  0.00     0.169 HD
ENDROOT
BRANCH   2   5
HETATM    5  C   UNL     1      44.487 -11.642   7.084  1.00  0.00     0.035 A 
HETATM    6  C   UNL     1      43.889 -11.192   8.268  1.00  0.00     0.042 A 
HETATM    7  C   UNL     1      44.559 -10.318   9.143  1.00  0.00    -0.021 A 
HETATM    8  C   UNL     1      45.850  -9.895   8.798  1.00  0.00     0.012 A 
HETATM    9  C   UNL     1      46.457 -10.339   7.623  1.00  0.00     0.003 A 
HETATM   10  C   UNL     1      45.780 -11.212   6.772  1.00  0.00     0.029 A 
BRANCH   7  11
HETATM   11  C   UNL     1      43.914  -9.885  10.379  1.00  0.00     0.010 A 
HETATM   12  C   UNL     1      43.503 -10.625  11.519  1.00  0.00     0.152 A 
HETATM   13  N   UNL     1      42.953  -9.863  12.468  1.00  0.00    -0.187 NA
HETATM   14  N   UNL     1      43.004  -8.630  11.946  1.00  0.00    -0.289 N 
HETATM   15  H   UNL     1      42.636  -7.861  12.494  1.00  0.00     0.188 HD
HETATM   16  C   UNL     1      43.569  -8.588  10.703  1.00  0.00     0.123 A 
ENDBRANCH   7  11
ENDBRANCH   2   5
BRANCH   1  17
HETATM   17  C   UNL     1      43.047 -14.590   5.194  1.00  0.00     0.116 C 
BRANCH  17  18
HETATM   18  C   UNL     1      42.444 -15.969   5.530  1.00  0.00     0.049 C 
BRANCH  18  19
HETATM   19  C   UNL     1      40.929 -16.065   5.591  1.00  0.00    -0.027 C 
HETATM   20  C   UNL     1      40.122 -15.793   6.625  1.00  0.00     0.007 C 
ENDBRANCH  18  19
BRANCH  18  21
HETATM   21  C   UNL     1      43.003 -17.014   4.570  1.00  0.00    -0.050 A 
HETATM   22  C   UNL     1      42.539 -17.106   3.246  1.00  0.00     0.008 A 
HETATM   23  C   UNL     1      43.059 -18.066   2.376  1.00  0.00     0.001 A 
HETATM   24  C   UNL     1      44.050 -18.940   2.814  1.00  0.00     0.000 A 
HETATM   25  C   UNL     1      44.523 -18.859   4.121  1.00  0.00     0.001 A 
HETATM   26  C   UNL     1      44.003 -17.902   4.996  1.00  0.00     0.008 A 
ENDBRANCH  18  21
ENDBRANCH  17  18
ENDBRANCH   1  17
TORSDOF 6
ENDMDL
MODEL 4
REMARK VINA RESULT:      -7.9      2.159      3.296
REMARK  6 active torsions:
REMARK  status: ('A' for Active; 'I' for Inactive)
REMARK    1  A    between atoms: C_2  and  C_3 
REMARK    2  A    between atoms: C_3  and  C_4 
REMARK    3  A    between atoms: C_3  and  C_10 
REMARK    4  A    between atoms: C_10  and  C_11 
REMARK       I    between atoms: C_11  and  N_12 
REMARK    5  A    between atoms: N_12  and  C_13 
REMARK    6  A    between atoms: C_15  and  C_16 
ROOT
HETATM    1  C   UNL     1      42.185 -15.357   2.757  1.00  0.00     0.223 C 
HETATM    2  N   UNL     1      40.927 -15.033   2.276  1.00  0.00    -0.327 N 
HETATM    3  O   UNL     1      43.254 -14.908   2.355  1.00  0.00    -0.273 OA
HETATM    4  H   UNL     1      40.135 -15.336   2.828  1.00  0.00     0.169 HD
ENDROOT
BRANCH   2   5
HETATM    5  C   UNL     1      40.623 -14.264   1.132  1.00  0.00     0.035 A 
HETATM    6  C   UNL     1      40.924 -12.903   1.007  1.00  0.00     0.042 A 
HETATM    7  C   UNL     1      40.630 -12.190  -0.169  1.00  0.00    -0.021 A 
HETATM    8  C   UNL     1      40.013 -12.877  -1.224  1.00  0.00     0.012 A 
HETATM    9  C   UNL     1      39.710 -14.234  -1.112  1.00  0.00     0.003 A 
HETATM   10  C   UNL     1      40.018 -14.925   0.060  1.00  0.00     0.029 A 
BRANCH   7  11
HETATM   11  C   UNL     1      40.977 -10.776  -0.273  1.00  0.00     0.010 A 
HETATM   12  C   UNL     1      40.750  -9.839  -1.315  1.00  0.00     0.152 A 
HETATM   13  N   UNL     1      41.211  -8.617  -1.032  1.00  0.00    -0.187 NA
HETATM   14  N   UNL     1      41.739  -8.760   0.191  1.00  0.00    -0.289 N 
HETATM   15  H   UNL     1      42.160  -7.949   0.629  1.00  0.00     0.188 HD
HETATM   16  C   UNL     1      41.624 -10.026   0.690  1.00  0.00     0.123 A 
ENDBRANCH   7  11
ENDBRANCH   2   5
BRANCH   1  17
HETATM   17  C   UNL     1      42.141 -16.352   3.902  1.00  0.00     0.116 C 
BRANCH  17  18
HETATM   18  C   UNL     1      43.551 -16.832   4.301  1.00  0.00     0.049 C 
BRANCH  18  19
HETATM   19  C   UNL     1      44.011 -16.529   5.717  1.00  0.00    -0.027 C 
HETATM   20  C   UNL     1      44.012 -15.349   6.352  1.00  0.00     0.007 C 
ENDBRANCH  18  19
BRANCH  18  21
HETATM   21  C   UNL     1      43.679 -18.325   4.011  1.00  0.00    -0.050 A 
HETATM   22  C   UNL     1      43.479 -18.833   2.717  1.00  0.00     0.008 A 
HETATM   23  C   UNL     1      43.601 -20.200   2.463  1.00  0.00     0.001 A 
HETATM   24  C   UNL     1      43.927 -21.075   3.497  1.00  0.00     0.000 A 
HETATM   25  C   UNL     1      44.132 -20.586   4.785  1.00  0.00     0.001 A 
HETATM   26  C   UNL     1      44.008 -19.218   5.043  1.00  0.00     0.008 A 
ENDBRANCH  18  21
ENDBRANCH  17  18
ENDBRANCH   1  17
TORSDOF 6
ENDMDL
MODEL 5
REMARK VINA RESULT:      -7.9      4.292      7.026
REMARK  6 active torsions:
REMARK  status: ('A' for Active; 'I' for Inactive)
REMARK    1  A    between atoms: C_2  and  C_3 
REMARK    2  A    between atoms: C_3  and  C_4 
REMARK    3  A    between atoms: C_3  and  C_10 
REMARK    4  A    between atoms: C_10  and  C_11 
REMARK       I    between atoms: C_11  and  N_12 
REMARK    5  A    between atoms: N_12  and  C_13 
REMARK    6  A    between atoms: C_15  and  C_16 
ROOT
HETATM    1  C   UNL     1      41.913 -15.117   4.319  1.00  0.00     0.223 C 
HETATM    2  N   UNL     1      42.766 -14.042   4.135  1.00  0.00    -0.327 N 
HETATM    3  O   UNL     1      40.870 -15.114   4.966  1.00  0.00    -0.273 OA
HETATM    4  H   UNL     1      43.481 -14.144   3.426  1.00  0.00     0.169 HD
ENDROOT
BRANCH   2   5
HETATM    5  C   UNL     1      42.711 -12.788   4.780  1.00  0.00     0.035 A 
HETATM    6  C   UNL     1      43.474 -12.460   5.907  1.00  0.00     0.042 A 
HETATM    7  C   UNL     1      43.407 -11.183   6.493  1.00  0.00    -0.021 A 
HETATM    8  C   UNL     1      42.543 -10.237   5.923  1.00  0.00     0.012 A 
HETATM    9  C   UNL     1      41.780 -10.552   4.799  1.00  0.00     0.003 A 
HETATM   10  C   UNL     1      41.868 -11.821   4.227  1.00  0.00     0.029 A 
BRANCH   7  11
HETATM   11  C   UNL     1      44.232 -10.867   7.655  1.00  0.00     0.010 A 
HETATM   12  C   UNL     1      43.883 -10.692   9.020  1.00  0.00     0.152 A 
HETATM   13  N   UNL     1      44.934 -10.420   9.799  1.00  0.00    -0.187 NA
HETATM   14  N   UNL     1      45.964 -10.416   8.942  1.00  0.00    -0.289 N 
HETATM   15  H   UNL     1      46.891 -10.229   9.306  1.00  0.00     0.188 HD
HETATM   16  C   UNL     1      45.600 -10.679   7.652  1.00  0.00     0.123 A 
ENDBRANCH   7  11
ENDBRANCH   2   5
BRANCH   1  17
HETATM   17  C   UNL     1      42.376 -16.370   3.598  1.00  0.00     0.116 C 
BRANCH  17  18
HETATM   18  C   UNL     1      43.614 -16.996   4.271  1.00  0.00     0.049 C 
BRANCH  18  19
HETATM   19  C   UNL     1      43.726 -16.858   5.780  1.00  0.00    -0.027 C 
HETATM   20  C   UNL     1      44.677 -16.231   6.486  1.00  0.00     0.007 C 
ENDBRANCH  18  19
BRANCH  18  21
HETATM   21  C   UNL     1      43.725 -18.463   3.864  1.00  0.00    -0.050 A 
HETATM   22  C   UNL     1      44.055 -19.454   4.805  1.00  0.00     0.008 A 
HETATM   23  C   UNL     1      44.152 -20.792   4.422  1.00  0.00     0.001 A 
HETATM   24  C   UNL     1      43.917 -21.158   3.099  1.00  0.00     0.000 A 
HETATM   25  C   UNL     1      43.587 -20.188   2.156  1.00  0.00     0.001 A 
HETATM   26  C   UNL     1      43.492 -18.847   2.535  1.00  0.00     0.008 A 
ENDBRANCH  18  21
ENDBRANCH  17  18
ENDBRANCH   1  17
TORSDOF 6
ENDMDL
MODEL 6
REMARK VINA RESULT:      -7.9      1.581      3.081
REMARK  6 active torsions:
REMARK  status: ('A' for Active; 'I' for Inactive)
REMARK    1  A    between atoms: C_2  and  C_3 
REMARK    2  A    between atoms: C_3  and  C_4 
REMARK    3  A    between atoms: C_3  and  C_10 
REMARK    4  A    between atoms: C_10  and  C_11 
REMARK       I    between atoms: C_11  and  N_12 
REMARK    5  A    between atoms: N_12  and  C_13 
REMARK    6  A    between atoms: C_15  and  C_16 
ROOT
HETATM    1  C   UNL     1      41.948 -15.616   1.624  1.00  0.00     0.223 C 
HETATM    2  N   UNL     1      42.212 -14.354   1.118  1.00  0.00    -0.327 N 
HETATM    3  O   UNL     1      40.839 -16.116   1.787  1.00  0.00    -0.273 OA
HETATM    4  H   UNL     1      43.171 -14.155   0.866  1.00  0.00     0.169 HD
ENDROOT
BRANCH   2   5
HETATM    5  C   UNL     1      41.278 -13.330   0.849  1.00  0.00     0.035 A 
HETATM    6  C   UNL     1      40.326 -13.396  -0.175  1.00  0.00     0.042 A 
HETATM    7  C   UNL     1      39.395 -12.361  -0.380  1.00  0.00    -0.021 A 
HETATM    8  C   UNL     1      39.446 -11.246   0.468  1.00  0.00     0.012 A 
HETATM    9  C   UNL     1      40.389 -11.171   1.494  1.00  0.00     0.003 A 
HETATM   10  C   UNL     1      41.298 -12.211   1.686  1.00  0.00     0.029 A 
BRANCH   7  11
HETATM   11  C   UNL     1      38.402 -12.472  -1.444  1.00  0.00     0.010 A 
HETATM   12  C   UNL     1      37.387 -11.572  -1.863  1.00  0.00     0.152 A 
HETATM   13  N   UNL     1      36.675 -12.029  -2.896  1.00  0.00    -0.187 NA
HETATM   14  N   UNL     1      37.223 -13.225  -3.148  1.00  0.00    -0.289 N 
HETATM   15  H   UNL     1      36.843 -13.777  -3.908  1.00  0.00     0.188 HD
HETATM   16  C   UNL     1      38.258 -13.536  -2.312  1.00  0.00     0.123 A 
ENDBRANCH   7  11
ENDBRANCH   2   5
BRANCH   1  17
HETATM   17  C   UNL     1      43.208 -16.393   1.962  1.00  0.00     0.116 C 
BRANCH  17  18
HETATM   18  C   UNL     1      42.915 -17.589   2.888  1.00  0.00     0.049 C 
BRANCH  18  19
HETATM   19  C   UNL     1      43.710 -18.862   2.647  1.00  0.00    -0.027 C 
HETATM   20  C   UNL     1      43.263 -20.046   2.207  1.00  0.00     0.007 C 
ENDBRANCH  18  19
BRANCH  18  21
HETATM   21  C   UNL     1      43.049 -17.149   4.343  1.00  0.00    -0.050 A 
HETATM   22  C   UNL     1      44.299 -17.140   4.987  1.00  0.00     0.008 A 
HETATM   23  C   UNL     1      44.410 -16.734   6.317  1.00  0.00     0.001 A 
HETATM   24  C   UNL     1      43.278 -16.327   7.019  1.00  0.00     0.000 A 
HETATM   25  C   UNL     1      42.033 -16.327   6.394  1.00  0.00     0.001 A 
HETATM   26  C   UNL     1      41.918 -16.736   5.064  1.00  0.00     0.008 A 
ENDBRANCH  18  21
ENDBRANCH  17  18
ENDBRANCH   1  17
TORSDOF 6
ENDMDL
MODEL 7
REMARK VINA RESULT:      -7.8      2.483      3.458
REMARK  6 active torsions:
REMARK  status: ('A' for Active; 'I' for Inactive)
REMARK    1  A    between atoms: C_2  and  C_3 
REMARK    2  A    between atoms: C_3  and  C_4 
REMARK    3  A    between atoms: C_3  and  C_10 
REMARK    4  A    between atoms: C_10  and  C_11 
REMARK       I    between atoms: C_11  and  N_12 
REMARK    5  A    between atoms: N_12  and  C_13 
REMARK    6  A    between atoms: C_15  and  C_16 
ROOT
HETATM    1  C   UNL     1      41.866 -15.281   3.557  1.00  0.00     0.223 C 
HETATM    2  N   UNL     1      40.587 -15.281   3.025  1.00  0.00    -0.327 N 
HETATM    3  O   UNL     1      42.740 -14.445   3.345  1.00  0.00    -0.273 OA
HETATM    4  H   UNL     1      39.922 -15.924   3.436  1.00  0.00     0.169 HD
ENDROOT
BRANCH   2   5
HETATM    5  C   UNL     1      40.083 -14.436   2.013  1.00  0.00     0.035 A 
HETATM    6  C   UNL     1      39.416 -13.232   2.267  1.00  0.00     0.042 A 
HETATM    7  C   UNL     1      38.962 -12.409   1.220  1.00  0.00    -0.021 A 
HETATM    8  C   UNL     1      39.188 -12.828  -0.098  1.00  0.00     0.012 A 
HETATM    9  C   UNL     1      39.854 -14.025  -0.363  1.00  0.00     0.003 A 
HETATM   10  C   UNL     1      40.303 -14.823   0.689  1.00  0.00     0.029 A 
BRANCH   7  11
HETATM   11  C   UNL     1      38.289 -11.149   1.520  1.00  0.00     0.010 A 
HETATM   12  C   UNL     1      37.429 -10.345   0.727  1.00  0.00     0.152 A 
HETATM   13  N   UNL     1      36.995  -9.254   1.365  1.00  0.00    -0.187 NA
HETATM   14  N   UNL     1      37.573  -9.348   2.570  1.00  0.00    -0.289 N 
HETATM   15  H   UNL     1      37.389  -8.617   3.249  1.00  0.00     0.188 HD
HETATM   16  C   UNL     1      38.352 -10.459   2.715  1.00  0.00     0.123 A 
ENDBRANCH   7  11
ENDBRANCH   2   5
BRANCH   1  17
HETATM   17  C   UNL     1      42.116 -16.446   4.497  1.00  0.00     0.116 C 
BRANCH  17  18
HETATM   18  C   UNL     1      43.596 -16.875   4.500  1.00  0.00     0.049 C 
BRANCH  18  19
HETATM   19  C   UNL     1      44.379 -16.651   5.783  1.00  0.00    -0.027 C 
HETATM   20  C   UNL     1      43.974 -16.038   6.904  1.00  0.00     0.007 C 
ENDBRANCH  18  19
BRANCH  18  21
HETATM   21  C   UNL     1      43.703 -18.333   4.063  1.00  0.00    -0.050 A 
HETATM   22  C   UNL     1      43.518 -18.704   2.720  1.00  0.00     0.008 A 
HETATM   23  C   UNL     1      43.620 -20.040   2.331  1.00  0.00     0.001 A 
HETATM   24  C   UNL     1      43.911 -21.021   3.276  1.00  0.00     0.000 A 
HETATM   25  C   UNL     1      44.100 -20.669   4.610  1.00  0.00     0.001 A 
HETATM   26  C   UNL     1      43.996 -19.332   5.003  1.00  0.00     0.008 A 
ENDBRANCH  18  21
ENDBRANCH  17  18
ENDBRANCH   1  17
TORSDOF 6
ENDMDL
MODEL 8
REMARK VINA RESULT:      -7.7      2.735      4.365
REMARK  6 active torsions:
REMARK  status: ('A' for Active; 'I' for Inactive)
REMARK    1  A    between atoms: C_2  and  C_3 
REMARK    2  A    between atoms: C_3  and  C_4 
REMARK    3  A    between atoms: C_3  and  C_10 
REMARK    4  A    between atoms: C_10  and  C_11 
REMARK       I    between atoms: C_11  and  N_12 
REMARK    5  A    between atoms: N_12  and  C_13 
REMARK    6  A    between atoms: C_15  and  C_16 
ROOT
HETATM    1  C   UNL     1      41.306 -15.329   1.283  1.00  0.00     0.223 C 
HETATM    2  N   UNL     1      41.282 -14.537   0.147  1.00  0.00    -0.327 N 
HETATM    3  O   UNL     1      40.332 -15.807   1.857  1.00  0.00    -0.273 OA
HETATM    4  H   UNL     1      42.166 -14.377  -0.316  1.00  0.00     0.169 HD
ENDROOT
BRANCH   2   5
HETATM    5  C   UNL     1      40.147 -13.978  -0.479  1.00  0.00     0.035 A 
HETATM    6  C   UNL     1      39.420 -12.903   0.045  1.00  0.00     0.042 A 
HETATM    7  C   UNL     1      38.316 -12.361  -0.637  1.00  0.00    -0.021 A 
HETATM    8  C   UNL     1      37.948 -12.932  -1.863  1.00  0.00     0.012 A 
HETATM    9  C   UNL     1      38.667 -14.003  -2.396  1.00  0.00     0.003 A 
HETATM   10  C   UNL     1      39.764 -14.520  -1.709  1.00  0.00     0.029 A 
BRANCH   7  11
HETATM   11  C   UNL     1      37.593 -11.225  -0.072  1.00  0.00     0.010 A 
HETATM   12  C   UNL     1      37.088 -10.049  -0.686  1.00  0.00     0.152 A 
HETATM   13  N   UNL     1      36.464  -9.237   0.172  1.00  0.00    -0.187 NA
HETATM   14  N   UNL     1      36.565  -9.882   1.341  1.00  0.00    -0.289 N 
HETATM   15  H   UNL     1      36.156  -9.453   2.164  1.00  0.00     0.188 HD
HETATM   16  C   UNL     1      37.227 -11.073   1.251  1.00  0.00     0.123 A 
ENDBRANCH   7  11
ENDBRANCH   2   5
BRANCH   1  17
HETATM   17  C   UNL     1      42.713 -15.601   1.784  1.00  0.00     0.116 C 
BRANCH  17  18
HETATM   18  C   UNL     1      42.748 -16.758   2.802  1.00  0.00     0.049 C 
BRANCH  18  19
HETATM   19  C   UNL     1      43.549 -17.992   2.420  1.00  0.00    -0.027 C 
HETATM   20  C   UNL     1      43.097 -19.230   2.177  1.00  0.00     0.007 C 
ENDBRANCH  18  19
BRANCH  18  21
HETATM   21  C   UNL     1      43.207 -16.228   4.157  1.00  0.00    -0.050 A 
HETATM   22  C   UNL     1      42.814 -14.957   4.611  1.00  0.00     0.008 A 
HETATM   23  C   UNL     1      43.239 -14.483   5.853  1.00  0.00     0.001 A 
HETATM   24  C   UNL     1      44.055 -15.273   6.659  1.00  0.00     0.000 A 
HETATM   25  C   UNL     1      44.449 -16.537   6.225  1.00  0.00     0.001 A 
HETATM   26  C   UNL     1      44.029 -17.013   4.980  1.00  0.00     0.008 A 
ENDBRANCH  18  21
ENDBRANCH  17  18
ENDBRANCH   1  17
TORSDOF 6
ENDMDL
MODEL 9
REMARK VINA RESULT:      -7.7      1.824      2.410
REMARK  6 active torsions:
REMARK  status: ('A' for Active; 'I' for Inactive)
REMARK    1  A    between atoms: C_2  and  C_3 
REMARK    2  A    between atoms: C_3  and  C_4 
REMARK    3  A    between atoms: C_3  and  C_10 
REMARK    4  A    between atoms: C_10  and  C_11 
REMARK       I    between atoms: C_11  and  N_12 
REMARK    5  A    between atoms: N_12  and  C_13 
REMARK    6  A    between atoms: C_15  and  C_16 
ROOT
HETATM    1  C   UNL     1      42.509 -14.675   2.093  1.00  0.00     0.223 C 
HETATM    2  N   UNL     1      41.159 -14.745   1.791  1.00  0.00    -0.327 N 
HETATM    3  O   UNL     1      43.136 -13.660   2.383  1.00  0.00    -0.273 OA
HETATM    4  H   UNL     1      40.746 -15.669   1.760  1.00  0.00     0.169 HD
ENDROOT
BRANCH   2   5
HETATM    5  C   UNL     1      40.272 -13.666   1.586  1.00  0.00     0.035 A 
HETATM    6  C   UNL     1      39.889 -13.204   0.322  1.00  0.00     0.042 A 
HETATM    7  C   UNL     1      38.975 -12.146   0.172  1.00  0.00    -0.021 A 
HETATM    8  C   UNL     1      38.456 -11.550   1.330  1.00  0.00     0.012 A 
HETATM    9  C   UNL     1      38.828 -12.004   2.596  1.00  0.00     0.003 A 
HETATM   10  C   UNL     1      39.729 -13.061   2.722  1.00  0.00     0.029 A 
BRANCH   7  11
HETATM   11  C   UNL     1      38.582 -11.703  -1.162  1.00  0.00     0.010 A 
HETATM   12  C   UNL     1      38.020 -10.476  -1.603  1.00  0.00     0.152 A 
HETATM   13  N   UNL     1      37.806 -10.442  -2.922  1.00  0.00    -0.187 NA
HETATM   14  N   UNL     1      38.226 -11.645  -3.336  1.00  0.00    -0.289 N 
HETATM   15  H   UNL     1      38.163 -11.861  -4.325  1.00  0.00     0.188 HD
HETATM   16  C   UNL     1      38.699 -12.434  -2.327  1.00  0.00     0.123 A 
ENDBRANCH   7  11
ENDBRANCH   2   5
BRANCH   1  17
HETATM   17  C   UNL     1      43.193 -16.029   2.062  1.00  0.00     0.116 C 
BRANCH  17  18
HETATM   18  C   UNL     1      43.425 -16.589   3.480  1.00  0.00     0.049 C 
BRANCH  18  19
HETATM   19  C   UNL     1      42.428 -16.185   4.555  1.00  0.00    -0.027 C 
HETATM   20  C   UNL     1      42.679 -15.656   5.760  1.00  0.00     0.007 C 
ENDBRANCH  18  19
BRANCH  18  21
HETATM   21  C   UNL     1      43.543 -18.109   3.413  1.00  0.00    -0.050 A 
HETATM   22  C   UNL     1      43.128 -18.819   2.273  1.00  0.00     0.008 A 
HETATM   23  C   UNL     1      43.242 -20.209   2.222  1.00  0.00     0.001 A 
HETATM   24  C   UNL     1      43.775 -20.906   3.304  1.00  0.00     0.000 A 
HETATM   25  C   UNL     1      44.194 -20.215   4.438  1.00  0.00     0.001 A 
HETATM   26  C   UNL     1      44.078 -18.824   4.494  1.00  0.00     0.008 A 
ENDBRANCH  18  21
ENDBRANCH  17  18
ENDBRANCH   1  17
TORSDOF 6
ENDMDL
MODEL 10
REMARK VINA RESULT:      -7.7      4.559      7.491
REMARK  6 active torsions:
REMARK  status: ('A' for Active; 'I' for Inactive)
REMARK    1  A    between atoms: C_2  and  C_3 
REMARK    2  A    between atoms: C_3  and  C_4 
REMARK    3  A    between atoms: C_3  and  C_10 
REMARK    4  A    between atoms: C_10  and  C_11 
REMARK       I    between atoms: C_11  and  N_12 
REMARK    5  A    between atoms: N_12  and  C_13 
REMARK    6  A    between atoms: C_15  and  C_16 
ROOT
HETATM    1  C   UNL     1      42.907 -13.454   3.232  1.00  0.00     0.223 C 
HETATM    2  N   UNL     1      42.583 -13.495   4.578  1.00  0.00    -0.327 N 
HETATM    3  O   UNL     1      43.181 -12.450   2.581  1.00  0.00    -0.273 OA
HETATM    4  H   UNL     1      42.569 -14.407   5.016  1.00  0.00     0.169 HD
ENDROOT
BRANCH   2   5
HETATM    5  C   UNL     1      42.336 -12.397   5.430  1.00  0.00     0.035 A 
HETATM    6  C   UNL     1      43.345 -11.658   6.058  1.00  0.00     0.042 A 
HETATM    7  C   UNL     1      43.046 -10.550   6.872  1.00  0.00    -0.021 A 
HETATM    8  C   UNL     1      41.699 -10.203   7.050  1.00  0.00     0.012 A 
HETATM    9  C   UNL     1      40.685 -10.931   6.426  1.00  0.00     0.003 A 
HETATM   10  C   UNL     1      41.003 -12.021   5.616  1.00  0.00     0.029 A 
BRANCH   7  11
HETATM   11  C   UNL     1      44.124  -9.788   7.495  1.00  0.00     0.010 A 
HETATM   12  C   UNL     1      44.109  -8.535   8.161  1.00  0.00     0.152 A 
HETATM   13  N   UNL     1      45.311  -8.167   8.613  1.00  0.00    -0.187 NA
HETATM   14  N   UNL     1      46.106  -9.178   8.240  1.00  0.00    -0.289 N 
HETATM   15  H   UNL     1      47.091  -9.127   8.477  1.00  0.00     0.188 HD
HETATM   16  C   UNL     1      45.448 -10.171   7.572  1.00  0.00     0.123 A 
ENDBRANCH   7  11
ENDBRANCH   2   5
BRANCH   1  17
HETATM   17  C   UNL     1      42.922 -14.828   2.586  1.00  0.00     0.116 C 
BRANCH  17  18
HETATM   18  C   UNL     1      42.083 -15.847   3.382  1.00  0.00     0.049 C 
BRANCH  18  19
HETATM   19  C   UNL     1      40.623 -15.999   2.988  1.00  0.00    -0.027 C 
HETATM   20  C   UNL     1      40.042 -15.679   1.824  1.00  0.00     0.007 C 
ENDBRANCH  18  19
BRANCH  18  21
HETATM   21  C   UNL     1      42.781 -17.204   3.362  1.00  0.00    -0.050 A 
HETATM   22  C   UNL     1      42.656 -18.068   2.261  1.00  0.00     0.008 A 
HETATM   23  C   UNL     1      43.300 -19.306   2.252  1.00  0.00     0.001 A 
HETATM   24  C   UNL     1      44.080 -19.694   3.339  1.00  0.00     0.000 A 
HETATM   25  C   UNL     1      44.216 -18.847   4.437  1.00  0.00     0.001 A 
HETATM   26  C   UNL     1      43.570 -17.609   4.450  1.00  0.00     0.008 A 
ENDBRANCH  18  21
ENDBRANCH  17  18
ENDBRANCH   1  17
TORSDOF 6
ENDMDL
