MODEL 1
REMARK VINA RESULT:      -7.2      0.000      0.000
REMARK  11 active torsions:
REMARK  status: ('A' for Active; 'I' for Inactive)
REMARK    1  A    between atoms: C_2  and  O_3 
REMARK    2  A    between atoms: O_3  and  C_4 
REMARK    3  A    between atoms: C_5  and  C_6 
REMARK       I    between atoms: C_6  and  N_7 
REMARK    4  A    between atoms: N_7  and  C_8 
REMARK    5  A    between atoms: C_8  and  N_9 
REMARK    6  A    between atoms: N_9  and  C_10 
REMARK    7  A    between atoms: C_11  and  C_12 
REMARK       I    between atoms: C_12  and  N_13 
REMARK    8  A    between atoms: N_13  and  C_14 
REMARK    9  A    between atoms: C_14  and  C_15 
REMARK   10  A    between atoms: C_15  and  C_16 
REMARK   11  A    between atoms: C_16  and  O_17 
ROOT
HETATM    1  N   UNL     1      42.053 -12.640   2.541  1.00  0.00    -0.332 N 
HETATM    2  H   UNL     1      42.750 -11.926   2.312  1.00  0.00     0.168 HD
ENDROOT
BRANCH   1   3
HETATM    3  C   UNL     1      41.784 -13.536   1.540  1.00  0.00     0.179 C 
HETATM    4  S   UNL     1      40.850 -13.251   0.182  1.00  0.00    -0.040 SA
BRANCH   3   5
HETATM    5  N   UNL     1      42.319 -14.794   1.695  1.00  0.00    -0.299 N 
HETATM    6  C   UNL     1      41.709 -15.896   2.291  1.00  0.00     0.260 C 
HETATM    7  O   UNL     1      40.496 -16.074   2.273  1.00  0.00    -0.267 OA
HETATM    8  H   UNL     1      43.323 -14.810   1.588  1.00  0.00     0.171 HD
BRANCH   6   9
HETATM    9  C   UNL     1      42.651 -16.872   2.928  1.00  0.00     0.065 A 
HETATM   10  C   UNL     1      43.369 -16.558   4.090  1.00  0.00     0.084 A 
HETATM   11  C   UNL     1      44.217 -17.505   4.676  1.00  0.00     0.038 A 
HETATM   12  C   UNL     1      44.402 -18.752   4.080  1.00  0.00     0.003 A 
HETATM   13  C   UNL     1      43.737 -19.057   2.896  1.00  0.00     0.001 A 
HETATM   14  C   UNL     1      42.870 -18.123   2.320  1.00  0.00     0.020 A 
BRANCH  10  15
HETATM   15  O   UNL     1      43.222 -15.359   4.735  1.00  0.00    -0.350 OA
BRANCH  15  16
HETATM   16  C   UNL     1      42.882 -15.559   6.116  1.00  0.00     0.171 C 
HETATM   17  C   UNL     1      41.370 -15.528   6.260  1.00  0.00     0.034 C 
ENDBRANCH  15  16
ENDBRANCH  10  15
ENDBRANCH   6   9
ENDBRANCH   3   5
ENDBRANCH   1   3
BRANCH   1  18
HETATM   18  C   UNL     1      41.431 -12.506   3.805  1.00  0.00     0.050 A 
HETATM   19  C   UNL     1      42.114 -11.914   4.882  1.00  0.00     0.058 A 
HETATM   20  C   UNL     1      41.438 -11.607   6.072  1.00  0.00     0.019 A 
HETATM   21  C   UNL     1      40.085 -11.908   6.206  1.00  0.00     0.001 A 
HETATM   22  C   UNL     1      39.408 -12.527   5.158  1.00  0.00     0.002 A 
HETATM   23  C   UNL     1      40.073 -12.819   3.965  1.00  0.00     0.030 A 
BRANCH  19  24
HETATM   24  C   UNL     1      43.591 -11.739   4.906  1.00  0.00     0.253 C 
HETATM   25  N   UNL     1      44.188 -11.997   6.125  1.00  0.00    -0.357 N 
HETATM   26  H   UNL     1      43.591 -12.266   6.898  1.00  0.00     0.162 HD
HETATM   27  O   UNL     1      44.181 -11.292   3.931  1.00  0.00    -0.268 OA
BRANCH  25  28
HETATM   28  C   UNL     1      45.532 -11.549   6.422  1.00  0.00     0.125 C 
BRANCH  28  29
HETATM   29  C   UNL     1      45.624 -10.697   7.678  1.00  0.00     0.046 C 
BRANCH  29  30
HETATM   30  C   UNL     1      44.261 -10.443   8.304  1.00  0.00     0.165 C 
BRANCH  30  31
HETATM   31  O   UNL     1      43.855 -11.581   9.055  1.00  0.00    -0.401 OA
HETATM   32  H   UNL     1      44.649 -11.933   9.495  1.00  0.00     0.209 HD
ENDBRANCH  30  31
ENDBRANCH  29  30
ENDBRANCH  28  29
ENDBRANCH  25  28
ENDBRANCH  19  24
ENDBRANCH   1  18
TORSDOF 11
ENDMDL
MODEL 2
REMARK VINA RESULT:      -7.0      1.916      2.250
REMARK  11 active torsions:
REMARK  status: ('A' for Active; 'I' for Inactive)
REMARK    1  A    between atoms: C_2  and  O_3 
REMARK    2  A    between atoms: O_3  and  C_4 
REMARK    3  A    between atoms: C_5  and  C_6 
REMARK       I    between atoms: C_6  and  N_7 
REMARK    4  A    between atoms: N_7  and  C_8 
REMARK    5  A    between atoms: C_8  and  N_9 
REMARK    6  A    between atoms: N_9  and  C_10 
REMARK    7  A    between atoms: C_11  and  C_12 
REMARK       I    between atoms: C_12  and  N_13 
REMARK    8  A    between atoms: N_13  and  C_14 
REMARK    9  A    between atoms: C_14  and  C_15 
REMARK   10  A    between atoms: C_15  and  C_16 
REMARK   11  A    between atoms: C_16  and  O_17 
ROOT
HETATM    1  N   UNL     1      40.301 -14.538   4.065  1.00  0.00    -0.332 N 
HETATM    2  H   UNL     1      40.057 -14.892   4.994  1.00  0.00     0.168 HD
ENDROOT
BRANCH   1   3
HETATM    3  C   UNL     1      40.662 -15.493   3.151  1.00  0.00     0.179 C 
HETATM    4  S   UNL     1      40.022 -15.687   1.617  1.00  0.00    -0.040 SA
BRANCH   3   5
HETATM    5  N   UNL     1      41.624 -16.387   3.558  1.00  0.00    -0.299 N 
HETATM    6  C   UNL     1      42.761 -16.774   2.851  1.00  0.00     0.260 C 
HETATM    7  O   UNL     1      43.340 -16.031   2.067  1.00  0.00    -0.267 OA
HETATM    8  H   UNL     1      41.315 -16.979   4.316  1.00  0.00     0.171 HD
BRANCH   6   9
HETATM    9  C   UNL     1      43.249 -18.160   3.149  1.00  0.00     0.065 A 
HETATM   10  C   UNL     1      43.903 -18.473   4.347  1.00  0.00     0.084 A 
HETATM   11  C   UNL     1      44.318 -19.786   4.605  1.00  0.00     0.038 A 
HETATM   12  C   UNL     1      44.135 -20.784   3.651  1.00  0.00     0.003 A 
HETATM   13  C   UNL     1      43.535 -20.475   2.434  1.00  0.00     0.001 A 
HETATM   14  C   UNL     1      43.098 -19.172   2.181  1.00  0.00     0.020 A 
BRANCH  10  15
HETATM   15  O   UNL     1      44.100 -17.545   5.334  1.00  0.00    -0.350 OA
BRANCH  15  16
HETATM   16  C   UNL     1      43.320 -17.860   6.497  1.00  0.00     0.171 C 
HETATM   17  C   UNL     1      42.732 -16.576   7.058  1.00  0.00     0.034 C 
ENDBRANCH  15  16
ENDBRANCH  10  15
ENDBRANCH   6   9
ENDBRANCH   3   5
ENDBRANCH   1   3
BRANCH   1  18
HETATM   18  C   UNL     1      40.312 -13.130   3.929  1.00  0.00     0.050 A 
HETATM   19  C   UNL     1      41.457 -12.385   4.267  1.00  0.00     0.058 A 
HETATM   20  C   UNL     1      41.537 -11.021   3.951  1.00  0.00     0.019 A 
HETATM   21  C   UNL     1      40.471 -10.383   3.322  1.00  0.00     0.001 A 
HETATM   22  C   UNL     1      39.319 -11.104   3.016  1.00  0.00     0.002 A 
HETATM   23  C   UNL     1      39.241 -12.467   3.311  1.00  0.00     0.030 A 
BRANCH  19  24
HETATM   24  C   UNL     1      42.555 -12.927   5.111  1.00  0.00     0.253 C 
HETATM   25  N   UNL     1      42.875 -12.158   6.213  1.00  0.00    -0.357 N 
HETATM   26  H   UNL     1      42.361 -11.296   6.355  1.00  0.00     0.162 HD
HETATM   27  O   UNL     1      43.177 -13.921   4.761  1.00  0.00    -0.268 OA
BRANCH  25  28
HETATM   28  C   UNL     1      44.119 -12.340   6.930  1.00  0.00     0.125 C 
BRANCH  28  29
HETATM   29  C   UNL     1      45.261 -11.494   6.389  1.00  0.00     0.046 C 
BRANCH  29  30
HETATM   30  C   UNL     1      46.032 -10.789   7.494  1.00  0.00     0.165 C 
BRANCH  30  31
HETATM   31  O   UNL     1      47.408 -10.706   7.145  1.00  0.00    -0.401 OA
HETATM   32  H   UNL     1      47.495  -9.999   6.481  1.00  0.00     0.209 HD
ENDBRANCH  30  31
ENDBRANCH  29  30
ENDBRANCH  28  29
ENDBRANCH  25  28
ENDBRANCH  19  24
ENDBRANCH   1  18
TORSDOF 11
ENDMDL
MODEL 3
REMARK VINA RESULT:      -6.9      2.958      5.391
REMARK  11 active torsions:
REMARK  status: ('A' for Active; 'I' for Inactive)
REMARK    1  A    between atoms: C_2  and  O_3 
REMARK    2  A    between atoms: O_3  and  C_4 
REMARK    3  A    between atoms: C_5  and  C_6 
REMARK       I    between atoms: C_6  and  N_7 
REMARK    4  A    between atoms: N_7  and  C_8 
REMARK    5  A    between atoms: C_8  and  N_9 
REMARK    6  A    between atoms: N_9  and  C_10 
REMARK    7  A    between atoms: C_11  and  C_12 
REMARK       I    between atoms: C_12  and  N_13 
REMARK    8  A    between atoms: N_13  and  C_14 
REMARK    9  A    between atoms: C_14  and  C_15 
REMARK   10  A    between atoms: C_15  and  C_16 
REMARK   11  A    between atoms: C_16  and  O_17 
ROOT
HETATM    1  N   UNL     1      40.552 -13.363   3.622  1.00  0.00    -0.332 N 
HETATM    2  H   UNL     1      39.970 -14.154   3.914  1.00  0.00     0.168 HD
ENDROOT
BRANCH   1   3
HETATM    3  C   UNL     1      41.897 -13.517   3.836  1.00  0.00     0.179 C 
HETATM    4  S   UNL     1      42.912 -12.413   4.578  1.00  0.00    -0.040 SA
BRANCH   3   5
HETATM    5  N   UNL     1      42.455 -14.684   3.368  1.00  0.00    -0.299 N 
HETATM    6  C   UNL     1      41.793 -15.879   3.095  1.00  0.00     0.260 C 
HETATM    7  O   UNL     1      40.627 -15.921   2.720  1.00  0.00    -0.267 OA
HETATM    8  H   UNL     1      43.457 -14.716   3.491  1.00  0.00     0.171 HD
BRANCH   6   9
HETATM    9  C   UNL     1      42.626 -17.114   3.259  1.00  0.00     0.065 A 
HETATM   10  C   UNL     1      43.459 -17.304   4.370  1.00  0.00     0.084 A 
HETATM   11  C   UNL     1      44.200 -18.484   4.506  1.00  0.00     0.038 A 
HETATM   12  C   UNL     1      44.161 -19.461   3.512  1.00  0.00     0.003 A 
HETATM   13  C   UNL     1      43.379 -19.262   2.378  1.00  0.00     0.001 A 
HETATM   14  C   UNL     1      42.620 -18.095   2.248  1.00  0.00     0.020 A 
BRANCH  10  15
HETATM   15  O   UNL     1      43.531 -16.394   5.389  1.00  0.00    -0.350 OA
BRANCH  15  16
HETATM   16  C   UNL     1      42.856 -16.880   6.560  1.00  0.00     0.171 C 
HETATM   17  C   UNL     1      41.676 -15.973   6.860  1.00  0.00     0.034 C 
ENDBRANCH  15  16
ENDBRANCH  10  15
ENDBRANCH   6   9
ENDBRANCH   3   5
ENDBRANCH   1   3
BRANCH   1  18
HETATM   18  C   UNL     1      39.853 -12.230   3.144  1.00  0.00     0.050 A 
HETATM   19  C   UNL     1      39.475 -12.138   1.792  1.00  0.00     0.058 A 
HETATM   20  C   UNL     1      38.618 -11.114   1.361  1.00  0.00     0.019 A 
HETATM   21  C   UNL     1      38.153 -10.163   2.266  1.00  0.00     0.001 A 
HETATM   22  C   UNL     1      38.550 -10.226   3.599  1.00  0.00     0.002 A 
HETATM   23  C   UNL     1      39.389 -11.253   4.037  1.00  0.00     0.030 A 
BRANCH  19  24
HETATM   24  C   UNL     1      40.075 -12.981   0.724  1.00  0.00     0.253 C 
HETATM   25  N   UNL     1      39.173 -13.491  -0.190  1.00  0.00    -0.357 N 
HETATM   26  H   UNL     1      38.192 -13.270  -0.062  1.00  0.00     0.162 HD
HETATM   27  O   UNL     1      41.263 -13.270   0.753  1.00  0.00    -0.268 OA
BRANCH  25  28
HETATM   28  C   UNL     1      39.518 -14.591  -1.066  1.00  0.00     0.125 C 
BRANCH  28  29
HETATM   29  C   UNL     1      39.563 -14.204  -2.536  1.00  0.00     0.046 C 
BRANCH  29  30
HETATM   30  C   UNL     1      40.481 -13.018  -2.793  1.00  0.00     0.165 C 
BRANCH  30  31
HETATM   31  O   UNL     1      41.647 -13.451  -3.482  1.00  0.00    -0.401 OA
HETATM   32  H   UNL     1      41.493 -14.371  -3.759  1.00  0.00     0.209 HD
ENDBRANCH  30  31
ENDBRANCH  29  30
ENDBRANCH  28  29
ENDBRANCH  25  28
ENDBRANCH  19  24
ENDBRANCH   1  18
TORSDOF 11
ENDMDL
MODEL 4
REMARK VINA RESULT:      -6.8      2.067      6.801
REMARK  11 active torsions:
REMARK  status: ('A' for Active; 'I' for Inactive)
REMARK    1  A    between atoms: C_2  and  O_3 
REMARK    2  A    between atoms: O_3  and  C_4 
REMARK    3  A    between atoms: C_5  and  C_6 
REMARK       I    between atoms: C_6  and  N_7 
REMARK    4  A    between atoms: N_7  and  C_8 
REMARK    5  A    between atoms: C_8  and  N_9 
REMARK    6  A    between atoms: N_9  and  C_10 
REMARK    7  A    between atoms: C_11  and  C_12 
REMARK       I    between atoms: C_12  and  N_13 
REMARK    8  A    between atoms: N_13  and  C_14 
REMARK    9  A    between atoms: C_14  and  C_15 
REMARK   10  A    between atoms: C_15  and  C_16 
REMARK   11  A    between atoms: C_16  and  O_17 
ROOT
HETATM    1  N   UNL     1      43.184 -15.313   4.690  1.00  0.00    -0.332 N 
HETATM    2  H   UNL     1      43.820 -14.610   4.302  1.00  0.00     0.168 HD
ENDROOT
BRANCH   1   3
HETATM    3  C   UNL     1      42.418 -14.888   5.744  1.00  0.00     0.179 C 
HETATM    4  S   UNL     1      41.226 -15.770   6.519  1.00  0.00    -0.040 SA
BRANCH   3   5
HETATM    5  N   UNL     1      42.643 -13.602   6.177  1.00  0.00    -0.299 N 
HETATM    6  C   UNL     1      43.380 -12.615   5.525  1.00  0.00     0.260 C 
HETATM    7  O   UNL     1      43.469 -12.552   4.304  1.00  0.00    -0.267 OA
HETATM    8  H   UNL     1      42.463 -13.483   7.164  1.00  0.00     0.171 HD
BRANCH   6   9
HETATM    9  C   UNL     1      44.028 -11.610   6.428  1.00  0.00     0.065 A 
HETATM   10  C   UNL     1      43.295 -10.588   7.045  1.00  0.00     0.084 A 
HETATM   11  C   UNL     1      43.928  -9.684   7.907  1.00  0.00     0.038 A 
HETATM   12  C   UNL     1      45.304  -9.757   8.119  1.00  0.00     0.003 A 
HETATM   13  C   UNL     1      46.053 -10.734   7.471  1.00  0.00     0.001 A 
HETATM   14  C   UNL     1      45.422 -11.653   6.627  1.00  0.00     0.020 A 
BRANCH  10  15
HETATM   15  O   UNL     1      41.940 -10.470   6.893  1.00  0.00    -0.350 OA
BRANCH  15  16
HETATM   16  C   UNL     1      41.603  -9.234   6.244  1.00  0.00     0.171 C 
HETATM   17  C   UNL     1      41.528  -9.470   4.745  1.00  0.00     0.034 C 
ENDBRANCH  15  16
ENDBRANCH  10  15
ENDBRANCH   6   9
ENDBRANCH   3   5
ENDBRANCH   1   3
BRANCH   1  18
HETATM   18  C   UNL     1      43.286 -16.608   4.132  1.00  0.00     0.050 A 
HETATM   19  C   UNL     1      42.654 -16.916   2.913  1.00  0.00     0.058 A 
HETATM   20  C   UNL     1      42.913 -18.133   2.265  1.00  0.00     0.019 A 
HETATM   21  C   UNL     1      43.781 -19.060   2.836  1.00  0.00     0.001 A 
HETATM   22  C   UNL     1      44.384 -18.779   4.060  1.00  0.00     0.002 A 
HETATM   23  C   UNL     1      44.143 -17.562   4.701  1.00  0.00     0.030 A 
BRANCH  19  24
HETATM   24  C   UNL     1      41.569 -16.083   2.331  1.00  0.00     0.253 C 
HETATM   25  N   UNL     1      41.925 -15.368   1.204  1.00  0.00    -0.357 N 
HETATM   26  H   UNL     1      42.880 -15.450   0.872  1.00  0.00     0.162 HD
HETATM   27  O   UNL     1      40.491 -15.979   2.900  1.00  0.00    -0.268 OA
BRANCH  25  28
HETATM   28  C   UNL     1      41.126 -14.261   0.723  1.00  0.00     0.125 C 
BRANCH  28  29
HETATM   29  C   UNL     1      41.456 -12.937   1.395  1.00  0.00     0.046 C 
BRANCH  29  30
HETATM   30  C   UNL     1      40.347 -12.469   2.324  1.00  0.00     0.165 C 
BRANCH  30  31
HETATM   31  O   UNL     1      40.564 -12.985   3.632  1.00  0.00    -0.401 OA
HETATM   32  H   UNL     1      39.694 -13.050   4.064  1.00  0.00     0.209 HD
ENDBRANCH  30  31
ENDBRANCH  29  30
ENDBRANCH  28  29
ENDBRANCH  25  28
ENDBRANCH  19  24
ENDBRANCH   1  18
TORSDOF 11
ENDMDL
MODEL 5
REMARK VINA RESULT:      -6.7      2.457      6.889
REMARK  11 active torsions:
REMARK  status: ('A' for Active; 'I' for Inactive)
REMARK    1  A    between atoms: C_2  and  O_3 
REMARK    2  A    between atoms: O_3  and  C_4 
REMARK    3  A    between atoms: C_5  and  C_6 
REMARK       I    between atoms: C_6  and  N_7 
REMARK    4  A    between atoms: N_7  and  C_8 
REMARK    5  A    between atoms: C_8  and  N_9 
REMARK    6  A    between atoms: N_9  and  C_10 
REMARK    7  A    between atoms: C_11  and  C_12 
REMARK       I    between atoms: C_12  and  N_13 
REMARK    8  A    between atoms: N_13  and  C_14 
REMARK    9  A    between atoms: C_14  and  C_15 
REMARK   10  A    between atoms: C_15  and  C_16 
REMARK   11  A    between atoms: C_16  and  O_17 
ROOT
HETATM    1  N   UNL     1      43.839 -15.970   5.216  1.00  0.00    -0.332 N 
HETATM    2  H   UNL     1      44.489 -15.269   4.848  1.00  0.00     0.168 HD
ENDROOT
BRANCH   1   3
HETATM    3  C   UNL     1      43.369 -15.724   6.479  1.00  0.00     0.179 C 
HETATM    4  S   UNL     1      43.642 -16.662   7.837  1.00  0.00    -0.040 SA
BRANCH   3   5
HETATM    5  N   UNL     1      42.575 -14.610   6.623  1.00  0.00    -0.299 N 
HETATM    6  C   UNL     1      41.367 -14.353   5.978  1.00  0.00     0.260 C 
HETATM    7  O   UNL     1      40.596 -15.241   5.634  1.00  0.00    -0.267 OA
HETATM    8  H   UNL     1      43.065 -13.830   7.038  1.00  0.00     0.171 HD
BRANCH   6   9
HETATM    9  C   UNL     1      41.061 -12.901   5.765  1.00  0.00     0.065 A 
HETATM   10  C   UNL     1      42.023 -12.005   5.280  1.00  0.00     0.084 A 
HETATM   11  C   UNL     1      41.693 -10.661   5.064  1.00  0.00     0.038 A 
HETATM   12  C   UNL     1      40.422 -10.186   5.381  1.00  0.00     0.003 A 
HETATM   13  C   UNL     1      39.474 -11.054   5.914  1.00  0.00     0.001 A 
HETATM   14  C   UNL     1      39.790 -12.401   6.110  1.00  0.00     0.020 A 
BRANCH  10  15
HETATM   15  O   UNL     1      43.284 -12.407   4.933  1.00  0.00    -0.350 OA
BRANCH  15  16
HETATM   16  C   UNL     1      44.266 -11.461   5.383  1.00  0.00     0.171 C 
HETATM   17  C   UNL     1      44.929 -12.000   6.639  1.00  0.00     0.034 C 
ENDBRANCH  15  16
ENDBRANCH  10  15
ENDBRANCH   6   9
ENDBRANCH   3   5
ENDBRANCH   1   3
BRANCH   1  18
HETATM   18  C   UNL     1      43.629 -17.102   4.395  1.00  0.00     0.050 A 
HETATM   19  C   UNL     1      42.973 -16.979   3.157  1.00  0.00     0.058 A 
HETATM   20  C   UNL     1      42.936 -18.057   2.260  1.00  0.00     0.019 A 
HETATM   21  C   UNL     1      43.529 -19.271   2.599  1.00  0.00     0.001 A 
HETATM   22  C   UNL     1      44.150 -19.413   3.838  1.00  0.00     0.002 A 
HETATM   23  C   UNL     1      44.205 -18.337   4.727  1.00  0.00     0.030 A 
BRANCH  19  24
HETATM   24  C   UNL     1      42.146 -15.797   2.793  1.00  0.00     0.253 C 
HETATM   25  N   UNL     1      40.793 -16.048   2.675  1.00  0.00    -0.357 N 
HETATM   26  H   UNL     1      40.471 -16.997   2.828  1.00  0.00     0.162 HD
HETATM   27  O   UNL     1      42.675 -14.729   2.518  1.00  0.00    -0.268 OA
BRANCH  25  28
HETATM   28  C   UNL     1      39.905 -15.125   2.001  1.00  0.00     0.125 C 
BRANCH  28  29
HETATM   29  C   UNL     1      39.941 -15.247   0.485  1.00  0.00     0.046 C 
BRANCH  29  30
HETATM   30  C   UNL     1      40.195 -13.911  -0.196  1.00  0.00     0.165 C 
BRANCH  30  31
HETATM   31  O   UNL     1      41.486 -13.428   0.155  1.00  0.00    -0.401 OA
HETATM   32  H   UNL     1      41.999 -13.354  -0.668  1.00  0.00     0.209 HD
ENDBRANCH  30  31
ENDBRANCH  29  30
ENDBRANCH  28  29
ENDBRANCH  25  28
ENDBRANCH  19  24
ENDBRANCH   1  18
TORSDOF 11
ENDMDL
MODEL 6
REMARK VINA RESULT:      -6.7      1.956      3.766
REMARK  11 active torsions:
REMARK  status: ('A' for Active; 'I' for Inactive)
REMARK    1  A    between atoms: C_2  and  O_3 
REMARK    2  A    between atoms: O_3  and  C_4 
REMARK    3  A    between atoms: C_5  and  C_6 
REMARK       I    between atoms: C_6  and  N_7 
REMARK    4  A    between atoms: N_7  and  C_8 
REMARK    5  A    between atoms: C_8  and  N_9 
REMARK    6  A    between atoms: N_9  and  C_10 
REMARK    7  A    between atoms: C_11  and  C_12 
REMARK       I    between atoms: C_12  and  N_13 
REMARK    8  A    between atoms: N_13  and  C_14 
REMARK    9  A    between atoms: C_14  and  C_15 
REMARK   10  A    between atoms: C_15  and  C_16 
REMARK   11  A    between atoms: C_16  and  O_17 
ROOT
HETATM    1  N   UNL     1      42.814 -12.314   5.494  1.00  0.00    -0.332 N 
HETATM    2  H   UNL     1      42.223 -12.979   6.000  1.00  0.00     0.168 HD
ENDROOT
BRANCH   1   3
HETATM    3  C   UNL     1      42.739 -12.386   4.128  1.00  0.00     0.179 C 
HETATM    4  S   UNL     1      42.453 -11.110   3.085  1.00  0.00    -0.040 SA
BRANCH   3   5
HETATM    5  N   UNL     1      42.889 -13.638   3.579  1.00  0.00    -0.299 N 
HETATM    6  C   UNL     1      42.031 -14.726   3.728  1.00  0.00     0.260 C 
HETATM    7  O   UNL     1      40.823 -14.601   3.892  1.00  0.00    -0.267 OA
HETATM    8  H   UNL     1      43.832 -13.819   3.264  1.00  0.00     0.171 HD
BRANCH   6   9
HETATM    9  C   UNL     1      42.692 -16.068   3.636  1.00  0.00     0.065 A 
HETATM   10  C   UNL     1      43.580 -16.525   4.619  1.00  0.00     0.084 A 
HETATM   11  C   UNL     1      44.155 -17.798   4.517  1.00  0.00     0.038 A 
HETATM   12  C   UNL     1      43.895 -18.603   3.410  1.00  0.00     0.003 A 
HETATM   13  C   UNL     1      43.057 -18.140   2.400  1.00  0.00     0.001 A 
HETATM   14  C   UNL     1      42.462 -16.880   2.508  1.00  0.00     0.020 A 
BRANCH  10  15
HETATM   15  O   UNL     1      43.866 -15.792   5.739  1.00  0.00    -0.350 OA
BRANCH  15  16
HETATM   16  C   UNL     1      43.433 -16.478   6.924  1.00  0.00     0.171 C 
HETATM   17  C   UNL     1      42.988 -15.452   7.952  1.00  0.00     0.034 C 
ENDBRANCH  15  16
ENDBRANCH  10  15
ENDBRANCH   6   9
ENDBRANCH   3   5
ENDBRANCH   1   3
BRANCH   1  18
HETATM   18  C   UNL     1      43.665 -11.517   6.297  1.00  0.00     0.050 A 
HETATM   19  C   UNL     1      43.163 -10.394   6.979  1.00  0.00     0.058 A 
HETATM   20  C   UNL     1      43.954  -9.722   7.922  1.00  0.00     0.019 A 
HETATM   21  C   UNL     1      45.256 -10.146   8.174  1.00  0.00     0.001 A 
HETATM   22  C   UNL     1      45.774 -11.235   7.477  1.00  0.00     0.002 A 
HETATM   23  C   UNL     1      44.984 -11.919   6.550  1.00  0.00     0.030 A 
BRANCH  19  24
HETATM   24  C   UNL     1      41.866  -9.751   6.636  1.00  0.00     0.253 C 
HETATM   25  N   UNL     1      40.778 -10.220   7.346  1.00  0.00    -0.357 N 
HETATM   26  H   UNL     1      40.936 -10.959   8.023  1.00  0.00     0.162 HD
HETATM   27  O   UNL     1      41.792  -8.953   5.712  1.00  0.00    -0.268 OA
BRANCH  25  28
HETATM   28  C   UNL     1      39.421  -9.970   6.910  1.00  0.00     0.125 C 
BRANCH  28  29
HETATM   29  C   UNL     1      38.609 -11.239   6.695  1.00  0.00     0.046 C 
BRANCH  29  30
HETATM   30  C   UNL     1      39.301 -12.214   5.755  1.00  0.00     0.165 C 
BRANCH  30  31
HETATM   31  O   UNL     1      40.044 -13.165   6.508  1.00  0.00    -0.401 OA
HETATM   32  H   UNL     1      39.960 -12.919   7.446  1.00  0.00     0.209 HD
ENDBRANCH  30  31
ENDBRANCH  29  30
ENDBRANCH  28  29
ENDBRANCH  25  28
ENDBRANCH  19  24
ENDBRANCH   1  18
TORSDOF 11
ENDMDL
MODEL 7
REMARK VINA RESULT:      -6.7      3.059      4.790
REMARK  11 active torsions:
REMARK  status: ('A' for Active; 'I' for Inactive)
REMARK    1  A    between atoms: C_2  and  O_3 
REMARK    2  A    between atoms: O_3  and  C_4 
REMARK    3  A    between atoms: C_5  and  C_6 
REMARK       I    between atoms: C_6  and  N_7 
REMARK    4  A    between atoms: N_7  and  C_8 
REMARK    5  A    between atoms: C_8  and  N_9 
REMARK    6  A    between atoms: N_9  and  C_10 
REMARK    7  A    between atoms: C_11  and  C_12 
REMARK       I    between atoms: C_12  and  N_13 
REMARK    8  A    between atoms: N_13  and  C_14 
REMARK    9  A    between atoms: C_14  and  C_15 
REMARK   10  A    between atoms: C_15  and  C_16 
REMARK   11  A    between atoms: C_16  and  O_17 
ROOT
HETATM    1  N   UNL     1      42.149 -11.352   7.080  1.00  0.00    -0.332 N 
HETATM    2  H   UNL     1      41.752 -11.939   7.820  1.00  0.00     0.168 HD
ENDROOT
BRANCH   1   3
HETATM    3  C   UNL     1      41.338 -11.152   5.994  1.00  0.00     0.179 C 
HETATM    4  S   UNL     1      40.474  -9.762   5.649  1.00  0.00    -0.040 SA
BRANCH   3   5
HETATM    5  N   UNL     1      41.211 -12.214   5.130  1.00  0.00    -0.299 N 
HETATM    6  C   UNL     1      40.739 -13.490   5.433  1.00  0.00     0.260 C 
HETATM    7  O   UNL     1      39.904 -13.699   6.306  1.00  0.00    -0.267 OA
HETATM    8  H   UNL     1      41.751 -12.098   4.284  1.00  0.00     0.171 HD
BRANCH   6   9
HETATM    9  C   UNL     1      41.303 -14.590   4.586  1.00  0.00     0.065 A 
HETATM   10  C   UNL     1      42.616 -15.051   4.748  1.00  0.00     0.084 A 
HETATM   11  C   UNL     1      43.099 -16.103   3.960  1.00  0.00     0.038 A 
HETATM   12  C   UNL     1      42.301 -16.665   2.966  1.00  0.00     0.003 A 
HETATM   13  C   UNL     1      41.013 -16.180   2.757  1.00  0.00     0.001 A 
HETATM   14  C   UNL     1      40.517 -15.147   3.558  1.00  0.00     0.020 A 
BRANCH  10  15
HETATM   15  O   UNL     1      43.447 -14.555   5.716  1.00  0.00    -0.350 OA
BRANCH  15  16
HETATM   16  C   UNL     1      43.859 -15.593   6.619  1.00  0.00     0.171 C 
HETATM   17  C   UNL     1      42.868 -15.667   7.768  1.00  0.00     0.034 C 
ENDBRANCH  15  16
ENDBRANCH  10  15
ENDBRANCH   6   9
ENDBRANCH   3   5
ENDBRANCH   1   3
BRANCH   1  18
HETATM   18  C   UNL     1      43.489 -10.942   7.276  1.00  0.00     0.050 A 
HETATM   19  C   UNL     1      43.839 -10.131   8.370  1.00  0.00     0.058 A 
HETATM   20  C   UNL     1      45.187  -9.887   8.673  1.00  0.00     0.019 A 
HETATM   21  C   UNL     1      46.193 -10.425   7.875  1.00  0.00     0.001 A 
HETATM   22  C   UNL     1      45.855 -11.201   6.768  1.00  0.00     0.002 A 
HETATM   23  C   UNL     1      44.515 -11.462   6.473  1.00  0.00     0.030 A 
BRANCH  19  24
HETATM   24  C   UNL     1      42.842  -9.355   9.155  1.00  0.00     0.253 C 
HETATM   25  N   UNL     1      42.350 -10.001  10.272  1.00  0.00    -0.357 N 
HETATM   26  H   UNL     1      42.686 -10.938  10.464  1.00  0.00     0.162 HD
HETATM   27  O   UNL     1      42.431  -8.278   8.746  1.00  0.00    -0.268 OA
BRANCH  25  28
HETATM   28  C   UNL     1      41.144  -9.557  10.938  1.00  0.00     0.125 C 
BRANCH  28  29
HETATM   29  C   UNL     1      41.043 -10.020  12.383  1.00  0.00     0.046 C 
BRANCH  29  30
HETATM   30  C   UNL     1      39.606 -10.284  12.806  1.00  0.00     0.165 C 
BRANCH  30  31
HETATM   31  O   UNL     1      39.504 -11.576  13.392  1.00  0.00    -0.401 OA
HETATM   32  H   UNL     1      40.202 -11.641  14.067  1.00  0.00     0.209 HD
ENDBRANCH  30  31
ENDBRANCH  29  30
ENDBRANCH  28  29
ENDBRANCH  25  28
ENDBRANCH  19  24
ENDBRANCH   1  18
TORSDOF 11
ENDMDL
MODEL 8
REMARK VINA RESULT:      -6.7      3.304      5.890
REMARK  11 active torsions:
REMARK  status: ('A' for Active; 'I' for Inactive)
REMARK    1  A    between atoms: C_2  and  O_3 
REMARK    2  A    between atoms: O_3  and  C_4 
REMARK    3  A    between atoms: C_5  and  C_6 
REMARK       I    between atoms: C_6  and  N_7 
REMARK    4  A    between atoms: N_7  and  C_8 
REMARK    5  A    between atoms: C_8  and  N_9 
REMARK    6  A    between atoms: N_9  and  C_10 
REMARK    7  A    between atoms: C_11  and  C_12 
REMARK       I    between atoms: C_12  and  N_13 
REMARK    8  A    between atoms: N_13  and  C_14 
REMARK    9  A    between atoms: C_14  and  C_15 
REMARK   10  A    between atoms: C_15  and  C_16 
REMARK   11  A    between atoms: C_16  and  O_17 
ROOT
HETATM    1  N   UNL     1      40.294 -15.456   3.490  1.00  0.00    -0.332 N 
HETATM    2  H   UNL     1      39.541 -15.857   4.055  1.00  0.00     0.168 HD
ENDROOT
BRANCH   1   3
HETATM    3  C   UNL     1      39.944 -14.363   2.741  1.00  0.00     0.179 C 
HETATM    4  S   UNL     1      39.979 -12.768   3.242  1.00  0.00    -0.040 SA
BRANCH   3   5
HETATM    5  N   UNL     1      39.498 -14.621   1.465  1.00  0.00    -0.299 N 
HETATM    6  C   UNL     1      40.217 -14.475   0.281  1.00  0.00     0.260 C 
HETATM    7  O   UNL     1      41.433 -14.620   0.220  1.00  0.00    -0.267 OA
HETATM    8  H   UNL     1      38.491 -14.671   1.404  1.00  0.00     0.171 HD
BRANCH   6   9
HETATM    9  C   UNL     1      39.387 -14.161  -0.927  1.00  0.00     0.065 A 
HETATM   10  C   UNL     1      38.750 -12.923  -1.086  1.00  0.00     0.084 A 
HETATM   11  C   UNL     1      38.007 -12.652  -2.243  1.00  0.00     0.038 A 
HETATM   12  C   UNL     1      37.847 -13.630  -3.223  1.00  0.00     0.003 A 
HETATM   13  C   UNL     1      38.429 -14.882  -3.052  1.00  0.00     0.001 A 
HETATM   14  C   UNL     1      39.191 -15.149  -1.911  1.00  0.00     0.020 A 
BRANCH  10  15
HETATM   15  O   UNL     1      38.880 -11.914  -0.171  1.00  0.00    -0.350 OA
BRANCH  15  16
HETATM   16  C   UNL     1      37.697 -11.101  -0.132  1.00  0.00     0.171 C 
HETATM   17  C   UNL     1      37.023 -11.277   1.218  1.00  0.00     0.034 C 
ENDBRANCH  15  16
ENDBRANCH  10  15
ENDBRANCH   6   9
ENDBRANCH   3   5
ENDBRANCH   1   3
BRANCH   1  18
HETATM   18  C   UNL     1      41.521 -16.159   3.515  1.00  0.00     0.050 A 
HETATM   19  C   UNL     1      42.379 -16.066   4.626  1.00  0.00     0.058 A 
HETATM   20  C   UNL     1      43.495 -16.908   4.737  1.00  0.00     0.019 A 
HETATM   21  C   UNL     1      43.779 -17.830   3.732  1.00  0.00     0.001 A 
HETATM   22  C   UNL     1      42.955 -17.905   2.611  1.00  0.00     0.002 A 
HETATM   23  C   UNL     1      41.833 -17.081   2.505  1.00  0.00     0.030 A 
BRANCH  19  24
HETATM   24  C   UNL     1      42.272 -14.986   5.643  1.00  0.00     0.253 C 
HETATM   25  N   UNL     1      43.445 -14.298   5.888  1.00  0.00    -0.357 N 
HETATM   26  H   UNL     1      44.275 -14.581   5.379  1.00  0.00     0.162 HD
HETATM   27  O   UNL     1      41.236 -14.825   6.274  1.00  0.00    -0.268 OA
BRANCH  25  28
HETATM   28  C   UNL     1      43.611 -13.475   7.067  1.00  0.00     0.125 C 
BRANCH  28  29
HETATM   29  C   UNL     1      43.946 -12.025   6.752  1.00  0.00     0.046 C 
BRANCH  29  30
HETATM   30  C   UNL     1      42.785 -11.295   6.092  1.00  0.00     0.165 C 
BRANCH  30  31
HETATM   31  O   UNL     1      41.553 -11.802   6.588  1.00  0.00    -0.401 OA
HETATM   32  H   UNL     1      41.119 -11.078   7.074  1.00  0.00     0.209 HD
ENDBRANCH  30  31
ENDBRANCH  29  30
ENDBRANCH  28  29
ENDBRANCH  25  28
ENDBRANCH  19  24
ENDBRANCH   1  18
TORSDOF 11
ENDMDL
MODEL 9
REMARK VINA RESULT:      -6.6      3.021      3.976
REMARK  11 active torsions:
REMARK  status: ('A' for Active; 'I' for Inactive)
REMARK    1  A    between atoms: C_2  and  O_3 
REMARK    2  A    between atoms: O_3  and  C_4 
REMARK    3  A    between atoms: C_5  and  C_6 
REMARK       I    between atoms: C_6  and  N_7 
REMARK    4  A    between atoms: N_7  and  C_8 
REMARK    5  A    between atoms: C_8  and  N_9 
REMARK    6  A    between atoms: N_9  and  C_10 
REMARK    7  A    between atoms: C_11  and  C_12 
REMARK       I    between atoms: C_12  and  N_13 
REMARK    8  A    between atoms: N_13  and  C_14 
REMARK    9  A    between atoms: C_14  and  C_15 
REMARK   10  A    between atoms: C_15  and  C_16 
REMARK   11  A    between atoms: C_16  and  O_17 
ROOT
HETATM    1  N   UNL     1      40.841 -14.830   3.215  1.00  0.00    -0.332 N 
HETATM    2  H   UNL     1      40.214 -15.365   3.823  1.00  0.00     0.168 HD
ENDROOT
BRANCH   1   3
HETATM    3  C   UNL     1      42.117 -14.671   3.690  1.00  0.00     0.179 C 
HETATM    4  S   UNL     1      42.832 -13.227   4.139  1.00  0.00    -0.040 SA
BRANCH   3   5
HETATM    5  N   UNL     1      42.879 -15.813   3.773  1.00  0.00    -0.299 N 
HETATM    6  C   UNL     1      43.307 -16.614   2.716  1.00  0.00     0.260 C 
HETATM    7  O   UNL     1      43.535 -16.169   1.597  1.00  0.00    -0.267 OA
HETATM    8  H   UNL     1      42.891 -16.210   4.702  1.00  0.00     0.171 HD
BRANCH   6   9
HETATM    9  C   UNL     1      43.504 -18.059   3.058  1.00  0.00     0.065 A 
HETATM   10  C   UNL     1      44.018 -18.464   4.297  1.00  0.00     0.084 A 
HETATM   11  C   UNL     1      44.159 -19.825   4.595  1.00  0.00     0.038 A 
HETATM   12  C   UNL     1      43.843 -20.792   3.643  1.00  0.00     0.003 A 
HETATM   13  C   UNL     1      43.383 -20.403   2.389  1.00  0.00     0.001 A 
HETATM   14  C   UNL     1      43.217 -19.046   2.095  1.00  0.00     0.020 A 
BRANCH  10  15
HETATM   15  O   UNL     1      44.332 -17.567   5.283  1.00  0.00    -0.350 OA
BRANCH  15  16
HETATM   16  C   UNL     1      43.539 -17.798   6.458  1.00  0.00     0.171 C 
HETATM   17  C   UNL     1      43.861 -16.728   7.486  1.00  0.00     0.034 C 
ENDBRANCH  15  16
ENDBRANCH  10  15
ENDBRANCH   6   9
ENDBRANCH   3   5
ENDBRANCH   1   3
BRANCH   1  18
HETATM   18  C   UNL     1      40.250 -14.278   2.055  1.00  0.00     0.050 A 
HETATM   19  C   UNL     1      39.651 -13.005   2.091  1.00  0.00     0.058 A 
HETATM   20  C   UNL     1      39.240 -12.379   0.906  1.00  0.00     0.019 A 
HETATM   21  C   UNL     1      39.398 -13.022  -0.318  1.00  0.00     0.001 A 
HETATM   22  C   UNL     1      39.957 -14.297  -0.361  1.00  0.00     0.002 A 
HETATM   23  C   UNL     1      40.385 -14.919   0.815  1.00  0.00     0.030 A 
BRANCH  19  24
HETATM   24  C   UNL     1      39.261 -12.330   3.358  1.00  0.00     0.253 C 
HETATM   25  N   UNL     1      39.223 -10.950   3.294  1.00  0.00    -0.357 N 
HETATM   26  H   UNL     1      39.470 -10.510   2.415  1.00  0.00     0.162 HD
HETATM   27  O   UNL     1      39.104 -12.976   4.385  1.00  0.00    -0.268 OA
BRANCH  25  28
HETATM   28  C   UNL     1      39.210 -10.135   4.489  1.00  0.00     0.125 C 
BRANCH  28  29
HETATM   29  C   UNL     1      40.466 -10.278   5.335  1.00  0.00     0.046 C 
BRANCH  29  30
HETATM   30  C   UNL     1      40.149 -10.472   6.810  1.00  0.00     0.165 C 
BRANCH  30  31
HETATM   31  O   UNL     1      39.576 -11.757   7.017  1.00  0.00    -0.401 OA
HETATM   32  H   UNL     1      39.581 -11.924   7.976  1.00  0.00     0.209 HD
ENDBRANCH  30  31
ENDBRANCH  29  30
ENDBRANCH  28  29
ENDBRANCH  25  28
ENDBRANCH  19  24
ENDBRANCH   1  18
TORSDOF 11
ENDMDL
MODEL 10
REMARK VINA RESULT:      -6.4      2.819      4.786
REMARK  11 active torsions:
REMARK  status: ('A' for Active; 'I' for Inactive)
REMARK    1  A    between atoms: C_2  and  O_3 
REMARK    2  A    between atoms: O_3  and  C_4 
REMARK    3  A    between atoms: C_5  and  C_6 
REMARK       I    between atoms: C_6  and  N_7 
REMARK    4  A    between atoms: N_7  and  C_8 
REMARK    5  A    between atoms: C_8  and  N_9 
REMARK    6  A    between atoms: N_9  and  C_10 
REMARK    7  A    between atoms: C_11  and  C_12 
REMARK       I    between atoms: C_12  and  N_13 
REMARK    8  A    between atoms: N_13  and  C_14 
REMARK    9  A    between atoms: C_14  and  C_15 
REMARK   10  A    between atoms: C_15  and  C_16 
REMARK   11  A    between atoms: C_16  and  O_17 
ROOT
HETATM    1  N   UNL     1      42.786 -11.811   6.909  1.00  0.00    -0.332 N 
HETATM    2  H   UNL     1      42.373 -12.433   7.610  1.00  0.00     0.168 HD
ENDROOT
BRANCH   1   3
HETATM    3  C   UNL     1      42.340 -11.999   5.627  1.00  0.00     0.179 C 
HETATM    4  S   UNL     1      41.879 -10.800   4.555  1.00  0.00    -0.040 SA
BRANCH   3   5
HETATM    5  N   UNL     1      42.241 -13.304   5.205  1.00  0.00    -0.299 N 
HETATM    6  C   UNL     1      43.180 -14.317   5.389  1.00  0.00     0.260 C 
HETATM    7  O   UNL     1      43.929 -14.360   6.358  1.00  0.00    -0.267 OA
HETATM    8  H   UNL     1      41.541 -13.433   4.489  1.00  0.00     0.171 HD
BRANCH   6   9
HETATM    9  C   UNL     1      43.183 -15.376   4.328  1.00  0.00     0.065 A 
HETATM   10  C   UNL     1      43.025 -15.065   2.971  1.00  0.00     0.084 A 
HETATM   11  C   UNL     1      43.064 -16.077   2.003  1.00  0.00     0.038 A 
HETATM   12  C   UNL     1      43.205 -17.411   2.382  1.00  0.00     0.003 A 
HETATM   13  C   UNL     1      43.309 -17.739   3.730  1.00  0.00     0.001 A 
HETATM   14  C   UNL     1      43.295 -16.730   4.699  1.00  0.00     0.020 A 
BRANCH  10  15
HETATM   15  O   UNL     1      42.899 -13.776   2.529  1.00  0.00    -0.350 OA
BRANCH  15  16
HETATM   16  C   UNL     1      41.885 -13.677   1.517  1.00  0.00     0.171 C 
HETATM   17  C   UNL     1      40.532 -13.525   2.190  1.00  0.00     0.034 C 
ENDBRANCH  15  16
ENDBRANCH  10  15
ENDBRANCH   6   9
ENDBRANCH   3   5
ENDBRANCH   1   3
BRANCH   1  18
HETATM   18  C   UNL     1      43.804 -10.949   7.378  1.00  0.00     0.050 A 
HETATM   19  C   UNL     1      43.502  -9.891   8.254  1.00  0.00     0.058 A 
HETATM   20  C   UNL     1      44.528  -9.160   8.869  1.00  0.00     0.019 A 
HETATM   21  C   UNL     1      45.861  -9.459   8.598  1.00  0.00     0.001 A 
HETATM   22  C   UNL     1      46.170 -10.482   7.704  1.00  0.00     0.002 A 
HETATM   23  C   UNL     1      45.152 -11.224   7.102  1.00  0.00     0.030 A 
BRANCH  19  24
HETATM   24  C   UNL     1      42.121  -9.371   8.450  1.00  0.00     0.253 C 
HETATM   25  N   UNL     1      41.588  -9.595   9.704  1.00  0.00    -0.357 N 
HETATM   26  H   UNL     1      42.156 -10.096  10.379  1.00  0.00     0.162 HD
HETATM   27  O   UNL     1      41.499  -8.890   7.513  1.00  0.00    -0.268 OA
BRANCH  25  28
HETATM   28  C   UNL     1      40.168  -9.478   9.958  1.00  0.00     0.125 C 
BRANCH  28  29
HETATM   29  C   UNL     1      39.840  -8.986  11.359  1.00  0.00     0.046 C 
BRANCH  29  30
HETATM   30  C   UNL     1      39.798 -10.118  12.374  1.00  0.00     0.165 C 
BRANCH  30  31
HETATM   31  O   UNL     1      41.109 -10.630  12.580  1.00  0.00    -0.401 OA
HETATM   32  H   UNL     1      41.580  -9.995  13.147  1.00  0.00     0.209 HD
ENDBRANCH  30  31
ENDBRANCH  29  30
ENDBRANCH  28  29
ENDBRANCH  25  28
ENDBRANCH  19  24
ENDBRANCH   1  18
TORSDOF 11
ENDMDL
