MODEL 1
REMARK VINA RESULT:     -10.0      0.000      0.000
REMARK  4 active torsions:
REMARK  status: ('A' for Active; 'I' for Inactive)
REMARK    1  A    between atoms: N_2  and  C_4 
REMARK    2  A    between atoms: C_7  and  C_21 
REMARK    3  A    between atoms: C_12  and  C_15 
REMARK    4  A    between atoms: C_27  and  C_28 
ROOT
HETATM    1  C   UNL     1      41.996 -13.492   3.422  1.00  0.00     0.116 A 
HETATM    2  N   UNL     1      42.259 -14.186   4.541  1.00  0.00    -0.330 N 
HETATM    3  H   UNL     1      42.731 -13.694   5.291  1.00  0.00     0.168 HD
HETATM    4  C   UNL     1      41.864 -15.458   4.680  1.00  0.00     0.112 A 
HETATM    5  N   UNL     1      41.142 -16.109   3.749  1.00  0.00    -0.234 NA
HETATM    6  C   UNL     1      40.841 -15.450   2.623  1.00  0.00     0.072 A 
HETATM    7  C   UNL     1      40.099 -16.105   1.652  1.00  0.00     0.033 A 
HETATM    8  C   UNL     1      39.781 -15.496   0.433  1.00  0.00     0.014 A 
HETATM    9  C   UNL     1      40.220 -14.204   0.150  1.00  0.00    -0.022 A 
HETATM   10  C   UNL     1      40.961 -13.534   1.133  1.00  0.00     0.030 A 
HETATM   11  C   UNL     1      41.262 -14.132   2.386  1.00  0.00     0.037 A 
ENDROOT
BRANCH   4  12
HETATM   12  C   UNL     1      42.198 -16.225   5.936  1.00  0.00     0.091 C 
HETATM   13  C   UNL     1      42.199 -15.335   7.182  1.00  0.00     0.245 C 
HETATM   14  N   UNL     1      43.041 -16.080   8.172  1.00  0.00    -0.074 N 
HETATM   15  H   UNL     1      43.530 -15.429   8.810  1.00  0.00     0.277 HD
HETATM   16  H   UNL     1      42.471 -16.677   8.793  1.00  0.00     0.277 HD
HETATM   17  C   UNL     1      44.032 -16.917   7.410  1.00  0.00     0.242 C 
HETATM   18  C   UNL     1      43.637 -16.773   5.928  1.00  0.00     0.057 C 
BRANCH  18  19
HETATM   19  C   UNL     1      43.755 -18.051   5.132  1.00  0.00    -0.052 A 
HETATM   20  C   UNL     1      43.873 -18.050   3.733  1.00  0.00     0.007 A 
HETATM   21  C   UNL     1      43.961 -19.251   3.027  1.00  0.00     0.001 A 
HETATM   22  C   UNL     1      43.938 -20.465   3.707  1.00  0.00     0.000 A 
HETATM   23  C   UNL     1      43.832 -20.481   5.095  1.00  0.00     0.001 A 
HETATM   24  C   UNL     1      43.742 -19.283   5.805  1.00  0.00     0.007 A 
ENDBRANCH  18  19
ENDBRANCH   4  12
BRANCH   1  25
HETATM   25  N   UNL     1      42.457 -12.187   3.316  1.00  0.00    -0.375 N 
HETATM   26  C   UNL     1      43.883 -11.904   3.470  1.00  0.00     0.150 C 
HETATM   27  C   UNL     1      41.558 -11.158   3.859  1.00  0.00     0.150 C 
ENDBRANCH   1  25
BRANCH   9  28
HETATM   28  C   UNL     1      39.919 -13.557  -1.117  1.00  0.00     0.010 A 
HETATM   29  C   UNL     1      40.180 -13.960  -2.449  1.00  0.00     0.152 A 
HETATM   30  N   UNL     1      39.732 -13.090  -3.354  1.00  0.00    -0.187 NA
HETATM   31  N   UNL     1      39.182 -12.115  -2.615  1.00  0.00    -0.289 N 
HETATM   32  H   UNL     1      38.765 -11.322  -3.093  1.00  0.00     0.188 HD
HETATM   33  C   UNL     1      39.264 -12.351  -1.270  1.00  0.00     0.123 A 
ENDBRANCH   9  28
TORSDOF 4
ENDMDL
MODEL 2
REMARK VINA RESULT:      -9.5      2.286      7.418
REMARK  4 active torsions:
REMARK  status: ('A' for Active; 'I' for Inactive)
REMARK    1  A    between atoms: N_2  and  C_4 
REMARK    2  A    between atoms: C_7  and  C_21 
REMARK    3  A    between atoms: C_12  and  C_15 
REMARK    4  A    between atoms: C_27  and  C_28 
ROOT
HETATM    1  C   UNL     1      42.777 -14.375   4.563  1.00  0.00     0.116 A 
HETATM    2  N   UNL     1      42.500 -13.201   3.972  1.00  0.00    -0.330 N 
HETATM    3  H   UNL     1      42.385 -12.394   4.575  1.00  0.00     0.168 HD
HETATM    4  C   UNL     1      42.434 -13.091   2.640  1.00  0.00     0.112 A 
HETATM    5  N   UNL     1      42.687 -14.116   1.804  1.00  0.00    -0.234 NA
HETATM    6  C   UNL     1      42.985 -15.302   2.348  1.00  0.00     0.072 A 
HETATM    7  C   UNL     1      43.247 -16.370   1.504  1.00  0.00     0.033 A 
HETATM    8  C   UNL     1      43.525 -17.649   1.999  1.00  0.00     0.014 A 
HETATM    9  C   UNL     1      43.531 -17.893   3.372  1.00  0.00    -0.022 A 
HETATM   10  C   UNL     1      43.277 -16.814   4.229  1.00  0.00     0.030 A 
HETATM   11  C   UNL     1      43.025 -15.505   3.737  1.00  0.00     0.037 A 
ENDROOT
BRANCH   4  12
HETATM   12  C   UNL     1      42.091 -11.767   2.001  1.00  0.00     0.091 C 
HETATM   13  C   UNL     1      42.136 -10.608   3.001  1.00  0.00     0.245 C 
HETATM   14  N   UNL     1      41.282  -9.546   2.377  1.00  0.00    -0.074 N 
HETATM   15  H   UNL     1      40.823  -8.965   3.099  1.00  0.00     0.277 HD
HETATM   16  H   UNL     1      41.841  -8.878   1.821  1.00  0.00     0.277 HD
HETATM   17  C   UNL     1      40.256 -10.218   1.507  1.00  0.00     0.242 C 
HETATM   18  C   UNL     1      40.636 -11.711   1.503  1.00  0.00     0.057 C 
BRANCH  18  19
HETATM   19  C   UNL     1      40.466 -12.385   0.162  1.00  0.00    -0.052 A 
HETATM   20  C   UNL     1      39.793 -13.610   0.023  1.00  0.00     0.007 A 
HETATM   21  C   UNL     1      39.672 -14.216  -1.228  1.00  0.00     0.001 A 
HETATM   22  C   UNL     1      40.214 -13.604  -2.356  1.00  0.00     0.000 A 
HETATM   23  C   UNL     1      40.874 -12.385  -2.235  1.00  0.00     0.001 A 
HETATM   24  C   UNL     1      41.000 -11.777  -0.985  1.00  0.00     0.007 A 
ENDBRANCH  18  19
ENDBRANCH   4  12
BRANCH   1  25
HETATM   25  N   UNL     1      42.801 -14.441   5.949  1.00  0.00    -0.375 N 
HETATM   26  C   UNL     1      41.576 -14.756   6.684  1.00  0.00     0.150 C 
HETATM   27  C   UNL     1      43.687 -13.472   6.609  1.00  0.00     0.150 C 
ENDBRANCH   1  25
BRANCH   9  28
HETATM   28  C   UNL     1      43.798 -19.217   3.909  1.00  0.00     0.010 A 
HETATM   29  C   UNL     1      44.101 -19.640   5.227  1.00  0.00     0.152 A 
HETATM   30  N   UNL     1      44.271 -20.957   5.325  1.00  0.00    -0.187 NA
HETATM   31  N   UNL     1      44.083 -21.398   4.072  1.00  0.00    -0.289 N 
HETATM   32  H   UNL     1      44.164 -22.395   3.892  1.00  0.00     0.188 HD
HETATM   33  C   UNL     1      43.793 -20.395   3.189  1.00  0.00     0.123 A 
ENDBRANCH   9  28
TORSDOF 4
ENDMDL
MODEL 3
REMARK VINA RESULT:      -8.9      2.789      7.036
REMARK  4 active torsions:
REMARK  status: ('A' for Active; 'I' for Inactive)
REMARK    1  A    between atoms: N_2  and  C_4 
REMARK    2  A    between atoms: C_7  and  C_21 
REMARK    3  A    between atoms: C_12  and  C_15 
REMARK    4  A    between atoms: C_27  and  C_28 
ROOT
HETATM    1  C   UNL     1      41.499 -14.746   3.517  1.00  0.00     0.116 A 
HETATM    2  N   UNL     1      41.208 -13.583   4.124  1.00  0.00    -0.330 N 
HETATM    3  H   UNL     1      40.677 -12.903   3.592  1.00  0.00     0.168 HD
HETATM    4  C   UNL     1      41.554 -13.356   5.397  1.00  0.00     0.112 A 
HETATM    5  N   UNL     1      42.164 -14.277   6.167  1.00  0.00    -0.234 NA
HETATM    6  C   UNL     1      42.459 -15.458   5.610  1.00  0.00     0.072 A 
HETATM    7  C   UNL     1      43.087 -16.418   6.388  1.00  0.00     0.033 A 
HETATM    8  C   UNL     1      43.464 -17.660   5.863  1.00  0.00     0.014 A 
HETATM    9  C   UNL     1      43.229 -17.964   4.523  1.00  0.00    -0.022 A 
HETATM   10  C   UNL     1      42.584 -17.001   3.736  1.00  0.00     0.030 A 
HETATM   11  C   UNL     1      42.170 -15.750   4.267  1.00  0.00     0.037 A 
ENDROOT
BRANCH   4  12
HETATM   12  C   UNL     1      41.241 -12.031   6.046  1.00  0.00     0.091 C 
HETATM   13  C   UNL     1      39.850 -11.512   5.672  1.00  0.00     0.245 C 
HETATM   14  N   UNL     1      39.924 -10.036   5.924  1.00  0.00    -0.074 N 
HETATM   15  H   UNL     1      39.303  -9.517   5.280  1.00  0.00     0.277 HD
HETATM   16  H   UNL     1      39.587  -9.788   6.869  1.00  0.00     0.277 HD
HETATM   17  C   UNL     1      41.352  -9.599   5.748  1.00  0.00     0.242 C 
HETATM   18  C   UNL     1      42.156 -10.898   5.547  1.00  0.00     0.057 C 
BRANCH  18  19
HETATM   19  C   UNL     1      43.499 -10.904   6.238  1.00  0.00    -0.052 A 
HETATM   20  C   UNL     1      44.653 -11.415   5.622  1.00  0.00     0.007 A 
HETATM   21  C   UNL     1      45.874 -11.422   6.298  1.00  0.00     0.001 A 
HETATM   22  C   UNL     1      45.961 -10.915   7.591  1.00  0.00     0.000 A 
HETATM   23  C   UNL     1      44.828 -10.396   8.211  1.00  0.00     0.001 A 
HETATM   24  C   UNL     1      43.604 -10.388   7.540  1.00  0.00     0.007 A 
ENDBRANCH  18  19
ENDBRANCH   4  12
BRANCH   1  25
HETATM   25  N   UNL     1      41.146 -14.917   2.186  1.00  0.00    -0.375 N 
HETATM   26  C   UNL     1      41.549 -13.922   1.192  1.00  0.00     0.150 C 
HETATM   27  C   UNL     1      39.824 -15.518   1.959  1.00  0.00     0.150 C 
ENDBRANCH   1  25
BRANCH   9  28
HETATM   28  C   UNL     1      43.628 -19.240   3.950  1.00  0.00     0.010 A 
HETATM   29  C   UNL     1      43.643 -19.690   2.608  1.00  0.00     0.152 A 
HETATM   30  N   UNL     1      44.095 -20.937   2.481  1.00  0.00    -0.187 NA
HETATM   31  N   UNL     1      44.372 -21.306   3.741  1.00  0.00    -0.289 N 
HETATM   32  H   UNL     1      44.737 -22.240   3.902  1.00  0.00     0.188 HD
HETATM   33  C   UNL     1      44.114 -20.323   4.657  1.00  0.00     0.123 A 
ENDBRANCH   9  28
TORSDOF 4
ENDMDL
MODEL 4
REMARK VINA RESULT:      -8.5      3.450      7.249
REMARK  4 active torsions:
REMARK  status: ('A' for Active; 'I' for Inactive)
REMARK    1  A    between atoms: N_2  and  C_4 
REMARK    2  A    between atoms: C_7  and  C_21 
REMARK    3  A    between atoms: C_12  and  C_15 
REMARK    4  A    between atoms: C_27  and  C_28 
ROOT
HETATM    1  C   UNL     1      40.927 -11.464   5.098  1.00  0.00     0.116 A 
HETATM    2  N   UNL     1      40.705 -12.240   4.024  1.00  0.00    -0.330 N 
HETATM    3  H   UNL     1      39.849 -12.079   3.505  1.00  0.00     0.168 HD
HETATM    4  C   UNL     1      41.602 -13.150   3.625  1.00  0.00     0.112 A 
HETATM    5  N   UNL     1      42.795 -13.318   4.225  1.00  0.00    -0.234 NA
HETATM    6  C   UNL     1      43.069 -12.553   5.290  1.00  0.00     0.072 A 
HETATM    7  C   UNL     1      44.292 -12.713   5.922  1.00  0.00     0.033 A 
HETATM    8  C   UNL     1      44.632 -11.979   7.064  1.00  0.00     0.014 A 
HETATM    9  C   UNL     1      43.732 -11.068   7.615  1.00  0.00    -0.022 A 
HETATM   10  C   UNL     1      42.498 -10.895   6.973  1.00  0.00     0.030 A 
HETATM   11  C   UNL     1      42.157 -11.612   5.796  1.00  0.00     0.037 A 
ENDROOT
BRANCH   4  12
HETATM   12  C   UNL     1      41.314 -14.030   2.433  1.00  0.00     0.091 C 
HETATM   13  C   UNL     1      40.202 -13.466   1.545  1.00  0.00     0.245 C 
HETATM   14  N   UNL     1      39.694 -14.653   0.786  1.00  0.00    -0.074 N 
HETATM   15  H   UNL     1      38.689 -14.550   0.561  1.00  0.00     0.277 HD
HETATM   16  H   UNL     1      40.158 -14.752  -0.132  1.00  0.00     0.277 HD
HETATM   17  C   UNL     1      39.925 -15.881   1.622  1.00  0.00     0.242 C 
HETATM   18  C   UNL     1      40.743 -15.402   2.837  1.00  0.00     0.057 C 
BRANCH  18  19
HETATM   19  C   UNL     1      41.824 -16.364   3.269  1.00  0.00    -0.052 A 
HETATM   20  C   UNL     1      42.136 -16.577   4.622  1.00  0.00     0.007 A 
HETATM   21  C   UNL     1      43.155 -17.459   4.985  1.00  0.00     0.001 A 
HETATM   22  C   UNL     1      43.869 -18.143   4.006  1.00  0.00     0.000 A 
HETATM   23  C   UNL     1      43.565 -17.950   2.662  1.00  0.00     0.001 A 
HETATM   24  C   UNL     1      42.548 -17.068   2.294  1.00  0.00     0.007 A 
ENDBRANCH  18  19
ENDBRANCH   4  12
BRANCH   1  25
HETATM   25  N   UNL     1      39.950 -10.560   5.489  1.00  0.00    -0.375 N 
HETATM   26  C   UNL     1      38.778 -11.028   6.227  1.00  0.00     0.150 C 
HETATM   27  C   UNL     1      39.688  -9.469   4.539  1.00  0.00     0.150 C 
ENDBRANCH   1  25
BRANCH   9  28
HETATM   28  C   UNL     1      44.055 -10.308   8.813  1.00  0.00     0.010 A 
HETATM   29  C   UNL     1      45.287 -10.109   9.481  1.00  0.00     0.152 A 
HETATM   30  N   UNL     1      45.178  -9.327  10.554  1.00  0.00    -0.187 NA
HETATM   31  N   UNL     1      43.873  -9.016  10.591  1.00  0.00    -0.289 N 
HETATM   32  H   UNL     1      43.540  -8.416  11.340  1.00  0.00     0.188 HD
HETATM   33  C   UNL     1      43.160  -9.575   9.567  1.00  0.00     0.123 A 
ENDBRANCH   9  28
TORSDOF 4
ENDMDL
MODEL 5
REMARK VINA RESULT:      -8.4      3.186      5.608
REMARK  4 active torsions:
REMARK  status: ('A' for Active; 'I' for Inactive)
REMARK    1  A    between atoms: N_2  and  C_4 
REMARK    2  A    between atoms: C_7  and  C_21 
REMARK    3  A    between atoms: C_12  and  C_15 
REMARK    4  A    between atoms: C_27  and  C_28 
ROOT
HETATM    1  C   UNL     1      39.569 -12.515  -0.956  1.00  0.00     0.116 A 
HETATM    2  N   UNL     1      39.427 -13.130   0.229  1.00  0.00    -0.330 N 
HETATM    3  H   UNL     1      38.935 -14.016   0.235  1.00  0.00     0.168 HD
HETATM    4  C   UNL     1      39.962 -12.622   1.345  1.00  0.00     0.112 A 
HETATM    5  N   UNL     1      40.713 -11.504   1.357  1.00  0.00    -0.234 NA
HETATM    6  C   UNL     1      40.897 -10.866   0.195  1.00  0.00     0.072 A 
HETATM    7  C   UNL     1      41.666  -9.713   0.188  1.00  0.00     0.033 A 
HETATM    8  C   UNL     1      41.868  -8.969  -0.981  1.00  0.00     0.014 A 
HETATM    9  C   UNL     1      41.280  -9.363  -2.182  1.00  0.00    -0.022 A 
HETATM   10  C   UNL     1      40.510 -10.535  -2.182  1.00  0.00     0.030 A 
HETATM   11  C   UNL     1      40.326 -11.313  -1.008  1.00  0.00     0.037 A 
ENDROOT
BRANCH   4  12
HETATM   12  C   UNL     1      39.763 -13.317   2.670  1.00  0.00     0.091 C 
HETATM   13  C   UNL     1      38.998 -12.452   3.675  1.00  0.00     0.245 C 
HETATM   14  N   UNL     1      39.360 -13.025   5.011  1.00  0.00    -0.074 N 
HETATM   15  H   UNL     1      39.352 -12.295   5.744  1.00  0.00     0.277 HD
HETATM   16  H   UNL     1      38.671 -13.726   5.331  1.00  0.00     0.277 HD
HETATM   17  C   UNL     1      40.724 -13.649   4.901  1.00  0.00     0.242 C 
HETATM   18  C   UNL     1      41.090 -13.574   3.407  1.00  0.00     0.057 C 
BRANCH  18  19
HETATM   19  C   UNL     1      41.803 -14.799   2.886  1.00  0.00    -0.052 A 
HETATM   20  C   UNL     1      41.401 -16.100   3.233  1.00  0.00     0.007 A 
HETATM   21  C   UNL     1      42.095 -17.210   2.749  1.00  0.00     0.001 A 
HETATM   22  C   UNL     1      43.191 -17.038   1.909  1.00  0.00     0.000 A 
HETATM   23  C   UNL     1      43.594 -15.756   1.548  1.00  0.00     0.001 A 
HETATM   24  C   UNL     1      42.905 -14.642   2.031  1.00  0.00     0.007 A 
ENDBRANCH  18  19
ENDBRANCH   4  12
BRANCH   1  25
HETATM   25  N   UNL     1      38.965 -13.067  -2.078  1.00  0.00    -0.375 N 
HETATM   26  C   UNL     1      37.507 -13.083  -2.187  1.00  0.00     0.150 C 
HETATM   27  C   UNL     1      39.641 -14.248  -2.636  1.00  0.00     0.150 C 
ENDBRANCH   1  25
BRANCH   9  28
HETATM   28  C   UNL     1      41.459  -8.597  -3.405  1.00  0.00     0.010 A 
HETATM   29  C   UNL     1      42.343  -7.535  -3.713  1.00  0.00     0.152 A 
HETATM   30  N   UNL     1      42.213  -7.095  -4.964  1.00  0.00    -0.187 NA
HETATM   31  N   UNL     1      41.242  -7.866  -5.475  1.00  0.00    -0.289 N 
HETATM   32  H   UNL     1      40.960  -7.714  -6.439  1.00  0.00     0.188 HD
HETATM   33  C   UNL     1      40.761  -8.784  -4.582  1.00  0.00     0.123 A 
ENDBRANCH   9  28
TORSDOF 4
ENDMDL
MODEL 6
REMARK VINA RESULT:      -8.4      2.587      7.334
REMARK  4 active torsions:
REMARK  status: ('A' for Active; 'I' for Inactive)
REMARK    1  A    between atoms: N_2  and  C_4 
REMARK    2  A    between atoms: C_7  and  C_21 
REMARK    3  A    between atoms: C_12  and  C_15 
REMARK    4  A    between atoms: C_27  and  C_28 
ROOT
HETATM    1  C   UNL     1      42.103 -14.477   3.711  1.00  0.00     0.116 A 
HETATM    2  N   UNL     1      42.101 -13.246   4.247  1.00  0.00    -0.330 N 
HETATM    3  H   UNL     1      41.514 -12.548   3.804  1.00  0.00     0.168 HD
HETATM    4  C   UNL     1      42.801 -12.968   5.353  1.00  0.00     0.112 A 
HETATM    5  N   UNL     1      43.504 -13.895   6.031  1.00  0.00    -0.234 NA
HETATM    6  C   UNL     1      43.521 -15.141   5.543  1.00  0.00     0.072 A 
HETATM    7  C   UNL     1      44.241 -16.109   6.225  1.00  0.00     0.033 A 
HETATM    8  C   UNL     1      44.338 -17.424   5.754  1.00  0.00     0.014 A 
HETATM    9  C   UNL     1      43.720 -17.797   4.562  1.00  0.00    -0.022 A 
HETATM   10  C   UNL     1      42.982 -16.825   3.874  1.00  0.00     0.030 A 
HETATM   11  C   UNL     1      42.851 -15.497   4.361  1.00  0.00     0.037 A 
ENDROOT
BRANCH   4  12
HETATM   12  C   UNL     1      42.805 -11.568   5.919  1.00  0.00     0.091 C 
HETATM   13  C   UNL     1      43.461 -11.499   7.301  1.00  0.00     0.245 C 
HETATM   14  N   UNL     1      42.911 -10.246   7.911  1.00  0.00    -0.074 N 
HETATM   15  H   UNL     1      42.848 -10.329   8.940  1.00  0.00     0.277 HD
HETATM   16  H   UNL     1      43.532  -9.435   7.752  1.00  0.00     0.277 HD
HETATM   17  C   UNL     1      41.554  -9.989   7.316  1.00  0.00     0.242 C 
HETATM   18  C   UNL     1      41.387 -11.043   6.206  1.00  0.00     0.057 C 
BRANCH  18  19
HETATM   19  C   UNL     1      40.710 -10.522   4.960  1.00  0.00    -0.052 A 
HETATM   20  C   UNL     1      41.360  -9.655   4.065  1.00  0.00     0.007 A 
HETATM   21  C   UNL     1      40.698  -9.177   2.933  1.00  0.00     0.001 A 
HETATM   22  C   UNL     1      39.385  -9.562   2.677  1.00  0.00     0.000 A 
HETATM   23  C   UNL     1      38.732 -10.429   3.548  1.00  0.00     0.001 A 
HETATM   24  C   UNL     1      39.389 -10.908   4.683  1.00  0.00     0.007 A 
ENDBRANCH  18  19
ENDBRANCH   4  12
BRANCH   1  25
HETATM   25  N   UNL     1      41.386 -14.704   2.544  1.00  0.00    -0.375 N 
HETATM   26  C   UNL     1      41.984 -14.384   1.249  1.00  0.00     0.150 C 
HETATM   27  C   UNL     1      39.940 -14.456   2.637  1.00  0.00     0.150 C 
ENDBRANCH   1  25
BRANCH   9  28
HETATM   28  C   UNL     1      43.823 -19.151   4.042  1.00  0.00     0.010 A 
HETATM   29  C   UNL     1      43.676 -19.654   2.726  1.00  0.00     0.152 A 
HETATM   30  N   UNL     1      43.859 -20.971   2.648  1.00  0.00    -0.187 NA
HETATM   31  N   UNL     1      44.123 -21.333   3.913  1.00  0.00    -0.289 N 
HETATM   32  H   UNL     1      44.301 -22.314   4.108  1.00  0.00     0.188 HD
HETATM   33  C   UNL     1      44.117 -20.278   4.784  1.00  0.00     0.123 A 
ENDBRANCH   9  28
TORSDOF 4
ENDMDL
MODEL 7
REMARK VINA RESULT:      -8.3     14.247     18.046
REMARK  4 active torsions:
REMARK  status: ('A' for Active; 'I' for Inactive)
REMARK    1  A    between atoms: N_2  and  C_4 
REMARK    2  A    between atoms: C_7  and  C_21 
REMARK    3  A    between atoms: C_12  and  C_15 
REMARK    4  A    between atoms: C_27  and  C_28 
ROOT
HETATM    1  C   UNL     1      49.464 -30.751   1.613  1.00  0.00     0.116 A 
HETATM    2  N   UNL     1      48.292 -30.145   1.866  1.00  0.00    -0.330 N 
HETATM    3  H   UNL     1      47.981 -30.124   2.831  1.00  0.00     0.168 HD
HETATM    4  C   UNL     1      47.594 -29.547   0.894  1.00  0.00     0.112 A 
HETATM    5  N   UNL     1      48.029 -29.463  -0.378  1.00  0.00    -0.234 NA
HETATM    6  C   UNL     1      49.201 -30.037  -0.673  1.00  0.00     0.072 A 
HETATM    7  C   UNL     1      49.665 -29.962  -1.978  1.00  0.00     0.033 A 
HETATM    8  C   UNL     1      50.861 -30.573  -2.371  1.00  0.00     0.014 A 
HETATM    9  C   UNL     1      51.621 -31.298  -1.455  1.00  0.00    -0.022 A 
HETATM   10  C   UNL     1      51.162 -31.368  -0.132  1.00  0.00     0.030 A 
HETATM   11  C   UNL     1      49.966 -30.724   0.283  1.00  0.00     0.037 A 
ENDROOT
BRANCH   4  12
HETATM   12  C   UNL     1      46.266 -28.899   1.199  1.00  0.00     0.091 C 
HETATM   13  C   UNL     1      45.963 -28.867   2.699  1.00  0.00     0.245 C 
HETATM   14  N   UNL     1      44.474 -28.721   2.775  1.00  0.00    -0.074 N 
HETATM   15  H   UNL     1      44.097 -29.175   3.625  1.00  0.00     0.277 HD
HETATM   16  H   UNL     1      44.186 -27.731   2.857  1.00  0.00     0.277 HD
HETATM   17  C   UNL     1      43.877 -29.335   1.539  1.00  0.00     0.242 C 
HETATM   18  C   UNL     1      45.076 -29.703   0.644  1.00  0.00     0.057 C 
BRANCH  18  19
HETATM   19  C   UNL     1      44.849 -29.443  -0.826  1.00  0.00    -0.052 A 
HETATM   20  C   UNL     1      44.349 -30.432  -1.690  1.00  0.00     0.007 A 
HETATM   21  C   UNL     1      44.170 -30.164  -3.048  1.00  0.00     0.001 A 
HETATM   22  C   UNL     1      44.481 -28.906  -3.559  1.00  0.00     0.000 A 
HETATM   23  C   UNL     1      44.967 -27.914  -2.713  1.00  0.00     0.001 A 
HETATM   24  C   UNL     1      45.149 -28.178  -1.355  1.00  0.00     0.007 A 
ENDBRANCH  18  19
ENDBRANCH   4  12
BRANCH   1  25
HETATM   25  N   UNL     1      50.132 -31.385   2.652  1.00  0.00    -0.375 N 
HETATM   26  C   UNL     1      49.555 -32.581   3.265  1.00  0.00     0.150 C 
HETATM   27  C   UNL     1      50.841 -30.492   3.580  1.00  0.00     0.150 C 
ENDBRANCH   1  25
BRANCH   9  28
HETATM   28  C   UNL     1      52.857 -31.958  -1.844  1.00  0.00     0.010 A 
HETATM   29  C   UNL     1      53.808 -32.674  -1.076  1.00  0.00     0.152 A 
HETATM   30  N   UNL     1      54.816 -33.148  -1.806  1.00  0.00    -0.187 NA
HETATM   31  N   UNL     1      54.529 -32.740  -3.051  1.00  0.00    -0.289 N 
HETATM   32  H   UNL     1      55.170 -32.985  -3.801  1.00  0.00     0.188 HD
HETATM   33  C   UNL     1      53.364 -32.028  -3.127  1.00  0.00     0.123 A 
ENDBRANCH   9  28
TORSDOF 4
ENDMDL
MODEL 8
REMARK VINA RESULT:      -8.0      2.302      7.699
REMARK  4 active torsions:
REMARK  status: ('A' for Active; 'I' for Inactive)
REMARK    1  A    between atoms: N_2  and  C_4 
REMARK    2  A    between atoms: C_7  and  C_21 
REMARK    3  A    between atoms: C_12  and  C_15 
REMARK    4  A    between atoms: C_27  and  C_28 
ROOT
HETATM    1  C   UNL     1      41.987 -12.829   3.640  1.00  0.00     0.116 A 
HETATM    2  N   UNL     1      41.193 -11.903   3.077  1.00  0.00    -0.330 N 
HETATM    3  H   UNL     1      41.351 -10.936   3.339  1.00  0.00     0.168 HD
HETATM    4  C   UNL     1      40.271 -12.237   2.167  1.00  0.00     0.112 A 
HETATM    5  N   UNL     1      40.106 -13.495   1.716  1.00  0.00    -0.234 NA
HETATM    6  C   UNL     1      40.888 -14.449   2.236  1.00  0.00     0.072 A 
HETATM    7  C   UNL     1      40.732 -15.751   1.784  1.00  0.00     0.033 A 
HETATM    8  C   UNL     1      41.484 -16.808   2.310  1.00  0.00     0.014 A 
HETATM    9  C   UNL     1      42.411 -16.582   3.326  1.00  0.00    -0.022 A 
HETATM   10  C   UNL     1      42.579 -15.266   3.778  1.00  0.00     0.030 A 
HETATM   11  C   UNL     1      41.843 -14.182   3.229  1.00  0.00     0.037 A 
ENDROOT
BRANCH   4  12
HETATM   12  C   UNL     1      39.371 -11.181   1.572  1.00  0.00     0.091 C 
HETATM   13  C   UNL     1      38.261 -10.750   2.534  1.00  0.00     0.245 C 
HETATM   14  N   UNL     1      37.206 -10.164   1.646  1.00  0.00    -0.074 N 
HETATM   15  H   UNL     1      36.263 -10.300   2.047  1.00  0.00     0.277 HD
HETATM   16  H   UNL     1      37.305  -9.139   1.552  1.00  0.00     0.277 HD
HETATM   17  C   UNL     1      37.308 -10.822   0.297  1.00  0.00     0.242 C 
HETATM   18  C   UNL     1      38.571 -11.701   0.364  1.00  0.00     0.057 C 
BRANCH  18  19
HETATM   19  C   UNL     1      39.390 -11.700  -0.905  1.00  0.00    -0.052 A 
HETATM   20  C   UNL     1      39.448 -12.815  -1.757  1.00  0.00     0.007 A 
HETATM   21  C   UNL     1      40.231 -12.787  -2.912  1.00  0.00     0.001 A 
HETATM   22  C   UNL     1      40.958 -11.645  -3.235  1.00  0.00     0.000 A 
HETATM   23  C   UNL     1      40.902 -10.528  -2.407  1.00  0.00     0.001 A 
HETATM   24  C   UNL     1      40.122 -10.553  -1.249  1.00  0.00     0.007 A 
ENDBRANCH  18  19
ENDBRANCH   4  12
BRANCH   1  25
HETATM   25  N   UNL     1      42.905 -12.433   4.603  1.00  0.00    -0.375 N 
HETATM   26  C   UNL     1      42.459 -12.178   5.972  1.00  0.00     0.150 C 
HETATM   27  C   UNL     1      43.973 -11.544   4.124  1.00  0.00     0.150 C 
ENDBRANCH   1  25
BRANCH   9  28
HETATM   28  C   UNL     1      43.190 -17.666   3.902  1.00  0.00     0.010 A 
HETATM   29  C   UNL     1      43.493 -17.977   5.250  1.00  0.00     0.152 A 
HETATM   30  N   UNL     1      44.235 -19.075   5.377  1.00  0.00    -0.187 NA
HETATM   31  N   UNL     1      44.422 -19.483   4.113  1.00  0.00    -0.289 N 
HETATM   32  H   UNL     1      44.972 -20.322   3.951  1.00  0.00     0.188 HD
HETATM   33  C   UNL     1      43.811 -18.676   3.193  1.00  0.00     0.123 A 
ENDBRANCH   9  28
TORSDOF 4
ENDMDL
MODEL 9
REMARK VINA RESULT:      -7.9      3.501      6.874
REMARK  4 active torsions:
REMARK  status: ('A' for Active; 'I' for Inactive)
REMARK    1  A    between atoms: N_2  and  C_4 
REMARK    2  A    between atoms: C_7  and  C_21 
REMARK    3  A    between atoms: C_12  and  C_15 
REMARK    4  A    between atoms: C_27  and  C_28 
ROOT
HETATM    1  C   UNL     1      42.344 -12.231   5.304  1.00  0.00     0.116 A 
HETATM    2  N   UNL     1      42.250 -13.032   4.230  1.00  0.00    -0.330 N 
HETATM    3  H   UNL     1      43.054 -13.608   4.009  1.00  0.00     0.168 HD
HETATM    4  C   UNL     1      41.121 -13.106   3.515  1.00  0.00     0.112 A 
HETATM    5  N   UNL     1      39.999 -12.438   3.841  1.00  0.00    -0.234 NA
HETATM    6  C   UNL     1      40.040 -11.641   4.916  1.00  0.00     0.072 A 
HETATM    7  C   UNL     1      38.895 -10.943   5.267  1.00  0.00     0.033 A 
HETATM    8  C   UNL     1      38.874 -10.059   6.352  1.00  0.00     0.014 A 
HETATM    9  C   UNL     1      40.023  -9.841   7.110  1.00  0.00    -0.022 A 
HETATM   10  C   UNL     1      41.181 -10.552   6.766  1.00  0.00     0.030 A 
HETATM   11  C   UNL     1      41.203 -11.474   5.686  1.00  0.00     0.037 A 
ENDROOT
BRANCH   4  12
HETATM   12  C   UNL     1      41.050 -13.991   2.294  1.00  0.00     0.091 C 
HETATM   13  C   UNL     1      40.006 -13.510   1.283  1.00  0.00     0.245 C 
HETATM   14  N   UNL     1      39.692 -14.725   0.465  1.00  0.00    -0.074 N 
HETATM   15  H   UNL     1      38.716 -14.703   0.124  1.00  0.00     0.277 HD
HETATM   16  H   UNL     1      40.268 -14.773  -0.392  1.00  0.00     0.277 HD
HETATM   17  C   UNL     1      39.927 -15.941   1.319  1.00  0.00     0.242 C 
HETATM   18  C   UNL     1      40.553 -15.411   2.623  1.00  0.00     0.057 C 
BRANCH  18  19
HETATM   19  C   UNL     1      41.653 -16.285   3.176  1.00  0.00    -0.052 A 
HETATM   20  C   UNL     1      41.875 -16.421   4.557  1.00  0.00     0.007 A 
HETATM   21  C   UNL     1      42.913 -17.223   5.034  1.00  0.00     0.001 A 
HETATM   22  C   UNL     1      43.738 -17.902   4.142  1.00  0.00     0.000 A 
HETATM   23  C   UNL     1      43.524 -17.786   2.772  1.00  0.00     0.001 A 
HETATM   24  C   UNL     1      42.488 -16.984   2.290  1.00  0.00     0.007 A 
ENDBRANCH  18  19
ENDBRANCH   4  12
BRANCH   1  25
HETATM   25  N   UNL     1      43.548 -12.167   5.991  1.00  0.00    -0.375 N 
HETATM   26  C   UNL     1      44.670 -11.417   5.426  1.00  0.00     0.150 C 
HETATM   27  C   UNL     1      43.923 -13.388   6.718  1.00  0.00     0.150 C 
ENDBRANCH   1  25
BRANCH   9  28
HETATM   28  C   UNL     1      40.032  -8.913   8.230  1.00  0.00     0.010 A 
HETATM   29  C   UNL     1      40.259  -7.516   8.276  1.00  0.00     0.152 A 
HETATM   30  N   UNL     1      40.169  -7.014   9.507  1.00  0.00    -0.187 NA
HETATM   31  N   UNL     1      39.886  -8.082  10.268  1.00  0.00    -0.289 N 
HETATM   32  H   UNL     1      39.769  -7.946  11.268  1.00  0.00     0.188 HD
HETATM   33  C   UNL     1      39.789  -9.242   9.550  1.00  0.00     0.123 A 
ENDBRANCH   9  28
TORSDOF 4
ENDMDL
MODEL 10
REMARK VINA RESULT:      -7.8      3.556      5.956
REMARK  4 active torsions:
REMARK  status: ('A' for Active; 'I' for Inactive)
REMARK    1  A    between atoms: N_2  and  C_4 
REMARK    2  A    between atoms: C_7  and  C_21 
REMARK    3  A    between atoms: C_12  and  C_15 
REMARK    4  A    between atoms: C_27  and  C_28 
ROOT
HETATM    1  C   UNL     1      43.352 -11.576   6.946  1.00  0.00     0.116 A 
HETATM    2  N   UNL     1      43.332 -12.917   7.012  1.00  0.00    -0.330 N 
HETATM    3  H   UNL     1      44.102 -13.369   7.491  1.00  0.00     0.168 HD
HETATM    4  C   UNL     1      42.309 -13.623   6.515  1.00  0.00     0.112 A 
HETATM    5  N   UNL     1      41.218 -13.052   5.969  1.00  0.00    -0.234 NA
HETATM    6  C   UNL     1      41.186 -11.716   5.898  1.00  0.00     0.072 A 
HETATM    7  C   UNL     1      40.072 -11.110   5.337  1.00  0.00     0.033 A 
HETATM    8  C   UNL     1      39.985  -9.720   5.192  1.00  0.00     0.014 A 
HETATM    9  C   UNL     1      41.035  -8.897   5.596  1.00  0.00    -0.022 A 
HETATM   10  C   UNL     1      42.159  -9.505   6.173  1.00  0.00     0.030 A 
HETATM   11  C   UNL     1      42.243 -10.911   6.354  1.00  0.00     0.037 A 
ENDROOT
BRANCH   4  12
HETATM   12  C   UNL     1      42.324 -15.131   6.575  1.00  0.00     0.091 C 
HETATM   13  C   UNL     1      42.949 -15.657   7.870  1.00  0.00     0.245 C 
HETATM   14  N   UNL     1      43.370 -17.056   7.538  1.00  0.00    -0.074 N 
HETATM   15  H   UNL     1      44.203 -17.335   8.085  1.00  0.00     0.277 HD
HETATM   16  H   UNL     1      42.646 -17.749   7.793  1.00  0.00     0.277 HD
HETATM   17  C   UNL     1      43.658 -17.124   6.064  1.00  0.00     0.242 C 
HETATM   18  C   UNL     1      43.232 -15.755   5.500  1.00  0.00     0.057 C 
BRANCH  18  19
HETATM   19  C   UNL     1      42.551 -15.830   4.153  1.00  0.00    -0.052 A 
HETATM   20  C   UNL     1      41.173 -16.071   4.027  1.00  0.00     0.007 A 
HETATM   21  C   UNL     1      40.580 -16.153   2.766  1.00  0.00     0.001 A 
HETATM   22  C   UNL     1      41.351 -15.989   1.618  1.00  0.00     0.000 A 
HETATM   23  C   UNL     1      42.715 -15.739   1.729  1.00  0.00     0.001 A 
HETATM   24  C   UNL     1      43.314 -15.658   2.987  1.00  0.00     0.007 A 
ENDBRANCH  18  19
ENDBRANCH   4  12
BRANCH   1  25
HETATM   25  N   UNL     1      44.452 -10.894   7.447  1.00  0.00    -0.375 N 
HETATM   26  C   UNL     1      45.780 -11.146   6.889  1.00  0.00     0.150 C 
HETATM   27  C   UNL     1      44.427 -10.638   8.895  1.00  0.00     0.150 C 
ENDBRANCH   1  25
BRANCH   9  28
HETATM   28  C   UNL     1      40.976  -7.453   5.437  1.00  0.00     0.010 A 
HETATM   29  C   UNL     1      40.173  -6.645   4.597  1.00  0.00     0.152 A 
HETATM   30  N   UNL     1      40.405  -5.342   4.750  1.00  0.00    -0.187 NA
HETATM   31  N   UNL     1      41.364  -5.296   5.688  1.00  0.00    -0.289 N 
HETATM   32  H   UNL     1      41.714  -4.388   5.978  1.00  0.00     0.188 HD
HETATM   33  C   UNL     1      41.736  -6.535   6.134  1.00  0.00     0.123 A 
ENDBRANCH   9  28
TORSDOF 4
ENDMDL
