MODEL 1
REMARK VINA RESULT:      -9.4      0.000      0.000
REMARK  3 active torsions:
REMARK  status: ('A' for Active; 'I' for Inactive)
REMARK    1  A    between atoms: N_4  and  C_5 
REMARK    2  A    between atoms: C_15  and  C_16 
REMARK       I    between atoms: C_16  and  N_17 
REMARK    3  A    between atoms: N_17  and  C_18 
ROOT
HETATM    1  C   UNL     1      42.040 -10.227   3.867  1.00  0.00     0.073 C 
HETATM    2  C   UNL     1      42.513 -10.823   5.141  1.00  0.00     0.069 A 
HETATM    3  N   UNL     1      43.021 -10.046   6.106  1.00  0.00    -0.170 NA
HETATM    4  N   UNL     1      43.303 -10.890   7.146  1.00  0.00    -0.216 N 
HETATM    5  C   UNL     1      43.096 -12.206   6.758  1.00  0.00     0.145 A 
HETATM    6  C   UNL     1      42.554 -12.184   5.496  1.00  0.00     0.087 A 
HETATM    7  N   UNL     1      43.392 -13.361   7.402  1.00  0.00    -0.349 N 
HETATM    8  C   UNL     1      43.123 -14.556   6.754  1.00  0.00     0.111 A 
HETATM    9  C   UNL     1      42.553 -14.666   5.533  1.00  0.00     0.098 A 
HETATM   10  C   UNL     1      42.206 -13.402   4.794  1.00  0.00     0.205 A 
HETATM   11  O   UNL     1      41.684 -13.417   3.682  1.00  0.00    -0.286 OA
HETATM   12  H   UNL     1      44.001 -13.418   8.216  1.00  0.00     0.167 HD
ENDROOT
BRANCH   9  13
HETATM   13  C   UNL     1      42.327 -16.040   4.979  1.00  0.00     0.261 C 
HETATM   14  N   UNL     1      43.484 -16.720   4.659  1.00  0.00    -0.320 N 
HETATM   15  H   UNL     1      44.352 -16.190   4.737  1.00  0.00     0.169 HD
HETATM   16  O   UNL     1      41.180 -16.442   4.822  1.00  0.00    -0.267 OA
BRANCH  14  17
HETATM   17  C   UNL     1      43.635 -18.039   4.174  1.00  0.00     0.073 A 
HETATM   18  C   UNL     1      43.454 -18.467   2.854  1.00  0.00     0.143 A 
HETATM   19  F   UNL     1      43.046 -17.642   1.881  1.00  0.00    -0.204 F 
HETATM   20  C   UNL     1      43.635 -19.806   2.499  1.00  0.00     0.044 A 
HETATM   21  C   UNL     1      43.990 -20.747   3.461  1.00  0.00     0.003 A 
HETATM   22  C   UNL     1      44.156 -20.348   4.783  1.00  0.00     0.002 A 
HETATM   23  C   UNL     1      43.975 -19.006   5.136  1.00  0.00     0.033 A 
ENDBRANCH  14  17
ENDBRANCH   9  13
BRANCH   4  24
HETATM   24  C   UNL     1      43.725 -10.358   8.397  1.00  0.00     0.060 A 
HETATM   25  C   UNL     1      45.050 -10.470   8.838  1.00  0.00     0.031 A 
HETATM   26  C   UNL     1      45.427  -9.929  10.073  1.00  0.00     0.002 A 
HETATM   27  C   UNL     1      44.486  -9.285  10.875  1.00  0.00     0.000 A 
HETATM   28  C   UNL     1      43.161  -9.192  10.455  1.00  0.00     0.002 A 
HETATM   29  C   UNL     1      42.778  -9.734   9.226  1.00  0.00     0.031 A 
ENDBRANCH   4  24
TORSDOF 3
ENDMDL
MODEL 2
REMARK VINA RESULT:      -8.9      2.991      8.757
REMARK  3 active torsions:
REMARK  status: ('A' for Active; 'I' for Inactive)
REMARK    1  A    between atoms: N_4  and  C_5 
REMARK    2  A    between atoms: C_15  and  C_16 
REMARK       I    between atoms: C_16  and  N_17 
REMARK    3  A    between atoms: N_17  and  C_18 
ROOT
HETATM    1  C   UNL     1      39.653 -12.759   4.060  1.00  0.00     0.073 C 
HETATM    2  C   UNL     1      40.881 -13.504   4.431  1.00  0.00     0.069 A 
HETATM    3  N   UNL     1      41.072 -14.757   3.994  1.00  0.00    -0.170 NA
HETATM    4  N   UNL     1      42.305 -15.123   4.463  1.00  0.00    -0.216 N 
HETATM    5  C   UNL     1      42.803 -14.141   5.306  1.00  0.00     0.145 A 
HETATM    6  C   UNL     1      41.929 -13.081   5.267  1.00  0.00     0.087 A 
HETATM    7  N   UNL     1      43.900 -14.149   6.102  1.00  0.00    -0.349 N 
HETATM    8  C   UNL     1      44.141 -13.038   6.893  1.00  0.00     0.111 A 
HETATM    9  C   UNL     1      43.381 -11.919   6.913  1.00  0.00     0.098 A 
HETATM   10  C   UNL     1      42.159 -11.875   6.035  1.00  0.00     0.205 A 
HETATM   11  O   UNL     1      41.420 -10.895   5.994  1.00  0.00    -0.286 OA
HETATM   12  H   UNL     1      44.427 -14.990   6.335  1.00  0.00     0.167 HD
ENDROOT
BRANCH   9  13
HETATM   13  C   UNL     1      43.787 -10.804   7.828  1.00  0.00     0.261 C 
HETATM   14  N   UNL     1      42.841 -10.475   8.775  1.00  0.00    -0.320 N 
HETATM   15  H   UNL     1      41.941 -10.947   8.694  1.00  0.00     0.169 HD
HETATM   16  O   UNL     1      44.872 -10.259   7.662  1.00  0.00    -0.267 OA
BRANCH  14  17
HETATM   17  C   UNL     1      42.920  -9.522   9.817  1.00  0.00     0.073 A 
HETATM   18  C   UNL     1      43.661  -9.638  10.998  1.00  0.00     0.143 A 
HETATM   19  F   UNL     1      44.360 -10.738  11.302  1.00  0.00    -0.204 F 
HETATM   20  C   UNL     1      43.657  -8.618  11.954  1.00  0.00     0.044 A 
HETATM   21  C   UNL     1      42.900  -7.468  11.753  1.00  0.00     0.003 A 
HETATM   22  C   UNL     1      42.141  -7.340  10.595  1.00  0.00     0.002 A 
HETATM   23  C   UNL     1      42.148  -8.361   9.638  1.00  0.00     0.033 A 
ENDBRANCH  14  17
ENDBRANCH   9  13
BRANCH   4  24
HETATM   24  C   UNL     1      42.881 -16.358   4.051  1.00  0.00     0.060 A 
HETATM   25  C   UNL     1      43.742 -17.085   4.883  1.00  0.00     0.031 A 
HETATM   26  C   UNL     1      44.285 -18.297   4.443  1.00  0.00     0.002 A 
HETATM   27  C   UNL     1      43.981 -18.785   3.174  1.00  0.00     0.000 A 
HETATM   28  C   UNL     1      43.145 -18.056   2.331  1.00  0.00     0.002 A 
HETATM   29  C   UNL     1      42.604 -16.842   2.762  1.00  0.00     0.031 A 
ENDBRANCH   4  24
TORSDOF 3
ENDMDL
MODEL 3
REMARK VINA RESULT:      -8.8      3.591      5.066
REMARK  3 active torsions:
REMARK  status: ('A' for Active; 'I' for Inactive)
REMARK    1  A    between atoms: N_4  and  C_5 
REMARK    2  A    between atoms: C_15  and  C_16 
REMARK       I    between atoms: C_16  and  N_17 
REMARK    3  A    between atoms: N_17  and  C_18 
ROOT
HETATM    1  C   UNL     1      42.862 -15.630   7.519  1.00  0.00     0.073 C 
HETATM    2  C   UNL     1      43.218 -14.309   6.942  1.00  0.00     0.069 A 
HETATM    3  N   UNL     1      43.606 -13.304   7.739  1.00  0.00    -0.170 NA
HETATM    4  N   UNL     1      43.908 -12.267   6.898  1.00  0.00    -0.216 N 
HETATM    5  C   UNL     1      43.567 -12.598   5.594  1.00  0.00     0.145 A 
HETATM    6  C   UNL     1      43.163 -13.912   5.595  1.00  0.00     0.087 A 
HETATM    7  N   UNL     1      43.546 -11.832   4.477  1.00  0.00    -0.349 N 
HETATM    8  C   UNL     1      43.108 -12.410   3.297  1.00  0.00     0.111 A 
HETATM    9  C   UNL     1      42.726 -13.700   3.160  1.00  0.00     0.098 A 
HETATM   10  C   UNL     1      42.744 -14.581   4.380  1.00  0.00     0.205 A 
HETATM   11  O   UNL     1      42.414 -15.763   4.338  1.00  0.00    -0.286 OA
HETATM   12  H   UNL     1      43.606 -10.815   4.484  1.00  0.00     0.167 HD
ENDROOT
BRANCH   9  13
HETATM   13  C   UNL     1      42.282 -14.166   1.806  1.00  0.00     0.261 C 
HETATM   14  N   UNL     1      41.249 -13.430   1.264  1.00  0.00    -0.320 N 
HETATM   15  H   UNL     1      40.836 -12.722   1.870  1.00  0.00     0.169 HD
HETATM   16  O   UNL     1      42.818 -15.147   1.305  1.00  0.00    -0.267 OA
BRANCH  14  17
HETATM   17  C   UNL     1      40.634 -13.561  -0.002  1.00  0.00     0.073 A 
HETATM   18  C   UNL     1      39.840 -14.628  -0.437  1.00  0.00     0.143 A 
HETATM   19  F   UNL     1      39.618 -15.712   0.317  1.00  0.00    -0.204 F 
HETATM   20  C   UNL     1      39.285 -14.638  -1.720  1.00  0.00     0.044 A 
HETATM   21  C   UNL     1      39.523 -13.585  -2.598  1.00  0.00     0.003 A 
HETATM   22  C   UNL     1      40.325 -12.523  -2.193  1.00  0.00     0.002 A 
HETATM   23  C   UNL     1      40.879 -12.514  -0.908  1.00  0.00     0.033 A 
ENDBRANCH  14  17
ENDBRANCH   9  13
BRANCH   4  24
HETATM   24  C   UNL     1      44.497 -11.080   7.419  1.00  0.00     0.060 A 
HETATM   25  C   UNL     1      45.868 -10.822   7.297  1.00  0.00     0.031 A 
HETATM   26  C   UNL     1      46.409  -9.641   7.819  1.00  0.00     0.002 A 
HETATM   27  C   UNL     1      45.590  -8.721   8.470  1.00  0.00     0.000 A 
HETATM   28  C   UNL     1      44.230  -8.982   8.617  1.00  0.00     0.002 A 
HETATM   29  C   UNL     1      43.685 -10.161   8.103  1.00  0.00     0.031 A 
ENDBRANCH   4  24
TORSDOF 3
ENDMDL
MODEL 4
REMARK VINA RESULT:      -8.6      5.338      7.020
REMARK  3 active torsions:
REMARK  status: ('A' for Active; 'I' for Inactive)
REMARK    1  A    between atoms: N_4  and  C_5 
REMARK    2  A    between atoms: C_15  and  C_16 
REMARK       I    between atoms: C_16  and  N_17 
REMARK    3  A    between atoms: N_17  and  C_18 
ROOT
HETATM    1  C   UNL     1      38.580 -14.352  -2.382  1.00  0.00     0.073 C 
HETATM    2  C   UNL     1      39.407 -13.460  -1.532  1.00  0.00     0.069 A 
HETATM    3  N   UNL     1      39.660 -12.201  -1.914  1.00  0.00    -0.170 NA
HETATM    4  N   UNL     1      40.389 -11.649  -0.896  1.00  0.00    -0.216 N 
HETATM    5  C   UNL     1      40.699 -12.619   0.046  1.00  0.00     0.145 A 
HETATM    6  C   UNL     1      40.048 -13.773  -0.320  1.00  0.00     0.087 A 
HETATM    7  N   UNL     1      41.521 -12.558   1.122  1.00  0.00    -0.349 N 
HETATM    8  C   UNL     1      41.694 -13.707   1.877  1.00  0.00     0.111 A 
HETATM    9  C   UNL     1      41.078 -14.888   1.645  1.00  0.00     0.098 A 
HETATM   10  C   UNL     1      40.153 -14.988   0.462  1.00  0.00     0.205 A 
HETATM   11  O   UNL     1      39.555 -16.024   0.186  1.00  0.00    -0.286 OA
HETATM   12  H   UNL     1      42.193 -11.809   1.282  1.00  0.00     0.167 HD
ENDROOT
BRANCH   9  13
HETATM   13  C   UNL     1      41.376 -16.033   2.565  1.00  0.00     0.261 C 
HETATM   14  N   UNL     1      42.497 -16.759   2.223  1.00  0.00    -0.320 N 
HETATM   15  H   UNL     1      42.943 -16.508   1.340  1.00  0.00     0.169 HD
HETATM   16  O   UNL     1      40.619 -16.262   3.501  1.00  0.00    -0.267 OA
BRANCH  14  17
HETATM   17  C   UNL     1      43.088 -17.853   2.896  1.00  0.00     0.073 A 
HETATM   18  C   UNL     1      43.724 -17.820   4.142  1.00  0.00     0.143 A 
HETATM   19  F   UNL     1      43.895 -16.685   4.831  1.00  0.00    -0.204 F 
HETATM   20  C   UNL     1      44.270 -18.977   4.703  1.00  0.00     0.044 A 
HETATM   21  C   UNL     1      44.201 -20.189   4.023  1.00  0.00     0.003 A 
HETATM   22  C   UNL     1      43.590 -20.242   2.775  1.00  0.00     0.002 A 
HETATM   23  C   UNL     1      43.043 -19.082   2.215  1.00  0.00     0.033 A 
ENDBRANCH  14  17
ENDBRANCH   9  13
BRANCH   4  24
HETATM   24  C   UNL     1      40.701 -10.260  -0.919  1.00  0.00     0.060 A 
HETATM   25  C   UNL     1      39.744  -9.283  -0.615  1.00  0.00     0.031 A 
HETATM   26  C   UNL     1      40.092  -7.928  -0.645  1.00  0.00     0.002 A 
HETATM   27  C   UNL     1      41.386  -7.541  -0.987  1.00  0.00     0.000 A 
HETATM   28  C   UNL     1      42.336  -8.505  -1.316  1.00  0.00     0.002 A 
HETATM   29  C   UNL     1      41.994  -9.859  -1.292  1.00  0.00     0.031 A 
ENDBRANCH   4  24
TORSDOF 3
ENDMDL
MODEL 5
REMARK VINA RESULT:      -8.6      3.581      8.803
REMARK  3 active torsions:
REMARK  status: ('A' for Active; 'I' for Inactive)
REMARK    1  A    between atoms: N_4  and  C_5 
REMARK    2  A    between atoms: C_15  and  C_16 
REMARK       I    between atoms: C_16  and  N_17 
REMARK    3  A    between atoms: N_17  and  C_18 
ROOT
HETATM    1  C   UNL     1      39.603 -10.982   4.252  1.00  0.00     0.073 C 
HETATM    2  C   UNL     1      40.730 -11.924   4.463  1.00  0.00     0.069 A 
HETATM    3  N   UNL     1      40.821 -13.046   3.735  1.00  0.00    -0.170 NA
HETATM    4  N   UNL     1      41.984 -13.646   4.135  1.00  0.00    -0.216 N 
HETATM    5  C   UNL     1      42.529 -12.959   5.209  1.00  0.00     0.145 A 
HETATM    6  C   UNL     1      41.767 -11.833   5.408  1.00  0.00     0.087 A 
HETATM    7  N   UNL     1      43.574 -13.280   6.009  1.00  0.00    -0.349 N 
HETATM    8  C   UNL     1      43.879 -12.427   7.058  1.00  0.00     0.111 A 
HETATM    9  C   UNL     1      43.233 -11.271   7.331  1.00  0.00     0.098 A 
HETATM   10  C   UNL     1      42.072 -10.882   6.457  1.00  0.00     0.205 A 
HETATM   11  O   UNL     1      41.435  -9.847   6.638  1.00  0.00    -0.286 OA
HETATM   12  H   UNL     1      44.003 -14.204   6.042  1.00  0.00     0.167 HD
ENDROOT
BRANCH   9  13
HETATM   13  C   UNL     1      43.696 -10.463   8.505  1.00  0.00     0.261 C 
HETATM   14  N   UNL     1      42.693 -10.115   9.385  1.00  0.00    -0.320 N 
HETATM   15  H   UNL     1      41.743 -10.353   9.101  1.00  0.00     0.169 HD
HETATM   16  O   UNL     1      44.878 -10.149   8.588  1.00  0.00    -0.267 OA
BRANCH  14  17
HETATM   17  C   UNL     1      42.787  -9.413  10.609  1.00  0.00     0.073 A 
HETATM   18  C   UNL     1      43.099  -8.058  10.769  1.00  0.00     0.143 A 
HETATM   19  F   UNL     1      43.408  -7.264   9.737  1.00  0.00    -0.204 F 
HETATM   20  C   UNL     1      43.161  -7.478  12.040  1.00  0.00     0.044 A 
HETATM   21  C   UNL     1      42.923  -8.246  13.176  1.00  0.00     0.003 A 
HETATM   22  C   UNL     1      42.631  -9.599  13.040  1.00  0.00     0.002 A 
HETATM   23  C   UNL     1      42.568 -10.177  11.768  1.00  0.00     0.033 A 
ENDBRANCH  14  17
ENDBRANCH   9  13
BRANCH   4  24
HETATM   24  C   UNL     1      42.458 -14.800   3.447  1.00  0.00     0.060 A 
HETATM   25  C   UNL     1      43.046 -14.714   2.179  1.00  0.00     0.031 A 
HETATM   26  C   UNL     1      43.504 -15.871   1.538  1.00  0.00     0.002 A 
HETATM   27  C   UNL     1      43.369 -17.115   2.151  1.00  0.00     0.000 A 
HETATM   28  C   UNL     1      42.762 -17.212   3.401  1.00  0.00     0.002 A 
HETATM   29  C   UNL     1      42.299 -16.062   4.044  1.00  0.00     0.031 A 
ENDBRANCH   4  24
TORSDOF 3
ENDMDL
MODEL 6
REMARK VINA RESULT:      -8.6      4.028      8.528
REMARK  3 active torsions:
REMARK  status: ('A' for Active; 'I' for Inactive)
REMARK    1  A    between atoms: N_4  and  C_5 
REMARK    2  A    between atoms: C_15  and  C_16 
REMARK       I    between atoms: C_16  and  N_17 
REMARK    3  A    between atoms: N_17  and  C_18 
ROOT
HETATM    1  C   UNL     1      43.509 -14.091   6.105  1.00  0.00     0.073 C 
HETATM    2  C   UNL     1      43.239 -15.114   5.065  1.00  0.00     0.069 A 
HETATM    3  N   UNL     1      43.786 -16.334   5.155  1.00  0.00    -0.170 NA
HETATM    4  N   UNL     1      43.295 -17.035   4.087  1.00  0.00    -0.216 N 
HETATM    5  C   UNL     1      42.559 -16.194   3.266  1.00  0.00     0.145 A 
HETATM    6  C   UNL     1      42.476 -14.974   3.892  1.00  0.00     0.087 A 
HETATM    7  N   UNL     1      42.029 -16.418   2.039  1.00  0.00    -0.349 N 
HETATM    8  C   UNL     1      41.375 -15.372   1.409  1.00  0.00     0.111 A 
HETATM    9  C   UNL     1      41.191 -14.141   1.938  1.00  0.00     0.098 A 
HETATM   10  C   UNL     1      41.760 -13.861   3.303  1.00  0.00     0.205 A 
HETATM   11  O   UNL     1      41.633 -12.770   3.852  1.00  0.00    -0.286 OA
HETATM   12  H   UNL     1      42.272 -17.215   1.452  1.00  0.00     0.167 HD
ENDROOT
BRANCH   9  13
HETATM   13  C   UNL     1      40.454 -13.124   1.121  1.00  0.00     0.261 C 
HETATM   14  N   UNL     1      40.910 -12.999  -0.174  1.00  0.00    -0.320 N 
HETATM   15  H   UNL     1      41.749 -13.529  -0.409  1.00  0.00     0.169 HD
HETATM   16  O   UNL     1      39.555 -12.473   1.642  1.00  0.00    -0.267 OA
BRANCH  14  17
HETATM   17  C   UNL     1      40.412 -12.184  -1.218  1.00  0.00     0.073 A 
HETATM   18  C   UNL     1      39.147 -12.270  -1.810  1.00  0.00     0.143 A 
HETATM   19  F   UNL     1      38.258 -13.211  -1.472  1.00  0.00    -0.204 F 
HETATM   20  C   UNL     1      38.773 -11.400  -2.839  1.00  0.00     0.044 A 
HETATM   21  C   UNL     1      39.662 -10.435  -3.303  1.00  0.00     0.003 A 
HETATM   22  C   UNL     1      40.931 -10.345  -2.741  1.00  0.00     0.002 A 
HETATM   23  C   UNL     1      41.303 -11.215  -1.711  1.00  0.00     0.033 A 
ENDBRANCH  14  17
ENDBRANCH   9  13
BRANCH   4  24
HETATM   24  C   UNL     1      43.568 -18.427   3.967  1.00  0.00     0.060 A 
HETATM   25  C   UNL     1      43.519 -19.085   2.732  1.00  0.00     0.031 A 
HETATM   26  C   UNL     1      43.798 -20.455   2.654  1.00  0.00     0.002 A 
HETATM   27  C   UNL     1      44.117 -21.173   3.805  1.00  0.00     0.000 A 
HETATM   28  C   UNL     1      44.143 -20.531   5.041  1.00  0.00     0.002 A 
HETATM   29  C   UNL     1      43.861 -19.166   5.125  1.00  0.00     0.031 A 
ENDBRANCH   4  24
TORSDOF 3
ENDMDL
MODEL 7
REMARK VINA RESULT:      -8.4      3.882      6.680
REMARK  3 active torsions:
REMARK  status: ('A' for Active; 'I' for Inactive)
REMARK    1  A    between atoms: N_4  and  C_5 
REMARK    2  A    between atoms: C_15  and  C_16 
REMARK       I    between atoms: C_16  and  N_17 
REMARK    3  A    between atoms: N_17  and  C_18 
ROOT
HETATM    1  C   UNL     1      42.435 -10.400   3.797  1.00  0.00     0.073 C 
HETATM    2  C   UNL     1      42.021 -11.049   2.529  1.00  0.00     0.069 A 
HETATM    3  N   UNL     1      41.638 -10.308   1.480  1.00  0.00    -0.170 NA
HETATM    4  N   UNL     1      41.382 -11.200   0.475  1.00  0.00    -0.216 N 
HETATM    5  C   UNL     1      41.473 -12.498   0.957  1.00  0.00     0.145 A 
HETATM    6  C   UNL     1      41.920 -12.425   2.255  1.00  0.00     0.087 A 
HETATM    7  N   UNL     1      41.153 -13.673   0.364  1.00  0.00    -0.349 N 
HETATM    8  C   UNL     1      41.295 -14.837   1.102  1.00  0.00     0.111 A 
HETATM    9  C   UNL     1      41.763 -14.900   2.369  1.00  0.00     0.098 A 
HETATM   10  C   UNL     1      42.134 -13.613   3.055  1.00  0.00     0.205 A 
HETATM   11  O   UNL     1      42.569 -13.587   4.203  1.00  0.00    -0.286 OA
HETATM   12  H   UNL     1      40.604 -13.747  -0.492  1.00  0.00     0.167 HD
ENDROOT
BRANCH   9  13
HETATM   13  C   UNL     1      41.857 -16.246   3.021  1.00  0.00     0.261 C 
HETATM   14  N   UNL     1      42.938 -16.999   2.615  1.00  0.00    -0.320 N 
HETATM   15  H   UNL     1      43.495 -16.611   1.854  1.00  0.00     0.169 HD
HETATM   16  O   UNL     1      40.987 -16.589   3.814  1.00  0.00    -0.267 OA
BRANCH  14  17
HETATM   17  C   UNL     1      43.352 -18.274   3.064  1.00  0.00     0.073 A 
HETATM   18  C   UNL     1      43.902 -18.579   4.314  1.00  0.00     0.143 A 
HETATM   19  F   UNL     1      44.155 -17.641   5.236  1.00  0.00    -0.204 F 
HETATM   20  C   UNL     1      44.273 -19.887   4.639  1.00  0.00     0.044 A 
HETATM   21  C   UNL     1      44.112 -20.914   3.714  1.00  0.00     0.003 A 
HETATM   22  C   UNL     1      43.586 -20.630   2.458  1.00  0.00     0.002 A 
HETATM   23  C   UNL     1      43.214 -19.321   2.136  1.00  0.00     0.033 A 
ENDBRANCH  14  17
ENDBRANCH   9  13
BRANCH   4  24
HETATM   24  C   UNL     1      41.091 -10.727  -0.836  1.00  0.00     0.060 A 
HETATM   25  C   UNL     1      41.769  -9.637  -1.395  1.00  0.00     0.031 A 
HETATM   26  C   UNL     1      41.456  -9.204  -2.689  1.00  0.00     0.002 A 
HETATM   27  C   UNL     1      40.463  -9.848  -3.425  1.00  0.00     0.000 A 
HETATM   28  C   UNL     1      39.766 -10.917  -2.866  1.00  0.00     0.002 A 
HETATM   29  C   UNL     1      40.070 -11.350  -1.573  1.00  0.00     0.031 A 
ENDBRANCH   4  24
TORSDOF 3
ENDMDL
MODEL 8
REMARK VINA RESULT:      -8.4      3.919      5.403
REMARK  3 active torsions:
REMARK  status: ('A' for Active; 'I' for Inactive)
REMARK    1  A    between atoms: N_4  and  C_5 
REMARK    2  A    between atoms: C_15  and  C_16 
REMARK       I    between atoms: C_16  and  N_17 
REMARK    3  A    between atoms: N_17  and  C_18 
ROOT
HETATM    1  C   UNL     1      43.122 -15.584   5.947  1.00  0.00     0.073 C 
HETATM    2  C   UNL     1      43.243 -14.106   5.920  1.00  0.00     0.069 A 
HETATM    3  N   UNL     1      43.824 -13.454   6.936  1.00  0.00    -0.170 NA
HETATM    4  N   UNL     1      43.822 -12.134   6.573  1.00  0.00    -0.216 N 
HETATM    5  C   UNL     1      43.111 -11.967   5.394  1.00  0.00     0.145 A 
HETATM    6  C   UNL     1      42.768 -13.218   4.938  1.00  0.00     0.087 A 
HETATM    7  N   UNL     1      42.727 -10.833   4.761  1.00  0.00    -0.349 N 
HETATM    8  C   UNL     1      41.967 -10.953   3.608  1.00  0.00     0.111 A 
HETATM    9  C   UNL     1      41.602 -12.124   3.038  1.00  0.00     0.098 A 
HETATM   10  C   UNL     1      42.019 -13.404   3.712  1.00  0.00     0.205 A 
HETATM   11  O   UNL     1      41.730 -14.507   3.257  1.00  0.00    -0.286 OA
HETATM   12  H   UNL     1      42.754  -9.907   5.186  1.00  0.00     0.167 HD
ENDROOT
BRANCH   9  13
HETATM   13  C   UNL     1      40.781 -12.075   1.785  1.00  0.00     0.261 C 
HETATM   14  N   UNL     1      41.217 -12.922   0.789  1.00  0.00    -0.320 N 
HETATM   15  H   UNL     1      42.093 -13.412   0.966  1.00  0.00     0.169 HD
HETATM   16  O   UNL     1      39.838 -11.296   1.718  1.00  0.00    -0.267 OA
BRANCH  14  17
HETATM   17  C   UNL     1      40.649 -13.165  -0.483  1.00  0.00     0.073 A 
HETATM   18  C   UNL     1      40.841 -12.402  -1.641  1.00  0.00     0.143 A 
HETATM   19  F   UNL     1      41.573 -11.281  -1.649  1.00  0.00    -0.204 F 
HETATM   20  C   UNL     1      40.221 -12.748  -2.844  1.00  0.00     0.044 A 
HETATM   21  C   UNL     1      39.385 -13.859  -2.910  1.00  0.00     0.003 A 
HETATM   22  C   UNL     1      39.164 -14.621  -1.767  1.00  0.00     0.002 A 
HETATM   23  C   UNL     1      39.788 -14.273  -0.564  1.00  0.00     0.033 A 
ENDBRANCH  14  17
ENDBRANCH   9  13
BRANCH   4  24
HETATM   24  C   UNL     1      44.505 -11.177   7.376  1.00  0.00     0.060 A 
HETATM   25  C   UNL     1      45.796 -10.735   7.060  1.00  0.00     0.031 A 
HETATM   26  C   UNL     1      46.432  -9.789   7.873  1.00  0.00     0.002 A 
HETATM   27  C   UNL     1      45.790  -9.289   9.005  1.00  0.00     0.000 A 
HETATM   28  C   UNL     1      44.517  -9.743   9.339  1.00  0.00     0.002 A 
HETATM   29  C   UNL     1      43.879 -10.690   8.535  1.00  0.00     0.031 A 
ENDBRANCH   4  24
TORSDOF 3
ENDMDL
MODEL 9
REMARK VINA RESULT:      -8.3      2.617      8.516
REMARK  3 active torsions:
REMARK  status: ('A' for Active; 'I' for Inactive)
REMARK    1  A    between atoms: N_4  and  C_5 
REMARK    2  A    between atoms: C_15  and  C_16 
REMARK       I    between atoms: C_16  and  N_17 
REMARK    3  A    between atoms: N_17  and  C_18 
ROOT
HETATM    1  C   UNL     1      40.581 -14.749   0.859  1.00  0.00     0.073 C 
HETATM    2  C   UNL     1      41.455 -15.350   1.896  1.00  0.00     0.069 A 
HETATM    3  N   UNL     1      41.638 -16.676   1.945  1.00  0.00    -0.170 NA
HETATM    4  N   UNL     1      42.527 -16.886   2.964  1.00  0.00    -0.216 N 
HETATM    5  C   UNL     1      42.777 -15.695   3.628  1.00  0.00     0.145 A 
HETATM    6  C   UNL     1      42.135 -14.695   2.938  1.00  0.00     0.087 A 
HETATM    7  N   UNL     1      43.461 -15.463   4.775  1.00  0.00    -0.349 N 
HETATM    8  C   UNL     1      43.514 -14.163   5.252  1.00  0.00     0.111 A 
HETATM    9  C   UNL     1      42.961 -13.090   4.643  1.00  0.00     0.098 A 
HETATM   10  C   UNL     1      42.201 -13.312   3.364  1.00  0.00     0.205 A 
HETATM   11  O   UNL     1      41.672 -12.389   2.750  1.00  0.00    -0.286 OA
HETATM   12  H   UNL     1      43.739 -16.193   5.429  1.00  0.00     0.167 HD
ENDROOT
BRANCH   9  13
HETATM   13  C   UNL     1      43.116 -11.749   5.295  1.00  0.00     0.261 C 
HETATM   14  N   UNL     1      43.911 -11.756   6.422  1.00  0.00    -0.320 N 
HETATM   15  H   UNL     1      44.223 -12.670   6.747  1.00  0.00     0.169 HD
HETATM   16  O   UNL     1      42.527 -10.783   4.825  1.00  0.00    -0.267 OA
BRANCH  14  17
HETATM   17  C   UNL     1      44.307 -10.670   7.237  1.00  0.00     0.073 A 
HETATM   18  C   UNL     1      43.464  -9.832   7.977  1.00  0.00     0.143 A 
HETATM   19  F   UNL     1      42.131  -9.944   7.942  1.00  0.00    -0.204 F 
HETATM   20  C   UNL     1      43.982  -8.788   8.748  1.00  0.00     0.044 A 
HETATM   21  C   UNL     1      45.354  -8.554   8.786  1.00  0.00     0.003 A 
HETATM   22  C   UNL     1      46.208  -9.363   8.043  1.00  0.00     0.002 A 
HETATM   23  C   UNL     1      45.688 -10.408   7.272  1.00  0.00     0.033 A 
ENDBRANCH  14  17
ENDBRANCH   9  13
BRANCH   4  24
HETATM   24  C   UNL     1      43.052 -18.190   3.189  1.00  0.00     0.060 A 
HETATM   25  C   UNL     1      43.692 -18.532   4.387  1.00  0.00     0.031 A 
HETATM   26  C   UNL     1      44.191 -19.827   4.572  1.00  0.00     0.002 A 
HETATM   27  C   UNL     1      44.063 -20.780   3.563  1.00  0.00     0.000 A 
HETATM   28  C   UNL     1      43.451 -20.441   2.359  1.00  0.00     0.002 A 
HETATM   29  C   UNL     1      42.955 -19.149   2.167  1.00  0.00     0.031 A 
ENDBRANCH   4  24
TORSDOF 3
ENDMDL
MODEL 10
REMARK VINA RESULT:      -8.2      4.509      9.012
REMARK  3 active torsions:
REMARK  status: ('A' for Active; 'I' for Inactive)
REMARK    1  A    between atoms: N_4  and  C_5 
REMARK    2  A    between atoms: C_15  and  C_16 
REMARK       I    between atoms: C_16  and  N_17 
REMARK    3  A    between atoms: N_17  and  C_18 
ROOT
HETATM    1  C   UNL     1      41.359 -16.740   2.604  1.00  0.00     0.073 C 
HETATM    2  C   UNL     1      41.096 -15.444   1.930  1.00  0.00     0.069 A 
HETATM    3  N   UNL     1      40.356 -15.398   0.813  1.00  0.00    -0.170 NA
HETATM    4  N   UNL     1      40.264 -14.072   0.490  1.00  0.00    -0.216 N 
HETATM    5  C   UNL     1      41.067 -13.320   1.335  1.00  0.00     0.145 A 
HETATM    6  C   UNL     1      41.575 -14.172   2.286  1.00  0.00     0.087 A 
HETATM    7  N   UNL     1      41.399 -12.007   1.283  1.00  0.00    -0.349 N 
HETATM    8  C   UNL     1      42.276 -11.517   2.238  1.00  0.00     0.111 A 
HETATM    9  C   UNL     1      42.809 -12.243   3.247  1.00  0.00     0.098 A 
HETATM   10  C   UNL     1      42.455 -13.703   3.337  1.00  0.00     0.205 A 
HETATM   11  O   UNL     1      42.896 -14.428   4.225  1.00  0.00    -0.286 OA
HETATM   12  H   UNL     1      41.238 -11.412   0.472  1.00  0.00     0.167 HD
ENDROOT
BRANCH   9  13
HETATM   13  C   UNL     1      43.740 -11.553   4.197  1.00  0.00     0.261 C 
HETATM   14  N   UNL     1      43.237 -11.397   5.471  1.00  0.00    -0.320 N 
HETATM   15  H   UNL     1      42.264 -11.671   5.607  1.00  0.00     0.169 HD
HETATM   16  O   UNL     1      44.828 -11.161   3.791  1.00  0.00    -0.267 OA
BRANCH  14  17
HETATM   17  C   UNL     1      43.863 -10.847   6.614  1.00  0.00     0.073 A 
HETATM   18  C   UNL     1      45.107 -11.214   7.140  1.00  0.00     0.143 A 
HETATM   19  F   UNL     1      45.840 -12.208   6.623  1.00  0.00    -0.204 F 
HETATM   20  C   UNL     1      45.619 -10.590   8.281  1.00  0.00     0.044 A 
HETATM   21  C   UNL     1      44.891  -9.594   8.925  1.00  0.00     0.003 A 
HETATM   22  C   UNL     1      43.644  -9.228   8.431  1.00  0.00     0.002 A 
HETATM   23  C   UNL     1      43.133  -9.852   7.288  1.00  0.00     0.033 A 
ENDBRANCH  14  17
ENDBRANCH   9  13
BRANCH   4  24
HETATM   24  C   UNL     1      39.414 -13.659  -0.575  1.00  0.00     0.060 A 
HETATM   25  C   UNL     1      38.682 -12.466  -0.517  1.00  0.00     0.031 A 
HETATM   26  C   UNL     1      37.861 -12.094  -1.587  1.00  0.00     0.002 A 
HETATM   27  C   UNL     1      37.759 -12.910  -2.713  1.00  0.00     0.000 A 
HETATM   28  C   UNL     1      38.464 -14.110  -2.768  1.00  0.00     0.002 A 
HETATM   29  C   UNL     1      39.281 -14.490  -1.701  1.00  0.00     0.031 A 
ENDBRANCH   4  24
TORSDOF 3
ENDMDL
