MODEL 1
REMARK VINA RESULT:      -9.2      0.000      0.000
REMARK  5 active torsions:
REMARK  status: ('A' for Active; 'I' for Inactive)
REMARK    1  A    between atoms: C_6  and  N_7 
REMARK       I    between atoms: N_7  and  C_8 
REMARK       I    between atoms: C_8  and  N_9 
REMARK    2  A    between atoms: N_9  and  C_10 
REMARK    3  A    between atoms: C_10  and  C_11 
REMARK    4  A    between atoms: C_14  and  N_15 
REMARK       I    between atoms: N_15  and  C_16 
REMARK    5  A    between atoms: C_16  and  C_17 
ROOT
HETATM    1  C   UNL     1      42.022 -12.839   4.682  1.00  0.00    -0.040 A 
HETATM    2  C   UNL     1      40.644 -13.059   4.575  1.00  0.00     0.011 A 
HETATM    3  C   UNL     1      40.028 -13.145   3.322  1.00  0.00     0.030 A 
HETATM    4  C   UNL     1      40.780 -13.028   2.153  1.00  0.00     0.035 A 
HETATM    5  C   UNL     1      42.157 -12.803   2.258  1.00  0.00     0.030 A 
HETATM    6  C   UNL     1      42.775 -12.710   3.509  1.00  0.00     0.011 A 
ENDROOT
BRANCH   1   7
HETATM    7  C   UNL     1      42.689 -12.818   6.031  1.00  0.00     0.162 C 
BRANCH   7   8
HETATM    8  N   UNL     1      42.417 -14.044   6.750  1.00  0.00    -0.339 N 
HETATM    9  C   UNL     1      42.476 -15.332   6.312  1.00  0.00     0.320 C 
HETATM   10  N   UNL     1      43.143 -15.533   5.136  1.00  0.00    -0.309 N 
HETATM   11  O   UNL     1      41.938 -16.191   7.003  1.00  0.00    -0.247 OA
HETATM   12  H   UNL     1      43.699 -14.764   4.804  1.00  0.00     0.170 HD
HETATM   13  H   UNL     1      41.874 -13.969   7.602  1.00  0.00     0.164 HD
BRANCH  10  14
HETATM   14  C   UNL     1      43.311 -16.752   4.443  1.00  0.00     0.037 A 
HETATM   15  C   UNL     1      43.688 -17.950   5.051  1.00  0.00     0.049 A 
HETATM   16  C   UNL     1      43.841 -19.117   4.289  1.00  0.00     0.019 A 
HETATM   17  C   UNL     1      43.620 -19.109   2.904  1.00  0.00    -0.044 A 
HETATM   18 BR   UNL     1      44.355 -20.702   5.208  1.00  0.00    -0.051 Br
HETATM   19  C   UNL     1      43.782 -20.336   2.053  1.00  0.00     0.049 C 
HETATM   20  C   UNL     1      43.229 -17.905   2.304  1.00  0.00     0.010 A 
HETATM   21  C   UNL     1      43.072 -16.743   3.065  1.00  0.00     0.030 A 
ENDBRANCH  10  14
ENDBRANCH   7   8
ENDBRANCH   1   7
BRANCH   4  22
HETATM   22  N   UNL     1      40.244 -13.151   0.858  1.00  0.00    -0.321 N 
HETATM   23  C   UNL     1      39.921 -14.307   0.168  1.00  0.00     0.279 C 
HETATM   24  O   UNL     1      39.983 -15.447   0.616  1.00  0.00    -0.265 OA
HETATM   25  H   UNL     1      40.095 -12.294   0.336  1.00  0.00     0.169 HD
BRANCH  23  26
HETATM   26  C   UNL     1      39.485 -14.039  -1.192  1.00  0.00     0.142 A 
HETATM   27  O   UNL     1      39.612 -12.771  -1.705  1.00  0.00    -0.317 OA
HETATM   28  C   UNL     1      39.153 -12.810  -2.983  1.00  0.00     0.143 A 
HETATM   29  C   UNL     1      38.726 -14.077  -3.306  1.00  0.00     0.027 A 
HETATM   30  C   UNL     1      38.938 -14.868  -2.152  1.00  0.00     0.045 A 
ENDBRANCH  23  26
ENDBRANCH   4  22
TORSDOF 5
ENDMDL
MODEL 2
REMARK VINA RESULT:      -9.0      4.045      8.207
REMARK  5 active torsions:
REMARK  status: ('A' for Active; 'I' for Inactive)
REMARK    1  A    between atoms: C_6  and  N_7 
REMARK       I    between atoms: N_7  and  C_8 
REMARK       I    between atoms: C_8  and  N_9 
REMARK    2  A    between atoms: N_9  and  C_10 
REMARK    3  A    between atoms: C_10  and  C_11 
REMARK    4  A    between atoms: C_14  and  N_15 
REMARK       I    between atoms: N_15  and  C_16 
REMARK    5  A    between atoms: C_16  and  C_17 
ROOT
HETATM    1  C   UNL     1      43.377 -11.825   5.071  1.00  0.00    -0.040 A 
HETATM    2  C   UNL     1      44.126 -12.408   6.100  1.00  0.00     0.011 A 
HETATM    3  C   UNL     1      44.079 -11.892   7.399  1.00  0.00     0.030 A 
HETATM    4  C   UNL     1      43.272 -10.795   7.697  1.00  0.00     0.035 A 
HETATM    5  C   UNL     1      42.526 -10.207   6.669  1.00  0.00     0.030 A 
HETATM    6  C   UNL     1      42.576 -10.717   5.368  1.00  0.00     0.011 A 
ENDROOT
BRANCH   1   7
HETATM    7  C   UNL     1      43.377 -12.428   3.691  1.00  0.00     0.162 C 
BRANCH   7   8
HETATM    8  N   UNL     1      42.234 -13.298   3.518  1.00  0.00    -0.339 N 
HETATM    9  C   UNL     1      42.165 -14.656   3.592  1.00  0.00     0.320 C 
HETATM   10  N   UNL     1      43.232 -15.278   4.178  1.00  0.00    -0.309 N 
HETATM   11  O   UNL     1      41.162 -15.198   3.139  1.00  0.00    -0.247 OA
HETATM   12  H   UNL     1      43.871 -14.684   4.680  1.00  0.00     0.170 HD
HETATM   13  H   UNL     1      41.429 -12.914   3.037  1.00  0.00     0.164 HD
BRANCH  10  14
HETATM   14  C   UNL     1      43.433 -16.666   4.340  1.00  0.00     0.037 A 
HETATM   15  C   UNL     1      43.467 -17.578   3.284  1.00  0.00     0.049 A 
HETATM   16  C   UNL     1      43.665 -18.944   3.531  1.00  0.00     0.019 A 
HETATM   17  C   UNL     1      43.833 -19.424   4.838  1.00  0.00    -0.044 A 
HETATM   18 BR   UNL     1      43.697 -20.110   2.028  1.00  0.00    -0.051 Br
HETATM   19  C   UNL     1      44.039 -20.880   5.143  1.00  0.00     0.049 C 
HETATM   20  C   UNL     1      43.813 -18.500   5.890  1.00  0.00     0.010 A 
HETATM   21  C   UNL     1      43.619 -17.137   5.643  1.00  0.00     0.030 A 
ENDBRANCH  10  14
ENDBRANCH   7   8
ENDBRANCH   1   7
BRANCH   4  22
HETATM   22  N   UNL     1      43.133 -10.249   8.987  1.00  0.00    -0.321 N 
HETATM   23  C   UNL     1      44.047 -10.253  10.026  1.00  0.00     0.279 C 
HETATM   24  O   UNL     1      45.194 -10.684   9.966  1.00  0.00    -0.265 OA
HETATM   25  H   UNL     1      42.243  -9.816   9.212  1.00  0.00     0.169 HD
BRANCH  23  26
HETATM   26  C   UNL     1      43.505  -9.679  11.246  1.00  0.00     0.142 A 
HETATM   27  O   UNL     1      42.676 -10.434  12.038  1.00  0.00    -0.317 OA
HETATM   28  C   UNL     1      42.339  -9.667  13.108  1.00  0.00     0.143 A 
HETATM   29  C   UNL     1      42.930  -8.428  13.021  1.00  0.00     0.027 A 
HETATM   30  C   UNL     1      43.681  -8.435  11.821  1.00  0.00     0.045 A 
ENDBRANCH  23  26
ENDBRANCH   4  22
TORSDOF 5
ENDMDL
MODEL 3
REMARK VINA RESULT:      -8.9      4.828      8.685
REMARK  5 active torsions:
REMARK  status: ('A' for Active; 'I' for Inactive)
REMARK    1  A    between atoms: C_6  and  N_7 
REMARK       I    between atoms: N_7  and  C_8 
REMARK       I    between atoms: C_8  and  N_9 
REMARK    2  A    between atoms: N_9  and  C_10 
REMARK    3  A    between atoms: C_10  and  C_11 
REMARK    4  A    between atoms: C_14  and  N_15 
REMARK       I    between atoms: N_15  and  C_16 
REMARK    5  A    between atoms: C_16  and  C_17 
ROOT
HETATM    1  C   UNL     1      43.527 -11.484   6.487  1.00  0.00    -0.040 A 
HETATM    2  C   UNL     1      44.558 -11.509   7.433  1.00  0.00     0.011 A 
HETATM    3  C   UNL     1      44.520 -10.674   8.555  1.00  0.00     0.030 A 
HETATM    4  C   UNL     1      43.445  -9.810   8.760  1.00  0.00     0.035 A 
HETATM    5  C   UNL     1      42.415  -9.780   7.813  1.00  0.00     0.030 A 
HETATM    6  C   UNL     1      42.453 -10.609   6.687  1.00  0.00     0.011 A 
ENDROOT
BRANCH   1   7
HETATM    7  C   UNL     1      43.538 -12.435   5.320  1.00  0.00     0.162 C 
BRANCH   7   8
HETATM    8  N   UNL     1      42.340 -13.245   5.315  1.00  0.00    -0.339 N 
HETATM    9  C   UNL     1      42.149 -14.500   4.820  1.00  0.00     0.320 C 
HETATM   10  N   UNL     1      43.282 -15.212   4.543  1.00  0.00    -0.309 N 
HETATM   11  O   UNL     1      40.992 -14.881   4.673  1.00  0.00    -0.247 OA
HETATM   12  H   UNL     1      44.142 -14.839   4.911  1.00  0.00     0.170 HD
HETATM   13  H   UNL     1      41.458 -12.767   5.456  1.00  0.00     0.164 HD
BRANCH  10  14
HETATM   14  C   UNL     1      43.368 -16.506   3.986  1.00  0.00     0.037 A 
HETATM   15  C   UNL     1      43.707 -17.648   4.713  1.00  0.00     0.049 A 
HETATM   16  C   UNL     1      43.776 -18.898   4.081  1.00  0.00     0.019 A 
HETATM   17  C   UNL     1      43.508 -19.031   2.711  1.00  0.00    -0.044 A 
HETATM   18 BR   UNL     1      44.245 -20.397   5.156  1.00  0.00    -0.051 Br
HETATM   19  C   UNL     1      43.580 -20.350   1.998  1.00  0.00     0.049 C 
HETATM   20  C   UNL     1      43.154 -17.882   1.992  1.00  0.00     0.010 A 
HETATM   21  C   UNL     1      43.081 -16.636   2.623  1.00  0.00     0.030 A 
ENDBRANCH  10  14
ENDBRANCH   7   8
ENDBRANCH   1   7
BRANCH   4  22
HETATM   22  N   UNL     1      43.310  -8.977   9.885  1.00  0.00    -0.321 N 
HETATM   23  C   UNL     1      42.947  -9.325  11.175  1.00  0.00     0.279 C 
HETATM   24  O   UNL     1      42.749 -10.467  11.576  1.00  0.00    -0.265 OA
HETATM   25  H   UNL     1      43.466  -7.984   9.746  1.00  0.00     0.169 HD
BRANCH  23  26
HETATM   26  C   UNL     1      42.815  -8.170  12.046  1.00  0.00     0.142 A 
HETATM   27  O   UNL     1      42.090  -7.083  11.624  1.00  0.00    -0.317 OA
HETATM   28  C   UNL     1      42.114  -6.172  12.630  1.00  0.00     0.143 A 
HETATM   29  C   UNL     1      42.845  -6.645  13.695  1.00  0.00     0.027 A 
HETATM   30  C   UNL     1      43.298  -7.932  13.319  1.00  0.00     0.045 A 
ENDBRANCH  23  26
ENDBRANCH   4  22
TORSDOF 5
ENDMDL
MODEL 4
REMARK VINA RESULT:      -8.9      5.348      8.970
REMARK  5 active torsions:
REMARK  status: ('A' for Active; 'I' for Inactive)
REMARK    1  A    between atoms: C_6  and  N_7 
REMARK       I    between atoms: N_7  and  C_8 
REMARK       I    between atoms: C_8  and  N_9 
REMARK    2  A    between atoms: N_9  and  C_10 
REMARK    3  A    between atoms: C_10  and  C_11 
REMARK    4  A    between atoms: C_14  and  N_15 
REMARK       I    between atoms: N_15  and  C_16 
REMARK    5  A    between atoms: C_16  and  C_17 
ROOT
HETATM    1  C   UNL     1      42.720 -12.502   5.389  1.00  0.00    -0.040 A 
HETATM    2  C   UNL     1      42.576 -13.553   6.301  1.00  0.00     0.011 A 
HETATM    3  C   UNL     1      42.611 -14.884   5.871  1.00  0.00     0.030 A 
HETATM    4  C   UNL     1      42.805 -15.189   4.525  1.00  0.00     0.035 A 
HETATM    5  C   UNL     1      42.945 -14.139   3.609  1.00  0.00     0.030 A 
HETATM    6  C   UNL     1      42.904 -12.808   4.035  1.00  0.00     0.011 A 
ENDROOT
BRANCH   1   7
HETATM    7  C   UNL     1      42.753 -11.075   5.867  1.00  0.00     0.162 C 
BRANCH   7   8
HETATM    8  N   UNL     1      43.995 -10.799   6.555  1.00  0.00    -0.339 N 
HETATM    9  C   UNL     1      44.201 -10.172   7.746  1.00  0.00     0.320 C 
HETATM   10  N   UNL     1      43.100 -10.028   8.543  1.00  0.00    -0.309 N 
HETATM   11  O   UNL     1      45.341  -9.802   8.002  1.00  0.00    -0.247 OA
HETATM   12  H   UNL     1      42.290 -10.566   8.283  1.00  0.00     0.170 HD
HETATM   13  H   UNL     1      44.845 -10.832   6.004  1.00  0.00     0.164 HD
BRANCH  10  14
HETATM   14  C   UNL     1      43.027  -9.383   9.797  1.00  0.00     0.037 A 
HETATM   15  C   UNL     1      42.668  -8.045   9.967  1.00  0.00     0.049 A 
HETATM   16  C   UNL     1      42.627  -7.477  11.248  1.00  0.00     0.019 A 
HETATM   17  C   UNL     1      42.942  -8.235  12.384  1.00  0.00    -0.044 A 
HETATM   18 BR   UNL     1      42.125  -5.647  11.378  1.00  0.00    -0.051 Br
HETATM   19  C   UNL     1      42.918  -7.661  13.772  1.00  0.00     0.049 C 
HETATM   20  C   UNL     1      43.287  -9.582  12.207  1.00  0.00     0.010 A 
HETATM   21  C   UNL     1      43.325 -10.149  10.929  1.00  0.00     0.030 A 
ENDBRANCH  10  14
ENDBRANCH   7   8
ENDBRANCH   1   7
BRANCH   4  22
HETATM   22  N   UNL     1      42.902 -16.499   4.021  1.00  0.00    -0.321 N 
HETATM   23  C   UNL     1      43.843 -17.469   4.322  1.00  0.00     0.279 C 
HETATM   24  O   UNL     1      44.732 -17.365   5.159  1.00  0.00    -0.265 OA
HETATM   25  H   UNL     1      42.218 -16.778   3.325  1.00  0.00     0.169 HD
BRANCH  23  26
HETATM   26  C   UNL     1      43.676 -18.672   3.523  1.00  0.00     0.142 A 
HETATM   27  O   UNL     1      44.114 -19.876   4.016  1.00  0.00    -0.317 OA
HETATM   28  C   UNL     1      43.817 -20.820   3.085  1.00  0.00     0.143 A 
HETATM   29  C   UNL     1      43.199 -20.249   1.997  1.00  0.00     0.027 A 
HETATM   30  C   UNL     1      43.109 -18.865   2.278  1.00  0.00     0.045 A 
ENDBRANCH  23  26
ENDBRANCH   4  22
TORSDOF 5
ENDMDL
MODEL 5
REMARK VINA RESULT:      -8.2      5.250      8.954
REMARK  5 active torsions:
REMARK  status: ('A' for Active; 'I' for Inactive)
REMARK    1  A    between atoms: C_6  and  N_7 
REMARK       I    between atoms: N_7  and  C_8 
REMARK       I    between atoms: C_8  and  N_9 
REMARK    2  A    between atoms: N_9  and  C_10 
REMARK    3  A    between atoms: C_10  and  C_11 
REMARK    4  A    between atoms: C_14  and  N_15 
REMARK       I    between atoms: N_15  and  C_16 
REMARK    5  A    between atoms: C_16  and  C_17 
ROOT
HETATM    1  C   UNL     1      41.882 -12.578   5.318  1.00  0.00    -0.040 A 
HETATM    2  C   UNL     1      42.620 -12.749   4.141  1.00  0.00     0.011 A 
HETATM    3  C   UNL     1      42.913 -14.030   3.660  1.00  0.00     0.030 A 
HETATM    4  C   UNL     1      42.462 -15.162   4.338  1.00  0.00     0.035 A 
HETATM    5  C   UNL     1      41.727 -14.993   5.518  1.00  0.00     0.030 A 
HETATM    6  C   UNL     1      41.439 -13.714   6.004  1.00  0.00     0.011 A 
ENDROOT
BRANCH   1   7
HETATM    7  C   UNL     1      41.510 -11.198   5.791  1.00  0.00     0.162 C 
BRANCH   7   8
HETATM    8  N   UNL     1      40.103 -11.137   6.118  1.00  0.00    -0.339 N 
HETATM    9  C   UNL     1      39.496 -10.633   7.229  1.00  0.00     0.320 C 
HETATM   10  N   UNL     1      40.268  -9.826   8.017  1.00  0.00    -0.309 N 
HETATM   11  O   UNL     1      38.323 -10.936   7.421  1.00  0.00    -0.247 OA
HETATM   12  H   UNL     1      41.135  -9.511   7.615  1.00  0.00     0.170 HD
HETATM   13  H   UNL     1      39.482 -11.756   5.609  1.00  0.00     0.164 HD
BRANCH  10  14
HETATM   14  C   UNL     1      39.903  -9.214   9.236  1.00  0.00     0.037 A 
HETATM   15  C   UNL     1      40.298  -9.680  10.491  1.00  0.00     0.049 A 
HETATM   16  C   UNL     1      39.886  -9.018  11.656  1.00  0.00     0.019 A 
HETATM   17  C   UNL     1      39.072  -7.878  11.590  1.00  0.00    -0.044 A 
HETATM   18 BR   UNL     1      40.477  -9.726  13.320  1.00  0.00    -0.051 Br
HETATM   19  C   UNL     1      38.603  -7.148  12.816  1.00  0.00     0.049 C 
HETATM   20  C   UNL     1      38.692  -7.409  10.326  1.00  0.00     0.010 A 
HETATM   21  C   UNL     1      39.106  -8.067   9.164  1.00  0.00     0.030 A 
ENDBRANCH  10  14
ENDBRANCH   7   8
ENDBRANCH   1   7
BRANCH   4  22
HETATM   22  N   UNL     1      42.672 -16.480   3.894  1.00  0.00    -0.321 N 
HETATM   23  C   UNL     1      43.677 -17.360   4.257  1.00  0.00     0.279 C 
HETATM   24  O   UNL     1      44.534 -17.151   5.109  1.00  0.00    -0.265 OA
HETATM   25  H   UNL     1      42.030 -16.841   3.196  1.00  0.00     0.169 HD
BRANCH  23  26
HETATM   26  C   UNL     1      43.625 -18.604   3.508  1.00  0.00     0.142 A 
HETATM   27  O   UNL     1      44.082 -19.762   4.088  1.00  0.00    -0.317 OA
HETATM   28  C   UNL     1      43.896 -20.760   3.185  1.00  0.00     0.143 A 
HETATM   29  C   UNL     1      43.333 -20.270   2.030  1.00  0.00     0.027 A 
HETATM   30  C   UNL     1      43.159 -18.881   2.237  1.00  0.00     0.045 A 
ENDBRANCH  23  26
ENDBRANCH   4  22
TORSDOF 5
ENDMDL
MODEL 6
REMARK VINA RESULT:      -8.1      5.195      9.082
REMARK  5 active torsions:
REMARK  status: ('A' for Active; 'I' for Inactive)
REMARK    1  A    between atoms: C_6  and  N_7 
REMARK       I    between atoms: N_7  and  C_8 
REMARK       I    between atoms: C_8  and  N_9 
REMARK    2  A    between atoms: N_9  and  C_10 
REMARK    3  A    between atoms: C_10  and  C_11 
REMARK    4  A    between atoms: C_14  and  N_15 
REMARK       I    between atoms: N_15  and  C_16 
REMARK    5  A    between atoms: C_16  and  C_17 
ROOT
HETATM    1  C   UNL     1      41.460  -9.766   6.071  1.00  0.00    -0.040 A 
HETATM    2  C   UNL     1      40.340  -9.660   6.904  1.00  0.00     0.011 A 
HETATM    3  C   UNL     1      40.486  -9.373   8.265  1.00  0.00     0.030 A 
HETATM    4  C   UNL     1      41.751  -9.173   8.816  1.00  0.00     0.035 A 
HETATM    5  C   UNL     1      42.873  -9.283   7.986  1.00  0.00     0.030 A 
HETATM    6  C   UNL     1      42.731  -9.576   6.626  1.00  0.00     0.011 A 
ENDROOT
BRANCH   1   7
HETATM    7  C   UNL     1      41.293 -10.004   4.594  1.00  0.00     0.162 C 
BRANCH   7   8
HETATM    8  N   UNL     1      42.570 -10.293   3.980  1.00  0.00    -0.339 N 
HETATM    9  C   UNL     1      43.126 -11.497   3.670  1.00  0.00     0.320 C 
HETATM   10  N   UNL     1      42.274 -12.566   3.671  1.00  0.00    -0.309 N 
HETATM   11  O   UNL     1      44.325 -11.519   3.414  1.00  0.00    -0.247 OA
HETATM   12  H   UNL     1      41.292 -12.351   3.697  1.00  0.00     0.170 HD
HETATM   13  H   UNL     1      43.269  -9.559   3.998  1.00  0.00     0.164 HD
BRANCH  10  14
HETATM   14  C   UNL     1      42.596 -13.920   3.430  1.00  0.00     0.037 A 
HETATM   15  C   UNL     1      42.882 -14.844   4.436  1.00  0.00     0.049 A 
HETATM   16  C   UNL     1      43.200 -16.171   4.112  1.00  0.00     0.019 A 
HETATM   17  C   UNL     1      43.238 -16.599   2.777  1.00  0.00    -0.044 A 
HETATM   18 BR   UNL     1      43.574 -17.358   5.551  1.00  0.00    -0.051 Br
HETATM   19  C   UNL     1      43.583 -18.009   2.390  1.00  0.00     0.049 C 
HETATM   20  C   UNL     1      42.936 -15.668   1.775  1.00  0.00     0.010 A 
HETATM   21  C   UNL     1      42.615 -14.346   2.098  1.00  0.00     0.030 A 
ENDBRANCH  10  14
ENDBRANCH   7   8
ENDBRANCH   1   7
BRANCH   4  22
HETATM   22  N   UNL     1      41.977  -8.833  10.163  1.00  0.00    -0.321 N 
HETATM   23  C   UNL     1      42.639  -9.564  11.135  1.00  0.00     0.279 C 
HETATM   24  O   UNL     1      43.218 -10.630  10.954  1.00  0.00    -0.265 OA
HETATM   25  H   UNL     1      41.588  -7.955  10.490  1.00  0.00     0.169 HD
BRANCH  23  26
HETATM   26  C   UNL     1      42.583  -8.931  12.441  1.00  0.00     0.142 A 
HETATM   27  O   UNL     1      41.911  -9.552  13.465  1.00  0.00    -0.317 OA
HETATM   28  C   UNL     1      42.036  -8.760  14.562  1.00  0.00     0.143 A 
HETATM   29  C   UNL     1      42.772  -7.636  14.267  1.00  0.00     0.027 A 
HETATM   30  C   UNL     1      43.123  -7.745  12.900  1.00  0.00     0.045 A 
ENDBRANCH  23  26
ENDBRANCH   4  22
TORSDOF 5
ENDMDL
MODEL 7
REMARK VINA RESULT:      -8.1      2.895      6.990
REMARK  5 active torsions:
REMARK  status: ('A' for Active; 'I' for Inactive)
REMARK    1  A    between atoms: C_6  and  N_7 
REMARK       I    between atoms: N_7  and  C_8 
REMARK       I    between atoms: C_8  and  N_9 
REMARK    2  A    between atoms: N_9  and  C_10 
REMARK    3  A    between atoms: C_10  and  C_11 
REMARK    4  A    between atoms: C_14  and  N_15 
REMARK       I    between atoms: N_15  and  C_16 
REMARK    5  A    between atoms: C_16  and  C_17 
ROOT
HETATM    1  C   UNL     1      41.773 -11.949   2.641  1.00  0.00    -0.040 A 
HETATM    2  C   UNL     1      40.916 -11.648   3.705  1.00  0.00     0.011 A 
HETATM    3  C   UNL     1      41.427 -11.254   4.946  1.00  0.00     0.030 A 
HETATM    4  C   UNL     1      42.802 -11.139   5.143  1.00  0.00     0.035 A 
HETATM    5  C   UNL     1      43.662 -11.444   4.081  1.00  0.00     0.030 A 
HETATM    6  C   UNL     1      43.155 -11.845   2.841  1.00  0.00     0.011 A 
ENDROOT
BRANCH   1   7
HETATM    7  C   UNL     1      41.216 -12.303   1.288  1.00  0.00     0.162 C 
BRANCH   7   8
HETATM    8  N   UNL     1      40.397 -13.492   1.373  1.00  0.00    -0.339 N 
HETATM    9  C   UNL     1      40.727 -14.737   1.816  1.00  0.00     0.320 C 
HETATM   10  N   UNL     1      41.884 -14.827   2.538  1.00  0.00    -0.309 N 
HETATM   11  O   UNL     1      39.965 -15.657   1.540  1.00  0.00    -0.247 OA
HETATM   12  H   UNL     1      42.281 -13.957   2.851  1.00  0.00     0.170 HD
HETATM   13  H   UNL     1      39.553 -13.513   0.813  1.00  0.00     0.164 HD
BRANCH  10  14
HETATM   14  C   UNL     1      42.473 -15.994   3.073  1.00  0.00     0.037 A 
HETATM   15  C   UNL     1      42.603 -16.247   4.439  1.00  0.00     0.049 A 
HETATM   16  C   UNL     1      43.208 -17.429   4.888  1.00  0.00     0.019 A 
HETATM   17  C   UNL     1      43.695 -18.381   3.980  1.00  0.00    -0.044 A 
HETATM   18 BR   UNL     1      43.338 -17.687   6.768  1.00  0.00    -0.051 Br
HETATM   19  C   UNL     1      44.357 -19.655   4.422  1.00  0.00     0.049 C 
HETATM   20  C   UNL     1      43.548 -18.125   2.611  1.00  0.00     0.010 A 
HETATM   21  C   UNL     1      42.941 -16.948   2.163  1.00  0.00     0.030 A 
ENDBRANCH  10  14
ENDBRANCH   7   8
ENDBRANCH   1   7
BRANCH   4  22
HETATM   22  N   UNL     1      43.392 -10.703   6.343  1.00  0.00    -0.321 N 
HETATM   23  C   UNL     1      44.249 -11.395   7.182  1.00  0.00     0.279 C 
HETATM   24  O   UNL     1      44.707 -12.512   6.969  1.00  0.00    -0.265 OA
HETATM   25  H   UNL     1      43.146  -9.774   6.668  1.00  0.00     0.169 HD
BRANCH  23  26
HETATM   26  C   UNL     1      44.570 -10.649   8.387  1.00  0.00     0.142 A 
HETATM   27  O   UNL     1      44.117 -11.100   9.602  1.00  0.00    -0.317 OA
HETATM   28  C   UNL     1      44.576 -10.236  10.545  1.00  0.00     0.143 A 
HETATM   29  C   UNL     1      45.313  -9.231   9.963  1.00  0.00     0.027 A 
HETATM   30  C   UNL     1      45.309  -9.496   8.573  1.00  0.00     0.045 A 
ENDBRANCH  23  26
ENDBRANCH   4  22
TORSDOF 5
ENDMDL
MODEL 8
REMARK VINA RESULT:      -8.1      4.258      9.100
REMARK  5 active torsions:
REMARK  status: ('A' for Active; 'I' for Inactive)
REMARK    1  A    between atoms: C_6  and  N_7 
REMARK       I    between atoms: N_7  and  C_8 
REMARK       I    between atoms: C_8  and  N_9 
REMARK    2  A    between atoms: N_9  and  C_10 
REMARK    3  A    between atoms: C_10  and  C_11 
REMARK    4  A    between atoms: C_14  and  N_15 
REMARK       I    between atoms: N_15  and  C_16 
REMARK    5  A    between atoms: C_16  and  C_17 
ROOT
HETATM    1  C   UNL     1      43.159 -13.016   4.193  1.00  0.00    -0.040 A 
HETATM    2  C   UNL     1      43.086 -13.720   5.400  1.00  0.00     0.011 A 
HETATM    3  C   UNL     1      43.139 -13.046   6.625  1.00  0.00     0.030 A 
HETATM    4  C   UNL     1      43.250 -11.657   6.666  1.00  0.00     0.035 A 
HETATM    5  C   UNL     1      43.328 -10.951   5.459  1.00  0.00     0.030 A 
HETATM    6  C   UNL     1      43.283 -11.622   4.233  1.00  0.00     0.011 A 
ENDROOT
BRANCH   1   7
HETATM    7  C   UNL     1      43.030 -13.739   2.879  1.00  0.00     0.162 C 
BRANCH   7   8
HETATM    8  N   UNL     1      41.824 -14.537   2.855  1.00  0.00    -0.339 N 
HETATM    9  C   UNL     1      40.719 -14.408   2.069  1.00  0.00     0.320 C 
HETATM   10  N   UNL     1      40.859 -13.610   0.968  1.00  0.00    -0.309 N 
HETATM   11  O   UNL     1      39.709 -15.015   2.408  1.00  0.00    -0.247 OA
HETATM   12  H   UNL     1      41.801 -13.356   0.721  1.00  0.00     0.170 HD
HETATM   13  H   UNL     1      41.631 -15.107   3.670  1.00  0.00     0.164 HD
BRANCH  10  14
HETATM   14  C   UNL     1      39.868 -13.274   0.020  1.00  0.00     0.037 A 
HETATM   15  C   UNL     1      39.560 -14.053  -1.096  1.00  0.00     0.049 A 
HETATM   16  C   UNL     1      38.564 -13.643  -1.995  1.00  0.00     0.019 A 
HETATM   17  C   UNL     1      37.857 -12.449  -1.794  1.00  0.00    -0.044 A 
HETATM   18 BR   UNL     1      38.214 -14.772  -3.486  1.00  0.00    -0.051 Br
HETATM   19  C   UNL     1      36.791 -11.973  -2.739  1.00  0.00     0.049 C 
HETATM   20  C   UNL     1      38.163 -11.681  -0.663  1.00  0.00     0.010 A 
HETATM   21  C   UNL     1      39.154 -12.091   0.235  1.00  0.00     0.030 A 
ENDBRANCH  10  14
ENDBRANCH   7   8
ENDBRANCH   1   7
BRANCH   4  22
HETATM   22  N   UNL     1      43.260 -10.903   7.854  1.00  0.00    -0.321 N 
HETATM   23  C   UNL     1      44.308 -10.700   8.735  1.00  0.00     0.279 C 
HETATM   24  O   UNL     1      45.458 -11.098   8.580  1.00  0.00    -0.265 OA
HETATM   25  H   UNL     1      42.387 -10.468   8.132  1.00  0.00     0.169 HD
BRANCH  23  26
HETATM   26  C   UNL     1      43.909  -9.944   9.910  1.00  0.00     0.142 A 
HETATM   27  O   UNL     1      43.568  -8.620   9.777  1.00  0.00    -0.317 OA
HETATM   28  C   UNL     1      43.220  -8.172  11.011  1.00  0.00     0.143 A 
HETATM   29  C   UNL     1      43.335  -9.178  11.942  1.00  0.00     0.027 A 
HETATM   30  C   UNL     1      43.780 -10.320  11.233  1.00  0.00     0.045 A 
ENDBRANCH  23  26
ENDBRANCH   4  22
TORSDOF 5
ENDMDL
MODEL 9
REMARK VINA RESULT:      -8.0     11.281     14.736
REMARK  5 active torsions:
REMARK  status: ('A' for Active; 'I' for Inactive)
REMARK    1  A    between atoms: C_6  and  N_7 
REMARK       I    between atoms: N_7  and  C_8 
REMARK       I    between atoms: C_8  and  N_9 
REMARK    2  A    between atoms: N_9  and  C_10 
REMARK    3  A    between atoms: C_10  and  C_11 
REMARK    4  A    between atoms: C_14  and  N_15 
REMARK       I    between atoms: N_15  and  C_16 
REMARK    5  A    between atoms: C_16  and  C_17 
ROOT
HETATM    1  C   UNL     1      41.152  -7.603  13.542  1.00  0.00    -0.040 A 
HETATM    2  C   UNL     1      40.461  -7.984  12.386  1.00  0.00     0.011 A 
HETATM    3  C   UNL     1      41.144  -8.504  11.282  1.00  0.00     0.030 A 
HETATM    4  C   UNL     1      42.528  -8.668  11.318  1.00  0.00     0.035 A 
HETATM    5  C   UNL     1      43.223  -8.284  12.471  1.00  0.00     0.030 A 
HETATM    6  C   UNL     1      42.543  -7.757  13.574  1.00  0.00     0.011 A 
ENDROOT
BRANCH   1   7
HETATM    7  C   UNL     1      40.405  -7.110  14.752  1.00  0.00     0.162 C 
BRANCH   7   8
HETATM    8  N   UNL     1      41.310  -6.470  15.681  1.00  0.00    -0.339 N 
HETATM    9  C   UNL     1      41.461  -6.675  17.019  1.00  0.00     0.320 C 
HETATM   10  N   UNL     1      40.901  -7.818  17.515  1.00  0.00    -0.309 N 
HETATM   11  O   UNL     1      42.085  -5.831  17.654  1.00  0.00    -0.247 OA
HETATM   12  H   UNL     1      40.608  -8.500  16.835  1.00  0.00     0.170 HD
HETATM   13  H   UNL     1      41.715  -5.586  15.396  1.00  0.00     0.164 HD
BRANCH  10  14
HETATM   14  C   UNL     1      40.873  -8.247  18.860  1.00  0.00     0.037 A 
HETATM   15  C   UNL     1      42.012  -8.555  19.605  1.00  0.00     0.049 A 
HETATM   16  C   UNL     1      41.898  -8.980  20.935  1.00  0.00     0.019 A 
HETATM   17  C   UNL     1      40.643  -9.106  21.548  1.00  0.00    -0.044 A 
HETATM   18 BR   UNL     1      43.508  -9.375  21.869  1.00  0.00    -0.051 Br
HETATM   19  C   UNL     1      40.479  -9.567  22.968  1.00  0.00     0.049 C 
HETATM   20  C   UNL     1      39.505  -8.781  20.798  1.00  0.00     0.010 A 
HETATM   21  C   UNL     1      39.620  -8.353  19.472  1.00  0.00     0.030 A 
ENDBRANCH  10  14
ENDBRANCH   7   8
ENDBRANCH   1   7
BRANCH   4  22
HETATM   22  N   UNL     1      43.280  -9.229  10.270  1.00  0.00    -0.321 N 
HETATM   23  C   UNL     1      43.922 -10.455  10.232  1.00  0.00     0.279 C 
HETATM   24  O   UNL     1      43.875 -11.312  11.108  1.00  0.00    -0.265 OA
HETATM   25  H   UNL     1      43.404  -8.664   9.436  1.00  0.00     0.169 HD
BRANCH  23  26
HETATM   26  C   UNL     1      44.687 -10.645   9.011  1.00  0.00     0.142 A 
HETATM   27  O   UNL     1      44.348 -11.661   8.152  1.00  0.00    -0.317 OA
HETATM   28  C   UNL     1      45.204 -11.594   7.098  1.00  0.00     0.143 A 
HETATM   29  C   UNL     1      46.093 -10.558   7.262  1.00  0.00     0.027 A 
HETATM   30  C   UNL     1      45.762  -9.947   8.494  1.00  0.00     0.045 A 
ENDBRANCH  23  26
ENDBRANCH   4  22
TORSDOF 5
ENDMDL
MODEL 10
REMARK VINA RESULT:      -7.7      5.566      8.998
REMARK  5 active torsions:
REMARK  status: ('A' for Active; 'I' for Inactive)
REMARK    1  A    between atoms: C_6  and  N_7 
REMARK       I    between atoms: N_7  and  C_8 
REMARK       I    between atoms: C_8  and  N_9 
REMARK    2  A    between atoms: N_9  and  C_10 
REMARK    3  A    between atoms: C_10  and  C_11 
REMARK    4  A    between atoms: C_14  and  N_15 
REMARK       I    between atoms: N_15  and  C_16 
REMARK    5  A    between atoms: C_16  and  C_17 
ROOT
HETATM    1  C   UNL     1      40.498 -11.341   5.511  1.00  0.00    -0.040 A 
HETATM    2  C   UNL     1      41.607 -11.376   4.658  1.00  0.00     0.011 A 
HETATM    3  C   UNL     1      42.116 -12.595   4.197  1.00  0.00     0.030 A 
HETATM    4  C   UNL     1      41.518 -13.799   4.567  1.00  0.00     0.035 A 
HETATM    5  C   UNL     1      40.411 -13.766   5.423  1.00  0.00     0.030 A 
HETATM    6  C   UNL     1      39.904 -12.550   5.891  1.00  0.00     0.011 A 
ENDROOT
BRANCH   1   7
HETATM    7  C   UNL     1      39.911 -10.025   5.947  1.00  0.00     0.162 C 
BRANCH   7   8
HETATM    8  N   UNL     1      39.124 -10.193   7.148  1.00  0.00    -0.339 N 
HETATM    9  C   UNL     1      39.453  -9.917   8.441  1.00  0.00     0.320 C 
HETATM   10  N   UNL     1      40.548  -9.120   8.622  1.00  0.00    -0.309 N 
HETATM   11  O   UNL     1      38.744 -10.396   9.320  1.00  0.00    -0.247 OA
HETATM   12  H   UNL     1      40.891  -8.645   7.803  1.00  0.00     0.170 HD
HETATM   13  H   UNL     1      38.330 -10.820   7.096  1.00  0.00     0.164 HD
BRANCH  10  14
HETATM   14  C   UNL     1      41.126  -8.720   9.847  1.00  0.00     0.037 A 
HETATM   15  C   UNL     1      40.535  -7.815  10.729  1.00  0.00     0.049 A 
HETATM   16  C   UNL     1      41.180  -7.465  11.924  1.00  0.00     0.019 A 
HETATM   17  C   UNL     1      42.426  -8.013  12.261  1.00  0.00    -0.044 A 
HETATM   18 BR   UNL     1      40.296  -6.224  13.064  1.00  0.00    -0.051 Br
HETATM   19  C   UNL     1      43.151  -7.657  13.527  1.00  0.00     0.049 C 
HETATM   20  C   UNL     1      43.004  -8.932  11.376  1.00  0.00     0.010 A 
HETATM   21  C   UNL     1      42.360  -9.284  10.186  1.00  0.00     0.030 A 
ENDBRANCH  10  14
ENDBRANCH   7   8
ENDBRANCH   1   7
BRANCH   4  22
HETATM   22  N   UNL     1      41.939 -15.060   4.107  1.00  0.00    -0.321 N 
HETATM   23  C   UNL     1      42.895 -15.899   4.653  1.00  0.00     0.279 C 
HETATM   24  O   UNL     1      43.498 -15.705   5.703  1.00  0.00    -0.265 OA
HETATM   25  H   UNL     1      41.520 -15.403   3.249  1.00  0.00     0.169 HD
BRANCH  23  26
HETATM   26  C   UNL     1      43.131 -17.079   3.838  1.00  0.00     0.142 A 
HETATM   27  O   UNL     1      43.916 -18.093   4.328  1.00  0.00    -0.317 OA
HETATM   28  C   UNL     1      43.949 -19.066   3.380  1.00  0.00     0.143 A 
HETATM   29  C   UNL     1      43.204 -18.698   2.283  1.00  0.00     0.027 A 
HETATM   30  C   UNL     1      42.678 -17.418   2.577  1.00  0.00     0.045 A 
ENDBRANCH  23  26
ENDBRANCH   4  22
TORSDOF 5
ENDMDL
