MODEL 1
REMARK VINA RESULT:      -9.5      0.000      0.000
REMARK  4 active torsions:
REMARK  status: ('A' for Active; 'I' for Inactive)
REMARK    1  A    between atoms: C_2  and  C_3 
REMARK    2  A    between atoms: C_6  and  C_7 
REMARK    3  A    between atoms: N_8  and  N_9 
REMARK       I    between atoms: N_9  and  C_10 
REMARK    4  A    between atoms: C_10  and  C_11 
ROOT
HETATM    1  N   UNL     1      43.399 -11.483   7.789  1.00  0.00    -0.242 N 
HETATM    2  C   UNL     1      44.410 -11.003   8.602  1.00  0.00     0.292 C 
HETATM    3  O   UNL     1      45.617 -11.019   8.419  1.00  0.00    -0.264 OA
HETATM    4  H   UNL     1      42.440 -11.338   8.101  1.00  0.00     0.192 HD
ENDROOT
BRANCH   1   5
HETATM    5  N   UNL     1      43.515 -12.304   6.696  1.00  0.00    -0.183 NA
HETATM    6  C   UNL     1      43.119 -13.534   6.760  1.00  0.00     0.152 C 
BRANCH   6   7
HETATM    7  C   UNL     1      43.144 -14.342   5.555  1.00  0.00     0.011 A 
HETATM    8  C   UNL     1      43.405 -15.748   5.467  1.00  0.00     0.004 A 
HETATM    9  C   UNL     1      43.261 -16.124   4.128  1.00  0.00     0.049 A 
HETATM   10  C   UNL     1      43.726 -16.741   6.416  1.00  0.00     0.014 A 
HETATM   11  C   UNL     1      43.403 -17.452   3.679  1.00  0.00    -0.031 A 
HETATM   12  N   UNL     1      42.966 -14.975   3.426  1.00  0.00    -0.364 N 
HETATM   13  C   UNL     1      43.729 -18.409   4.660  1.00  0.00     0.009 A 
HETATM   14  C   UNL     1      43.890 -18.064   6.000  1.00  0.00     0.002 A 
HETATM   15  C   UNL     1      42.883 -13.904   4.271  1.00  0.00     0.102 A 
HETATM   16  H   UNL     1      42.815 -14.938   2.428  1.00  0.00     0.165 HD
BRANCH  11  17
HETATM   17  C   UNL     1      43.239 -17.879   2.243  1.00  0.00     0.036 C 
HETATM   18  C   UNL     1      43.203 -19.393   2.101  1.00  0.00     0.010 C 
ENDBRANCH  11  17
ENDBRANCH   6   7
ENDBRANCH   1   5
BRANCH   2  19
HETATM   19  C   UNL     1      43.867 -10.440   9.906  1.00  0.00     0.157 A 
HETATM   20  N   UNL     1      43.793 -11.268  10.911  1.00  0.00    -0.166 NA
HETATM   21  N   UNL     1      43.325 -10.787  12.097  1.00  0.00    -0.242 N 
HETATM   22  C   UNL     1      42.923  -9.495  12.346  1.00  0.00     0.272 A 
HETATM   23  H   UNL     1      43.246 -11.450  12.862  1.00  0.00     0.192 HD
HETATM   24  O   UNL     1      42.504  -9.138  13.441  1.00  0.00    -0.266 OA
HETATM   25  C   UNL     1      43.036  -8.551  11.221  1.00  0.00     0.046 A 
HETATM   26  C   UNL     1      43.508  -9.010   9.994  1.00  0.00     0.016 A 
HETATM   27  C   UNL     1      42.688  -7.206  11.391  1.00  0.00     0.018 A 
HETATM   28  C   UNL     1      43.644  -8.112   8.928  1.00  0.00     0.015 A 
HETATM   29  C   UNL     1      43.295  -6.770   9.096  1.00  0.00     0.001 A 
HETATM   30  C   UNL     1      42.817  -6.316  10.324  1.00  0.00     0.001 A 
ENDBRANCH   2  19
TORSDOF 4
ENDMDL
MODEL 2
REMARK VINA RESULT:      -9.3      1.733      2.724
REMARK  4 active torsions:
REMARK  status: ('A' for Active; 'I' for Inactive)
REMARK    1  A    between atoms: C_2  and  C_3 
REMARK    2  A    between atoms: C_6  and  C_7 
REMARK    3  A    between atoms: N_8  and  N_9 
REMARK       I    between atoms: N_9  and  C_10 
REMARK    4  A    between atoms: C_10  and  C_11 
ROOT
HETATM    1  N   UNL     1      43.579 -11.725   7.749  1.00  0.00    -0.242 N 
HETATM    2  C   UNL     1      44.595 -10.921   8.234  1.00  0.00     0.292 C 
HETATM    3  O   UNL     1      45.798 -11.133   8.258  1.00  0.00    -0.264 OA
HETATM    4  H   UNL     1      42.632 -11.350   7.781  1.00  0.00     0.192 HD
ENDROOT
BRANCH   1   5
HETATM    5  N   UNL     1      43.646 -13.049   7.399  1.00  0.00    -0.183 NA
HETATM    6  C   UNL     1      43.251 -13.435   6.229  1.00  0.00     0.152 C 
BRANCH   6   7
HETATM    7  C   UNL     1      43.445 -14.820   5.844  1.00  0.00     0.011 A 
HETATM    8  C   UNL     1      43.219 -15.394   4.551  1.00  0.00     0.004 A 
HETATM    9  C   UNL     1      43.598 -16.739   4.611  1.00  0.00     0.049 A 
HETATM   10  C   UNL     1      42.749 -14.879   3.325  1.00  0.00     0.014 A 
HETATM   11  C   UNL     1      43.551 -17.604   3.500  1.00  0.00    -0.031 A 
HETATM   12  N   UNL     1      43.997 -16.978   5.908  1.00  0.00    -0.364 N 
HETATM   13  C   UNL     1      43.070 -17.049   2.298  1.00  0.00     0.009 A 
HETATM   14  C   UNL     1      42.675 -15.716   2.209  1.00  0.00     0.002 A 
HETATM   15  C   UNL     1      43.920 -15.835   6.653  1.00  0.00     0.102 A 
HETATM   16  H   UNL     1      44.319 -17.873   6.251  1.00  0.00     0.165 HD
BRANCH  11  17
HETATM   17  C   UNL     1      43.967 -19.053   3.540  1.00  0.00     0.036 C 
HETATM   18  C   UNL     1      43.542 -19.801   2.286  1.00  0.00     0.010 C 
ENDBRANCH  11  17
ENDBRANCH   6   7
ENDBRANCH   1   5
BRANCH   2  19
HETATM   19  C   UNL     1      44.058  -9.640   8.850  1.00  0.00     0.157 A 
HETATM   20  N   UNL     1      43.972  -8.606   8.060  1.00  0.00    -0.166 NA
HETATM   21  N   UNL     1      43.478  -7.448   8.582  1.00  0.00    -0.242 N 
HETATM   22  C   UNL     1      43.050  -7.258   9.875  1.00  0.00     0.272 A 
HETATM   23  H   UNL     1      43.444  -6.643   7.961  1.00  0.00     0.192 HD
HETATM   24  O   UNL     1      42.625  -6.180  10.274  1.00  0.00    -0.266 OA
HETATM   25  C   UNL     1      43.116  -8.434  10.760  1.00  0.00     0.046 A 
HETATM   26  C   UNL     1      43.618  -9.633  10.260  1.00  0.00     0.016 A 
HETATM   27  C   UNL     1      42.665  -8.348  12.083  1.00  0.00     0.018 A 
HETATM   28  C   UNL     1      43.659 -10.762  11.088  1.00  0.00     0.015 A 
HETATM   29  C   UNL     1      43.210 -10.677  12.409  1.00  0.00     0.001 A 
HETATM   30  C   UNL     1      42.715  -9.473  12.906  1.00  0.00     0.001 A 
ENDBRANCH   2  19
TORSDOF 4
ENDMDL
MODEL 3
REMARK VINA RESULT:      -9.3      2.409      3.410
REMARK  4 active torsions:
REMARK  status: ('A' for Active; 'I' for Inactive)
REMARK    1  A    between atoms: C_2  and  C_3 
REMARK    2  A    between atoms: C_6  and  C_7 
REMARK    3  A    between atoms: N_8  and  N_9 
REMARK       I    between atoms: N_9  and  C_10 
REMARK    4  A    between atoms: C_10  and  C_11 
ROOT
HETATM    1  N   UNL     1      42.206 -12.763   6.676  1.00  0.00    -0.242 N 
HETATM    2  C   UNL     1      42.179 -11.541   6.028  1.00  0.00     0.292 C 
HETATM    3  O   UNL     1      42.055 -11.306   4.835  1.00  0.00    -0.264 OA
HETATM    4  H   UNL     1      42.276 -12.751   7.692  1.00  0.00     0.192 HD
ENDROOT
BRANCH   1   5
HETATM    5  N   UNL     1      42.340 -14.009   6.120  1.00  0.00    -0.183 NA
HETATM    6  C   UNL     1      43.459 -14.652   6.222  1.00  0.00     0.152 C 
BRANCH   6   7
HETATM    7  C   UNL     1      43.533 -16.014   5.729  1.00  0.00     0.011 A 
HETATM    8  C   UNL     1      43.404 -16.445   4.369  1.00  0.00     0.004 A 
HETATM    9  C   UNL     1      43.609 -17.828   4.340  1.00  0.00     0.049 A 
HETATM   10  C   UNL     1      43.156 -15.775   3.153  1.00  0.00     0.014 A 
HETATM   11  C   UNL     1      43.598 -18.586   3.152  1.00  0.00    -0.031 A 
HETATM   12  N   UNL     1      43.811 -18.223   5.645  1.00  0.00    -0.364 N 
HETATM   13  C   UNL     1      43.341 -17.876   1.963  1.00  0.00     0.009 A 
HETATM   14  C   UNL     1      43.123 -16.500   1.960  1.00  0.00     0.002 A 
HETATM   15  C   UNL     1      43.779 -17.145   6.484  1.00  0.00     0.102 A 
HETATM   16  H   UNL     1      43.978 -19.177   5.934  1.00  0.00     0.165 HD
BRANCH  11  17
HETATM   17  C   UNL     1      43.830 -20.075   3.099  1.00  0.00     0.036 C 
HETATM   18  C   UNL     1      43.603 -20.635   1.703  1.00  0.00     0.010 C 
ENDBRANCH  11  17
ENDBRANCH   6   7
ENDBRANCH   1   5
BRANCH   2  19
HETATM   19  C   UNL     1      42.389 -10.385   6.992  1.00  0.00     0.157 A 
HETATM   20  N   UNL     1      41.316  -9.778   7.415  1.00  0.00    -0.166 NA
HETATM   21  N   UNL     1      41.473  -8.748   8.293  1.00  0.00    -0.242 N 
HETATM   22  C   UNL     1      42.668  -8.280   8.790  1.00  0.00     0.272 A 
HETATM   23  H   UNL     1      40.629  -8.266   8.592  1.00  0.00     0.192 HD
HETATM   24  O   UNL     1      42.730  -7.340   9.572  1.00  0.00    -0.266 OA
HETATM   25  C   UNL     1      43.879  -8.986   8.337  1.00  0.00     0.046 A 
HETATM   26  C   UNL     1      43.755 -10.042   7.437  1.00  0.00     0.016 A 
HETATM   27  C   UNL     1      45.138  -8.607   8.819  1.00  0.00     0.018 A 
HETATM   28  C   UNL     1      44.900 -10.735   7.024  1.00  0.00     0.015 A 
HETATM   29  C   UNL     1      46.156 -10.356   7.504  1.00  0.00     0.001 A 
HETATM   30  C   UNL     1      46.277  -9.294   8.399  1.00  0.00     0.001 A 
ENDBRANCH   2  19
TORSDOF 4
ENDMDL
MODEL 4
REMARK VINA RESULT:      -8.8      2.052      2.537
REMARK  4 active torsions:
REMARK  status: ('A' for Active; 'I' for Inactive)
REMARK    1  A    between atoms: C_2  and  C_3 
REMARK    2  A    between atoms: C_6  and  C_7 
REMARK    3  A    between atoms: N_8  and  N_9 
REMARK       I    between atoms: N_9  and  C_10 
REMARK    4  A    between atoms: C_10  and  C_11 
ROOT
HETATM    1  N   UNL     1      41.446 -11.776   6.394  1.00  0.00    -0.242 N 
HETATM    2  C   UNL     1      41.846 -10.453   6.334  1.00  0.00     0.292 C 
HETATM    3  O   UNL     1      42.192  -9.798   5.363  1.00  0.00    -0.264 OA
HETATM    4  H   UNL     1      41.153 -12.134   7.302  1.00  0.00     0.192 HD
ENDROOT
BRANCH   1   5
HETATM    5  N   UNL     1      41.567 -12.738   5.424  1.00  0.00    -0.183 NA
HETATM    6  C   UNL     1      42.656 -13.429   5.324  1.00  0.00     0.152 C 
BRANCH   6   7
HETATM    7  C   UNL     1      42.710 -14.519   4.368  1.00  0.00     0.011 A 
HETATM    8  C   UNL     1      43.221 -15.838   4.595  1.00  0.00     0.004 A 
HETATM    9  C   UNL     1      43.015 -16.580   3.427  1.00  0.00     0.049 A 
HETATM   10  C   UNL     1      43.816 -16.476   5.703  1.00  0.00     0.014 A 
HETATM   11  C   UNL     1      43.358 -17.941   3.308  1.00  0.00    -0.031 A 
HETATM   12  N   UNL     1      42.441 -15.724   2.513  1.00  0.00    -0.364 N 
HETATM   13  C   UNL     1      43.955 -18.535   4.436  1.00  0.00     0.009 A 
HETATM   14  C   UNL     1      44.183 -17.820   5.610  1.00  0.00     0.002 A 
HETATM   15  C   UNL     1      42.244 -14.491   3.068  1.00  0.00     0.102 A 
HETATM   16  H   UNL     1      42.186 -15.982   1.570  1.00  0.00     0.165 HD
BRANCH  11  17
HETATM   17  C   UNL     1      43.133 -18.762   2.063  1.00  0.00     0.036 C 
HETATM   18  C   UNL     1      43.478 -20.227   2.278  1.00  0.00     0.010 C 
ENDBRANCH  11  17
ENDBRANCH   6   7
ENDBRANCH   1   5
BRANCH   2  19
HETATM   19  C   UNL     1      41.884  -9.811   7.711  1.00  0.00     0.157 A 
HETATM   20  N   UNL     1      40.758  -9.332   8.161  1.00  0.00    -0.166 NA
HETATM   21  N   UNL     1      40.759  -8.764   9.400  1.00  0.00    -0.242 N 
HETATM   22  C   UNL     1      41.843  -8.650  10.239  1.00  0.00     0.272 A 
HETATM   23  H   UNL     1      39.880  -8.371   9.725  1.00  0.00     0.192 HD
HETATM   24  O   UNL     1      41.767  -8.117  11.340  1.00  0.00    -0.266 OA
HETATM   25  C   UNL     1      43.109  -9.219   9.745  1.00  0.00     0.046 A 
HETATM   26  C   UNL     1      43.144  -9.804   8.482  1.00  0.00     0.016 A 
HETATM   27  C   UNL     1      44.257  -9.185  10.546  1.00  0.00     0.018 A 
HETATM   28  C   UNL     1      44.337 -10.372   8.018  1.00  0.00     0.015 A 
HETATM   29  C   UNL     1      45.484 -10.336   8.816  1.00  0.00     0.001 A 
HETATM   30  C   UNL     1      45.446  -9.744  10.076  1.00  0.00     0.001 A 
ENDBRANCH   2  19
TORSDOF 4
ENDMDL
MODEL 5
REMARK VINA RESULT:      -8.7      3.111      9.697
REMARK  4 active torsions:
REMARK  status: ('A' for Active; 'I' for Inactive)
REMARK    1  A    between atoms: C_2  and  C_3 
REMARK    2  A    between atoms: C_6  and  C_7 
REMARK    3  A    between atoms: N_8  and  N_9 
REMARK       I    between atoms: N_9  and  C_10 
REMARK    4  A    between atoms: C_10  and  C_11 
ROOT
HETATM    1  N   UNL     1      43.405 -14.887   6.347  1.00  0.00    -0.242 N 
HETATM    2  C   UNL     1      42.416 -15.854   6.311  1.00  0.00     0.292 C 
HETATM    3  O   UNL     1      41.225 -15.745   6.558  1.00  0.00    -0.264 OA
HETATM    4  H   UNL     1      44.343 -15.168   6.064  1.00  0.00     0.192 HD
ENDROOT
BRANCH   1   5
HETATM    5  N   UNL     1      43.337 -13.632   6.896  1.00  0.00    -0.183 NA
HETATM    6  C   UNL     1      43.144 -12.600   6.140  1.00  0.00     0.152 C 
BRANCH   6   7
HETATM    7  C   UNL     1      42.957 -11.302   6.761  1.00  0.00     0.011 A 
HETATM    8  C   UNL     1      43.948 -10.524   7.443  1.00  0.00     0.004 A 
HETATM    9  C   UNL     1      43.353  -9.316   7.822  1.00  0.00     0.049 A 
HETATM   10  C   UNL     1      45.309 -10.730   7.749  1.00  0.00     0.014 A 
HETATM   11  C   UNL     1      44.052  -8.285   8.480  1.00  0.00    -0.031 A 
HETATM   12  N   UNL     1      42.037  -9.383   7.420  1.00  0.00    -0.364 N 
HETATM   13  C   UNL     1      45.407  -8.537   8.770  1.00  0.00     0.009 A 
HETATM   14  C   UNL     1      46.025  -9.733   8.415  1.00  0.00     0.002 A 
HETATM   15  C   UNL     1      41.791 -10.562   6.774  1.00  0.00     0.102 A 
HETATM   16  H   UNL     1      41.356  -8.650   7.568  1.00  0.00     0.165 HD
BRANCH  11  17
HETATM   17  C   UNL     1      43.433  -6.971   8.884  1.00  0.00     0.036 C 
HETATM   18  C   UNL     1      42.922  -7.001  10.317  1.00  0.00     0.010 C 
ENDBRANCH  11  17
ENDBRANCH   6   7
ENDBRANCH   1   5
BRANCH   2  19
HETATM   19  C   UNL     1      42.976 -17.223   5.959  1.00  0.00     0.157 A 
HETATM   20  N   UNL     1      43.211 -18.029   6.956  1.00  0.00    -0.166 NA
HETATM   21  N   UNL     1      43.698 -19.269   6.667  1.00  0.00    -0.242 N 
HETATM   22  C   UNL     1      43.965 -19.765   5.413  1.00  0.00     0.272 A 
HETATM   23  H   UNL     1      43.902 -19.876   7.457  1.00  0.00     0.192 HD
HETATM   24  O   UNL     1      44.412 -20.892   5.234  1.00  0.00    -0.266 OA
HETATM   25  C   UNL     1      43.670 -18.866   4.283  1.00  0.00     0.046 A 
HETATM   26  C   UNL     1      43.174 -17.590   4.542  1.00  0.00     0.016 A 
HETATM   27  C   UNL     1      43.872 -19.297   2.967  1.00  0.00     0.018 A 
HETATM   28  C   UNL     1      42.865 -16.740   3.472  1.00  0.00     0.015 A 
HETATM   29  C   UNL     1      43.068 -17.170   2.158  1.00  0.00     0.001 A 
HETATM   30  C   UNL     1      43.571 -18.444   1.904  1.00  0.00     0.001 A 
ENDBRANCH   2  19
TORSDOF 4
ENDMDL
MODEL 6
REMARK VINA RESULT:      -8.5      6.472     10.353
REMARK  4 active torsions:
REMARK  status: ('A' for Active; 'I' for Inactive)
REMARK    1  A    between atoms: C_2  and  C_3 
REMARK    2  A    between atoms: C_6  and  C_7 
REMARK    3  A    between atoms: N_8  and  N_9 
REMARK       I    between atoms: N_9  and  C_10 
REMARK    4  A    between atoms: C_10  and  C_11 
ROOT
HETATM    1  N   UNL     1      41.518 -14.668   1.259  1.00  0.00    -0.242 N 
HETATM    2  C   UNL     1      40.958 -15.343   2.328  1.00  0.00     0.292 C 
HETATM    3  O   UNL     1      39.785 -15.606   2.542  1.00  0.00    -0.264 OA
HETATM    4  H   UNL     1      42.534 -14.584   1.240  1.00  0.00     0.192 HD
ENDROOT
BRANCH   1   5
HETATM    5  N   UNL     1      40.876 -13.923   0.303  1.00  0.00    -0.183 NA
HETATM    6  C   UNL     1      39.940 -14.452  -0.416  1.00  0.00     0.152 C 
BRANCH   6   7
HETATM    7  C   UNL     1      39.198 -13.607  -1.334  1.00  0.00     0.011 A 
HETATM    8  C   UNL     1      38.416 -12.454  -1.002  1.00  0.00     0.004 A 
HETATM    9  C   UNL     1      37.935 -11.908  -2.196  1.00  0.00     0.049 A 
HETATM   10  C   UNL     1      38.097 -11.809   0.212  1.00  0.00     0.014 A 
HETATM   11  C   UNL     1      37.159 -10.733  -2.250  1.00  0.00    -0.031 A 
HETATM   12  N   UNL     1      38.375 -12.731  -3.210  1.00  0.00    -0.364 N 
HETATM   13  C   UNL     1      36.861 -10.127  -1.015  1.00  0.00     0.009 A 
HETATM   14  C   UNL     1      37.316 -10.651   0.192  1.00  0.00     0.002 A 
HETATM   15  C   UNL     1      39.141 -13.745  -2.707  1.00  0.00     0.102 A 
HETATM   16  H   UNL     1      38.173 -12.589  -4.190  1.00  0.00     0.165 HD
BRANCH  11  17
HETATM   17  C   UNL     1      36.642 -10.122  -3.528  1.00  0.00     0.036 C 
HETATM   18  C   UNL     1      37.694  -9.262  -4.212  1.00  0.00     0.010 C 
ENDBRANCH  11  17
ENDBRANCH   6   7
ENDBRANCH   1   5
BRANCH   2  19
HETATM   19  C   UNL     1      42.004 -15.735   3.360  1.00  0.00     0.157 A 
HETATM   20  N   UNL     1      42.192 -14.900   4.343  1.00  0.00    -0.166 NA
HETATM   21  N   UNL     1      43.113 -15.233   5.291  1.00  0.00    -0.242 N 
HETATM   22  C   UNL     1      43.869 -16.382   5.319  1.00  0.00     0.272 A 
HETATM   23  H   UNL     1      43.269 -14.560   6.036  1.00  0.00     0.192 HD
HETATM   24  O   UNL     1      44.686 -16.608   6.205  1.00  0.00    -0.266 OA
HETATM   25  C   UNL     1      43.634 -17.341   4.226  1.00  0.00     0.046 A 
HETATM   26  C   UNL     1      42.703 -17.031   3.238  1.00  0.00     0.016 A 
HETATM   27  C   UNL     1      44.329 -18.556   4.192  1.00  0.00     0.018 A 
HETATM   28  C   UNL     1      42.454 -17.950   2.212  1.00  0.00     0.015 A 
HETATM   29  C   UNL     1      43.148 -19.162   2.176  1.00  0.00     0.001 A 
HETATM   30  C   UNL     1      44.085 -19.466   3.163  1.00  0.00     0.001 A 
ENDBRANCH   2  19
TORSDOF 4
ENDMDL
MODEL 7
REMARK VINA RESULT:      -8.4      2.342      9.845
REMARK  4 active torsions:
REMARK  status: ('A' for Active; 'I' for Inactive)
REMARK    1  A    between atoms: C_2  and  C_3 
REMARK    2  A    between atoms: C_6  and  C_7 
REMARK    3  A    between atoms: N_8  and  N_9 
REMARK       I    between atoms: N_9  and  C_10 
REMARK    4  A    between atoms: C_10  and  C_11 
ROOT
HETATM    1  N   UNL     1      43.829 -12.841   6.430  1.00  0.00    -0.242 N 
HETATM    2  C   UNL     1      42.641 -13.288   5.880  1.00  0.00     0.292 C 
HETATM    3  O   UNL     1      41.494 -13.018   6.202  1.00  0.00    -0.264 OA
HETATM    4  H   UNL     1      44.694 -13.152   5.989  1.00  0.00     0.192 HD
ENDROOT
BRANCH   1   5
HETATM    5  N   UNL     1      44.011 -12.178   7.617  1.00  0.00    -0.183 NA
HETATM    6  C   UNL     1      44.036 -10.885   7.645  1.00  0.00     0.152 C 
BRANCH   6   7
HETATM    7  C   UNL     1      44.110 -10.212   8.928  1.00  0.00     0.011 A 
HETATM    8  C   UNL     1      43.066  -9.472   9.573  1.00  0.00     0.004 A 
HETATM    9  C   UNL     1      43.548  -9.054  10.817  1.00  0.00     0.049 A 
HETATM   10  C   UNL     1      41.741  -9.143   9.217  1.00  0.00     0.014 A 
HETATM   11  C   UNL     1      42.769  -8.334  11.744  1.00  0.00    -0.031 A 
HETATM   12  N   UNL     1      44.852  -9.490  10.900  1.00  0.00    -0.364 N 
HETATM   13  C   UNL     1      41.455  -8.022  11.345  1.00  0.00     0.009 A 
HETATM   14  C   UNL     1      40.949  -8.415  10.108  1.00  0.00     0.002 A 
HETATM   15  C   UNL     1      45.196 -10.194   9.780  1.00  0.00     0.102 A 
HETATM   16  H   UNL     1      45.460  -9.326  11.691  1.00  0.00     0.165 HD
BRANCH  11  17
HETATM   17  C   UNL     1      43.265  -7.886  13.096  1.00  0.00     0.036 C 
HETATM   18  C   UNL     1      42.381  -8.397  14.223  1.00  0.00     0.010 C 
ENDBRANCH  11  17
ENDBRANCH   6   7
ENDBRANCH   1   5
BRANCH   2  19
HETATM   19  C   UNL     1      42.878 -14.287   4.759  1.00  0.00     0.157 A 
HETATM   20  N   UNL     1      42.874 -13.812   3.545  1.00  0.00    -0.166 NA
HETATM   21  N   UNL     1      43.099 -14.683   2.522  1.00  0.00    -0.242 N 
HETATM   22  C   UNL     1      43.341 -16.032   2.642  1.00  0.00     0.272 A 
HETATM   23  H   UNL     1      43.066 -14.303   1.579  1.00  0.00     0.192 HD
HETATM   24  O   UNL     1      43.527 -16.754   1.670  1.00  0.00    -0.266 OA
HETATM   25  C   UNL     1      43.377 -16.565   4.015  1.00  0.00     0.046 A 
HETATM   26  C   UNL     1      43.148 -15.703   5.085  1.00  0.00     0.016 A 
HETATM   27  C   UNL     1      43.655 -17.918   4.240  1.00  0.00     0.018 A 
HETATM   28  C   UNL     1      43.208 -16.196   6.394  1.00  0.00     0.015 A 
HETATM   29  C   UNL     1      43.484 -17.548   6.618  1.00  0.00     0.001 A 
HETATM   30  C   UNL     1      43.706 -18.408   5.545  1.00  0.00     0.001 A 
ENDBRANCH   2  19
TORSDOF 4
ENDMDL
MODEL 8
REMARK VINA RESULT:      -8.2      6.413     10.395
REMARK  4 active torsions:
REMARK  status: ('A' for Active; 'I' for Inactive)
REMARK    1  A    between atoms: C_2  and  C_3 
REMARK    2  A    between atoms: C_6  and  C_7 
REMARK    3  A    between atoms: N_8  and  N_9 
REMARK       I    between atoms: N_9  and  C_10 
REMARK    4  A    between atoms: C_10  and  C_11 
ROOT
HETATM    1  N   UNL     1      41.448 -14.290   1.539  1.00  0.00    -0.242 N 
HETATM    2  C   UNL     1      40.922 -15.175   2.463  1.00  0.00     0.292 C 
HETATM    3  O   UNL     1      39.776 -15.583   2.570  1.00  0.00    -0.264 OA
HETATM    4  H   UNL     1      42.449 -14.104   1.589  1.00  0.00     0.192 HD
ENDROOT
BRANCH   1   5
HETATM    5  N   UNL     1      40.769 -13.473   0.672  1.00  0.00    -0.183 NA
HETATM    6  C   UNL     1      40.491 -13.879  -0.524  1.00  0.00     0.152 C 
BRANCH   6   7
HETATM    7  C   UNL     1      39.668 -13.042  -1.376  1.00  0.00     0.011 A 
HETATM    8  C   UNL     1      40.006 -11.751  -1.899  1.00  0.00     0.004 A 
HETATM    9  C   UNL     1      38.955 -11.338  -2.722  1.00  0.00     0.049 A 
HETATM   10  C   UNL     1      41.129 -10.908  -1.764  1.00  0.00     0.014 A 
HETATM   11  C   UNL     1      38.968 -10.126  -3.441  1.00  0.00    -0.031 A 
HETATM   12  N   UNL     1      37.996 -12.326  -2.663  1.00  0.00    -0.364 N 
HETATM   13  C   UNL     1      40.105  -9.314  -3.272  1.00  0.00     0.009 A 
HETATM   14  C   UNL     1      41.164  -9.693  -2.450  1.00  0.00     0.002 A 
HETATM   15  C   UNL     1      38.417 -13.356  -1.869  1.00  0.00     0.102 A 
HETATM   16  H   UNL     1      37.114 -12.297  -3.155  1.00  0.00     0.165 HD
BRANCH  11  17
HETATM   17  C   UNL     1      37.850  -9.668  -4.344  1.00  0.00     0.036 C 
HETATM   18  C   UNL     1      38.353  -8.756  -5.453  1.00  0.00     0.010 C 
ENDBRANCH  11  17
ENDBRANCH   6   7
ENDBRANCH   1   5
BRANCH   2  19
HETATM   19  C   UNL     1      41.962 -15.616   3.480  1.00  0.00     0.157 A 
HETATM   20  N   UNL     1      42.143 -14.831   4.504  1.00  0.00    -0.166 NA
HETATM   21  N   UNL     1      43.058 -15.210   5.441  1.00  0.00    -0.242 N 
HETATM   22  C   UNL     1      43.817 -16.357   5.417  1.00  0.00     0.272 A 
HETATM   23  H   UNL     1      43.208 -14.573   6.219  1.00  0.00     0.192 HD
HETATM   24  O   UNL     1      44.628 -16.625   6.295  1.00  0.00    -0.266 OA
HETATM   25  C   UNL     1      43.590 -17.261   4.276  1.00  0.00     0.046 A 
HETATM   26  C   UNL     1      42.664 -16.903   3.299  1.00  0.00     0.016 A 
HETATM   27  C   UNL     1      44.287 -18.472   4.186  1.00  0.00     0.018 A 
HETATM   28  C   UNL     1      42.423 -17.771   2.226  1.00  0.00     0.015 A 
HETATM   29  C   UNL     1      43.120 -18.979   2.135  1.00  0.00     0.001 A 
HETATM   30  C   UNL     1      44.050 -19.329   3.111  1.00  0.00     0.001 A 
ENDBRANCH   2  19
TORSDOF 4
ENDMDL
MODEL 9
REMARK VINA RESULT:      -8.0      6.972      9.572
REMARK  4 active torsions:
REMARK  status: ('A' for Active; 'I' for Inactive)
REMARK    1  A    between atoms: C_2  and  C_3 
REMARK    2  A    between atoms: C_6  and  C_7 
REMARK    3  A    between atoms: N_8  and  N_9 
REMARK       I    between atoms: N_9  and  C_10 
REMARK    4  A    between atoms: C_10  and  C_11 
ROOT
HETATM    1  N   UNL     1      42.271 -13.673   1.161  1.00  0.00    -0.242 N 
HETATM    2  C   UNL     1      41.132 -12.920   1.385  1.00  0.00     0.292 C 
HETATM    3  O   UNL     1      40.435 -12.858   2.386  1.00  0.00    -0.264 OA
HETATM    4  H   UNL     1      42.741 -13.554   0.265  1.00  0.00     0.192 HD
ENDROOT
BRANCH   1   5
HETATM    5  N   UNL     1      42.757 -14.710   1.916  1.00  0.00    -0.183 NA
HETATM    6  C   UNL     1      42.233 -15.888   1.820  1.00  0.00     0.152 C 
BRANCH   6   7
HETATM    7  C   UNL     1      42.844 -16.989   2.539  1.00  0.00     0.011 A 
HETATM    8  C   UNL     1      42.917 -17.154   3.961  1.00  0.00     0.004 A 
HETATM    9  C   UNL     1      43.529 -18.385   4.215  1.00  0.00     0.049 A 
HETATM   10  C   UNL     1      42.489 -16.374   5.055  1.00  0.00     0.014 A 
HETATM   11  C   UNL     1      43.726 -18.895   5.514  1.00  0.00    -0.031 A 
HETATM   12  N   UNL     1      43.855 -18.923   2.989  1.00  0.00    -0.364 N 
HETATM   13  C   UNL     1      43.289 -18.080   6.576  1.00  0.00     0.009 A 
HETATM   14  C   UNL     1      42.685 -16.845   6.355  1.00  0.00     0.002 A 
HETATM   15  C   UNL     1      43.440 -18.102   1.979  1.00  0.00     0.102 A 
HETATM   16  H   UNL     1      44.319 -19.812   2.860  1.00  0.00     0.165 HD
BRANCH  11  17
HETATM   17  C   UNL     1      44.372 -20.225   5.809  1.00  0.00     0.036 C 
HETATM   18  C   UNL     1      43.722 -21.358   5.029  1.00  0.00     0.010 C 
ENDBRANCH  11  17
ENDBRANCH   6   7
ENDBRANCH   1   5
BRANCH   2  19
HETATM   19  C   UNL     1      40.729 -12.125   0.153  1.00  0.00     0.157 A 
HETATM   20  N   UNL     1      41.099 -10.876   0.120  1.00  0.00    -0.166 NA
HETATM   21  N   UNL     1      40.764 -10.144  -0.980  1.00  0.00    -0.242 N 
HETATM   22  C   UNL     1      40.071 -10.599  -2.078  1.00  0.00     0.272 A 
HETATM   23  H   UNL     1      41.035  -9.164  -0.979  1.00  0.00     0.192 HD
HETATM   24  O   UNL     1      39.800  -9.875  -3.029  1.00  0.00    -0.266 OA
HETATM   25  C   UNL     1      39.680 -12.019  -2.056  1.00  0.00     0.046 A 
HETATM   26  C   UNL     1      40.003 -12.796  -0.946  1.00  0.00     0.016 A 
HETATM   27  C   UNL     1      39.006 -12.583  -3.146  1.00  0.00     0.018 A 
HETATM   28  C   UNL     1      39.660 -14.153  -0.930  1.00  0.00     0.015 A 
HETATM   29  C   UNL     1      38.985 -14.716  -2.017  1.00  0.00     0.001 A 
HETATM   30  C   UNL     1      38.657 -13.933  -3.122  1.00  0.00     0.001 A 
ENDBRANCH   2  19
TORSDOF 4
ENDMDL
MODEL 10
REMARK VINA RESULT:      -8.0      7.228     11.026
REMARK  4 active torsions:
REMARK  status: ('A' for Active; 'I' for Inactive)
REMARK    1  A    between atoms: C_2  and  C_3 
REMARK    2  A    between atoms: C_6  and  C_7 
REMARK    3  A    between atoms: N_8  and  N_9 
REMARK       I    between atoms: N_9  and  C_10 
REMARK    4  A    between atoms: C_10  and  C_11 
ROOT
HETATM    1  N   UNL     1      41.317 -12.914   0.130  1.00  0.00    -0.242 N 
HETATM    2  C   UNL     1      40.552 -14.038   0.384  1.00  0.00     0.292 C 
HETATM    3  O   UNL     1      39.841 -14.673  -0.380  1.00  0.00    -0.264 OA
HETATM    4  H   UNL     1      41.881 -12.550   0.897  1.00  0.00     0.192 HD
ENDROOT
BRANCH   1   5
HETATM    5  N   UNL     1      41.278 -12.099  -0.973  1.00  0.00    -0.183 NA
HETATM    6  C   UNL     1      40.672 -10.958  -0.920  1.00  0.00     0.152 C 
BRANCH   6   7
HETATM    7  C   UNL     1      40.750 -10.068  -2.063  1.00  0.00     0.011 A 
HETATM    8  C   UNL     1      41.616  -8.936  -2.215  1.00  0.00     0.004 A 
HETATM    9  C   UNL     1      41.407  -8.409  -3.493  1.00  0.00     0.049 A 
HETATM   10  C   UNL     1      42.582  -8.329  -1.385  1.00  0.00     0.014 A 
HETATM   11  C   UNL     1      42.127  -7.310  -4.002  1.00  0.00    -0.031 A 
HETATM   12  N   UNL     1      40.416  -9.171  -4.075  1.00  0.00    -0.364 N 
HETATM   13  C   UNL     1      43.076  -6.732  -3.137  1.00  0.00     0.009 A 
HETATM   14  C   UNL     1      43.300  -7.227  -1.854  1.00  0.00     0.002 A 
HETATM   15  C   UNL     1      40.024 -10.172  -3.233  1.00  0.00     0.102 A 
HETATM   16  H   UNL     1      40.049  -9.016  -5.003  1.00  0.00     0.165 HD
BRANCH  11  17
HETATM   17  C   UNL     1      41.925  -6.736  -5.381  1.00  0.00     0.036 C 
HETATM   18  C   UNL     1      43.248  -6.459  -6.080  1.00  0.00     0.010 C 
ENDBRANCH  11  17
ENDBRANCH   6   7
ENDBRANCH   1   5
BRANCH   2  19
HETATM   19  C   UNL     1      40.617 -14.448   1.846  1.00  0.00     0.157 A 
HETATM   20  N   UNL     1      39.741 -13.903   2.643  1.00  0.00    -0.166 NA
HETATM   21  N   UNL     1      39.766 -14.264   3.956  1.00  0.00    -0.242 N 
HETATM   22  C   UNL     1      40.631 -15.164   4.534  1.00  0.00     0.272 A 
HETATM   23  H   UNL     1      39.095 -13.810   4.570  1.00  0.00     0.192 HD
HETATM   24  O   UNL     1      40.597 -15.432   5.729  1.00  0.00    -0.266 OA
HETATM   25  C   UNL     1      41.601 -15.804   3.629  1.00  0.00     0.046 A 
HETATM   26  C   UNL     1      41.606 -15.456   2.281  1.00  0.00     0.016 A 
HETATM   27  C   UNL     1      42.497 -16.763   4.119  1.00  0.00     0.018 A 
HETATM   28  C   UNL     1      42.506 -16.081   1.409  1.00  0.00     0.015 A 
HETATM   29  C   UNL     1      43.402 -17.037   1.898  1.00  0.00     0.001 A 
HETATM   30  C   UNL     1      43.398 -17.377   3.249  1.00  0.00     0.001 A 
ENDBRANCH   2  19
TORSDOF 4
ENDMDL
