MODEL 1
REMARK VINA RESULT:      -8.0      0.000      0.000
REMARK  6 active torsions:
REMARK  status: ('A' for Active; 'I' for Inactive)
REMARK    1  A    between atoms: C_8  and  C_9 
REMARK    2  A    between atoms: C_9  and  C_10 
REMARK       I    between atoms: C_10  and  N_11 
REMARK    3  A    between atoms: N_11  and  C_12 
REMARK    4  A    between atoms: C_12  and  C_13 
REMARK    5  A    between atoms: C_13  and  N_14 
REMARK    6  A    between atoms: C_13  and  C_20 
ROOT
HETATM    1  C   UNL     1      42.187 -14.803   2.157  1.00  0.00     0.160 C 
ENDROOT
BRANCH   1   2
HETATM    2  N   UNL     1      41.042 -14.360   1.360  1.00  0.00    -0.358 N 
HETATM    3  C   UNL     1      40.658 -13.044   1.198  1.00  0.00     0.226 C 
HETATM    4  O   UNL     1      41.149 -12.150   1.887  1.00  0.00    -0.273 OA
HETATM    5  H   UNL     1      40.755 -14.989   0.612  1.00  0.00     0.162 HD
BRANCH   3   6
HETATM    6  C   UNL     1      39.581 -12.819   0.128  1.00  0.00     0.111 C 
HETATM    7  C   UNL     1      38.801 -11.530   0.379  1.00  0.00     0.025 C 
BRANCH   6   8
HETATM    8  C   UNL     1      40.194 -12.857  -1.245  1.00  0.00     0.004 A 
HETATM    9  C   UNL     1      41.074 -11.961  -1.836  1.00  0.00     0.033 A 
HETATM   10  C   UNL     1      41.688 -10.696  -1.366  1.00  0.00     0.070 C 
HETATM   11  N   UNL     1      41.324 -12.452  -3.089  1.00  0.00    -0.282 N 
HETATM   12  H   UNL     1      41.906 -12.052  -3.819  1.00  0.00     0.189 HD
HETATM   13  N   UNL     1      40.718 -13.616  -3.335  1.00  0.00    -0.179 NA
HETATM   14  C   UNL     1      39.986 -13.852  -2.244  1.00  0.00     0.060 A 
HETATM   15  C   UNL     1      39.112 -15.053  -2.192  1.00  0.00     0.073 C 
ENDBRANCH   6   8
ENDBRANCH   3   6
ENDBRANCH   1   2
BRANCH   1  16
HETATM   16  C   UNL     1      41.876 -15.605   3.469  1.00  0.00     0.238 C 
BRANCH  16  17
HETATM   17  N   UNL     1      41.945 -14.695   4.691  1.00  0.00    -0.061 N 
HETATM   18  H   UNL     1      42.437 -15.284   5.397  1.00  0.00     0.280 HD
HETATM   19  C   UNL     1      40.660 -14.274   5.361  1.00  0.00     0.236 C 
HETATM   20  C   UNL     1      40.678 -12.761   5.290  1.00  0.00     0.029 C 
HETATM   21  C   UNL     1      42.150 -12.434   5.441  1.00  0.00     0.029 C 
HETATM   22  C   UNL     1      42.819 -13.469   4.557  1.00  0.00     0.236 C 
ENDBRANCH  16  17
BRANCH  16  23
HETATM   23  C   UNL     1      42.712 -16.874   3.606  1.00  0.00    -0.024 A 
HETATM   24  C   UNL     1      42.692 -17.898   2.642  1.00  0.00     0.033 A 
HETATM   25  C   UNL     1      43.499 -19.029   2.786  1.00  0.00     0.034 A 
HETATM   26 CL   UNL     1      43.462 -20.251   1.577  1.00  0.00    -0.084 Cl
HETATM   27  C   UNL     1      44.332 -19.170   3.891  1.00  0.00     0.024 A 
HETATM   28  C   UNL     1      44.351 -18.177   4.866  1.00  0.00     0.002 A 
HETATM   29  C   UNL     1      43.546 -17.042   4.727  1.00  0.00     0.009 A 
ENDBRANCH  16  23
ENDBRANCH   1  16
TORSDOF 6
ENDMDL
MODEL 2
REMARK VINA RESULT:      -8.0      3.582      5.681
REMARK  6 active torsions:
REMARK  status: ('A' for Active; 'I' for Inactive)
REMARK    1  A    between atoms: C_8  and  C_9 
REMARK    2  A    between atoms: C_9  and  C_10 
REMARK       I    between atoms: C_10  and  N_11 
REMARK    3  A    between atoms: N_11  and  C_12 
REMARK    4  A    between atoms: C_12  and  C_13 
REMARK    5  A    between atoms: C_13  and  N_14 
REMARK    6  A    between atoms: C_13  and  C_20 
ROOT
HETATM    1  C   UNL     1      43.762 -15.737   6.061  1.00  0.00     0.160 C 
ENDROOT
BRANCH   1   2
HETATM    2  N   UNL     1      43.925 -14.295   6.252  1.00  0.00    -0.358 N 
HETATM    3  C   UNL     1      42.886 -13.399   6.401  1.00  0.00     0.226 C 
HETATM    4  O   UNL     1      41.722 -13.734   6.184  1.00  0.00    -0.273 OA
HETATM    5  H   UNL     1      44.811 -14.001   6.660  1.00  0.00     0.162 HD
BRANCH   3   6
HETATM    6  C   UNL     1      43.314 -11.988   6.828  1.00  0.00     0.111 C 
HETATM    7  C   UNL     1      44.829 -11.882   6.980  1.00  0.00     0.025 C 
BRANCH   6   8
HETATM    8  C   UNL     1      42.763 -10.965   5.871  1.00  0.00     0.004 A 
HETATM    9  C   UNL     1      42.923 -10.879   4.495  1.00  0.00     0.033 A 
HETATM   10  C   UNL     1      43.667 -11.705   3.515  1.00  0.00     0.070 C 
HETATM   11  N   UNL     1      42.223  -9.769   4.105  1.00  0.00    -0.282 N 
HETATM   12  H   UNL     1      42.129  -9.377   3.173  1.00  0.00     0.189 HD
HETATM   13  N   UNL     1      41.585  -9.162   5.110  1.00  0.00    -0.179 NA
HETATM   14  C   UNL     1      41.944  -9.846   6.198  1.00  0.00     0.060 A 
HETATM   15  C   UNL     1      41.465  -9.404   7.534  1.00  0.00     0.073 C 
ENDBRANCH   6   8
ENDBRANCH   3   6
ENDBRANCH   1   2
BRANCH   1  16
HETATM   16  C   UNL     1      43.778 -16.267   4.584  1.00  0.00     0.238 C 
BRANCH  16  17
HETATM   17  N   UNL     1      42.675 -15.611   3.759  1.00  0.00    -0.061 N 
HETATM   18  H   UNL     1      42.516 -14.707   4.253  1.00  0.00     0.280 HD
HETATM   19  C   UNL     1      41.318 -16.269   3.701  1.00  0.00     0.236 C 
HETATM   20  C   UNL     1      41.092 -16.535   2.228  1.00  0.00     0.029 C 
HETATM   21  C   UNL     1      41.763 -15.350   1.564  1.00  0.00     0.029 C 
HETATM   22  C   UNL     1      43.051 -15.206   2.353  1.00  0.00     0.236 C 
ENDBRANCH  16  17
BRANCH  16  23
HETATM   23  C   UNL     1      43.780 -17.790   4.497  1.00  0.00    -0.024 A 
HETATM   24  C   UNL     1      43.838 -18.475   3.269  1.00  0.00     0.033 A 
HETATM   25  C   UNL     1      43.874 -19.871   3.232  1.00  0.00     0.034 A 
HETATM   26 CL   UNL     1      43.964 -20.672   1.714  1.00  0.00    -0.084 Cl
HETATM   27  C   UNL     1      43.843 -20.613   4.408  1.00  0.00     0.024 A 
HETATM   28  C   UNL     1      43.765 -19.954   5.632  1.00  0.00     0.002 A 
HETATM   29  C   UNL     1      43.730 -18.557   5.676  1.00  0.00     0.009 A 
ENDBRANCH  16  23
ENDBRANCH   1  16
TORSDOF 6
ENDMDL
MODEL 3
REMARK VINA RESULT:      -7.8      2.843      6.245
REMARK  6 active torsions:
REMARK  status: ('A' for Active; 'I' for Inactive)
REMARK    1  A    between atoms: C_8  and  C_9 
REMARK    2  A    between atoms: C_9  and  C_10 
REMARK       I    between atoms: C_10  and  N_11 
REMARK    3  A    between atoms: N_11  and  C_12 
REMARK    4  A    between atoms: C_12  and  C_13 
REMARK    5  A    between atoms: C_13  and  N_14 
REMARK    6  A    between atoms: C_13  and  C_20 
ROOT
HETATM    1  C   UNL     1      42.887 -14.873   4.755  1.00  0.00     0.160 C 
ENDROOT
BRANCH   1   2
HETATM    2  N   UNL     1      43.183 -13.440   4.724  1.00  0.00    -0.358 N 
HETATM    3  C   UNL     1      42.297 -12.446   5.089  1.00  0.00     0.226 C 
HETATM    4  O   UNL     1      41.107 -12.696   5.282  1.00  0.00    -0.273 OA
HETATM    5  H   UNL     1      44.167 -13.191   4.802  1.00  0.00     0.162 HD
BRANCH   3   6
HETATM    6  C   UNL     1      42.916 -11.046   5.201  1.00  0.00     0.111 C 
HETATM    7  C   UNL     1      42.152 -10.025   4.363  1.00  0.00     0.025 C 
BRANCH   6   8
HETATM    8  C   UNL     1      43.019 -10.637   6.645  1.00  0.00     0.004 A 
HETATM    9  C   UNL     1      42.047 -10.090   7.471  1.00  0.00     0.033 A 
HETATM   10  C   UNL     1      40.632  -9.711   7.246  1.00  0.00     0.070 C 
HETATM   11  N   UNL     1      42.650  -9.901   8.686  1.00  0.00    -0.282 N 
HETATM   12  H   UNL     1      42.256  -9.499   9.531  1.00  0.00     0.189 HD
HETATM   13  N   UNL     1      43.916 -10.328   8.724  1.00  0.00    -0.179 NA
HETATM   14  C   UNL     1      44.172 -10.731   7.478  1.00  0.00     0.060 A 
HETATM   15  C   UNL     1      45.533 -11.217   7.129  1.00  0.00     0.073 C 
ENDBRANCH   6   8
ENDBRANCH   3   6
ENDBRANCH   1   2
BRANCH   1  16
HETATM   16  C   UNL     1      43.075 -15.669   3.416  1.00  0.00     0.238 C 
BRANCH  16  17
HETATM   17  N   UNL     1      41.896 -15.437   2.476  1.00  0.00    -0.061 N 
HETATM   18  H   UNL     1      41.896 -16.291   1.880  1.00  0.00     0.280 HD
HETATM   19  C   UNL     1      41.953 -14.283   1.506  1.00  0.00     0.236 C 
HETATM   20  C   UNL     1      40.746 -13.438   1.855  1.00  0.00     0.029 C 
HETATM   21  C   UNL     1      39.718 -14.471   2.267  1.00  0.00     0.029 C 
HETATM   22  C   UNL     1      40.527 -15.432   3.118  1.00  0.00     0.236 C 
ENDBRANCH  16  17
BRANCH  16  23
HETATM   23  C   UNL     1      43.395 -17.144   3.638  1.00  0.00    -0.024 A 
HETATM   24  C   UNL     1      43.363 -18.088   2.596  1.00  0.00     0.033 A 
HETATM   25  C   UNL     1      43.698 -19.424   2.832  1.00  0.00     0.034 A 
HETATM   26 CL   UNL     1      43.667 -20.544   1.529  1.00  0.00    -0.084 Cl
HETATM   27  C   UNL     1      44.058 -19.850   4.106  1.00  0.00     0.024 A 
HETATM   28  C   UNL     1      44.076 -18.935   5.155  1.00  0.00     0.002 A 
HETATM   29  C   UNL     1      43.743 -17.597   4.924  1.00  0.00     0.009 A 
ENDBRANCH  16  23
ENDBRANCH   1  16
TORSDOF 6
ENDMDL
MODEL 4
REMARK VINA RESULT:      -7.6      5.057      7.909
REMARK  6 active torsions:
REMARK  status: ('A' for Active; 'I' for Inactive)
REMARK    1  A    between atoms: C_8  and  C_9 
REMARK    2  A    between atoms: C_9  and  C_10 
REMARK       I    between atoms: C_10  and  N_11 
REMARK    3  A    between atoms: N_11  and  C_12 
REMARK    4  A    between atoms: C_12  and  C_13 
REMARK    5  A    between atoms: C_13  and  N_14 
REMARK    6  A    between atoms: C_13  and  C_20 
ROOT
HETATM    1  C   UNL     1      44.348 -13.413   6.523  1.00  0.00     0.160 C 
ENDROOT
BRANCH   1   2
HETATM    2  N   UNL     1      43.599 -14.582   6.060  1.00  0.00    -0.358 N 
HETATM    3  C   UNL     1      44.000 -15.891   6.231  1.00  0.00     0.226 C 
HETATM    4  O   UNL     1      45.135 -16.162   6.623  1.00  0.00    -0.273 OA
HETATM    5  H   UNL     1      42.595 -14.448   5.950  1.00  0.00     0.162 HD
BRANCH   3   6
HETATM    6  C   UNL     1      42.935 -16.938   5.876  1.00  0.00     0.111 C 
HETATM    7  C   UNL     1      41.550 -16.310   5.746  1.00  0.00     0.025 C 
BRANCH   6   8
HETATM    8  C   UNL     1      43.339 -17.693   4.638  1.00  0.00     0.004 A 
HETATM    9  C   UNL     1      43.388 -17.253   3.323  1.00  0.00     0.033 A 
HETATM   10  C   UNL     1      43.062 -15.956   2.683  1.00  0.00     0.070 C 
HETATM   11  N   UNL     1      43.817 -18.323   2.585  1.00  0.00    -0.282 N 
HETATM   12  H   UNL     1      43.952 -18.384   1.580  1.00  0.00     0.189 HD
HETATM   13  N   UNL     1      44.097 -19.400   3.324  1.00  0.00    -0.179 NA
HETATM   14  C   UNL     1      43.763 -19.051   4.568  1.00  0.00     0.060 A 
HETATM   15  C   UNL     1      43.882 -20.045   5.666  1.00  0.00     0.073 C 
ENDBRANCH   6   8
ENDBRANCH   3   6
ENDBRANCH   1   2
BRANCH   1  16
HETATM   16  C   UNL     1      43.527 -12.109   6.818  1.00  0.00     0.238 C 
BRANCH  16  17
HETATM   17  N   UNL     1      42.959 -11.522   5.530  1.00  0.00    -0.061 N 
HETATM   18  H   UNL     1      42.923 -10.500   5.731  1.00  0.00     0.280 HD
HETATM   19  C   UNL     1      41.555 -11.889   5.117  1.00  0.00     0.236 C 
HETATM   20  C   UNL     1      41.718 -12.526   3.753  1.00  0.00     0.029 C 
HETATM   21  C   UNL     1      42.867 -11.743   3.151  1.00  0.00     0.029 C 
HETATM   22  C   UNL     1      43.841 -11.628   4.307  1.00  0.00     0.236 C 
ENDBRANCH  16  17
BRANCH  16  23
HETATM   23  C   UNL     1      44.295 -11.097   7.663  1.00  0.00    -0.024 A 
HETATM   24  C   UNL     1      43.795 -10.594   8.877  1.00  0.00     0.033 A 
HETATM   25  C   UNL     1      44.545  -9.695   9.640  1.00  0.00     0.034 A 
HETATM   26 CL   UNL     1      43.909  -9.118  11.129  1.00  0.00    -0.084 Cl
HETATM   27  C   UNL     1      45.796  -9.271   9.208  1.00  0.00     0.024 A 
HETATM   28  C   UNL     1      46.300  -9.742   7.998  1.00  0.00     0.002 A 
HETATM   29  C   UNL     1      45.555 -10.642   7.232  1.00  0.00     0.009 A 
ENDBRANCH  16  23
ENDBRANCH   1  16
TORSDOF 6
ENDMDL
MODEL 5
REMARK VINA RESULT:      -7.6      2.500      5.044
REMARK  6 active torsions:
REMARK  status: ('A' for Active; 'I' for Inactive)
REMARK    1  A    between atoms: C_8  and  C_9 
REMARK    2  A    between atoms: C_9  and  C_10 
REMARK       I    between atoms: C_10  and  N_11 
REMARK    3  A    between atoms: N_11  and  C_12 
REMARK    4  A    between atoms: C_12  and  C_13 
REMARK    5  A    between atoms: C_13  and  N_14 
REMARK    6  A    between atoms: C_13  and  C_20 
ROOT
HETATM    1  C   UNL     1      43.534 -14.556   1.833  1.00  0.00     0.160 C 
ENDROOT
BRANCH   1   2
HETATM    2  N   UNL     1      43.452 -13.945   3.161  1.00  0.00    -0.358 N 
HETATM    3  C   UNL     1      42.993 -12.668   3.412  1.00  0.00     0.226 C 
HETATM    4  O   UNL     1      42.800 -11.871   2.494  1.00  0.00    -0.273 OA
HETATM    5  H   UNL     1      43.371 -14.595   3.941  1.00  0.00     0.162 HD
BRANCH   3   6
HETATM    6  C   UNL     1      42.776 -12.346   4.897  1.00  0.00     0.111 C 
HETATM    7  C   UNL     1      42.996 -10.864   5.188  1.00  0.00     0.025 C 
BRANCH   6   8
HETATM    8  C   UNL     1      41.419 -12.821   5.341  1.00  0.00     0.004 A 
HETATM    9  C   UNL     1      40.169 -12.294   5.047  1.00  0.00     0.033 A 
HETATM   10  C   UNL     1      39.733 -11.124   4.248  1.00  0.00     0.070 C 
HETATM   11  N   UNL     1      39.264 -13.091   5.694  1.00  0.00    -0.282 N 
HETATM   12  H   UNL     1      38.253 -13.000   5.729  1.00  0.00     0.189 HD
HETATM   13  N   UNL     1      39.825 -14.118   6.339  1.00  0.00    -0.179 NA
HETATM   14  C   UNL     1      41.138 -13.940   6.177  1.00  0.00     0.060 A 
HETATM   15  C   UNL     1      42.091 -14.876   6.827  1.00  0.00     0.073 C 
ENDBRANCH   6   8
ENDBRANCH   3   6
ENDBRANCH   1   2
BRANCH   1  16
HETATM   16  C   UNL     1      42.836 -15.948   1.643  1.00  0.00     0.238 C 
BRANCH  16  17
HETATM   17  N   UNL     1      41.321 -15.788   1.554  1.00  0.00    -0.061 N 
HETATM   18  H   UNL     1      41.014 -16.679   1.110  1.00  0.00     0.280 HD
HETATM   19  C   UNL     1      40.752 -14.698   0.679  1.00  0.00     0.236 C 
HETATM   20  C   UNL     1      39.935 -13.844   1.625  1.00  0.00     0.029 C 
HETATM   21  C   UNL     1      39.385 -14.859   2.606  1.00  0.00     0.029 C 
HETATM   22  C   UNL     1      40.580 -15.755   2.871  1.00  0.00     0.236 C 
ENDBRANCH  16  17
BRANCH  16  23
HETATM   23  C   UNL     1      43.280 -16.984   2.671  1.00  0.00    -0.024 A 
HETATM   24  C   UNL     1      43.338 -18.358   2.379  1.00  0.00     0.033 A 
HETATM   25  C   UNL     1      43.784 -19.273   3.337  1.00  0.00     0.034 A 
HETATM   26 CL   UNL     1      43.861 -20.943   2.937  1.00  0.00    -0.084 Cl
HETATM   27  C   UNL     1      44.170 -18.844   4.602  1.00  0.00     0.024 A 
HETATM   28  C   UNL     1      44.100 -17.489   4.917  1.00  0.00     0.002 A 
HETATM   29  C   UNL     1      43.655 -16.569   3.962  1.00  0.00     0.009 A 
ENDBRANCH  16  23
ENDBRANCH   1  16
TORSDOF 6
ENDMDL
MODEL 6
REMARK VINA RESULT:      -7.4      2.541      3.915
REMARK  6 active torsions:
REMARK  status: ('A' for Active; 'I' for Inactive)
REMARK    1  A    between atoms: C_8  and  C_9 
REMARK    2  A    between atoms: C_9  and  C_10 
REMARK       I    between atoms: C_10  and  N_11 
REMARK    3  A    between atoms: N_11  and  C_12 
REMARK    4  A    between atoms: C_12  and  C_13 
REMARK    5  A    between atoms: C_13  and  N_14 
REMARK    6  A    between atoms: C_13  and  C_20 
ROOT
HETATM    1  C   UNL     1      39.920 -13.414   2.559  1.00  0.00     0.160 C 
ENDROOT
BRANCH   1   2
HETATM    2  N   UNL     1      39.251 -13.275   1.265  1.00  0.00    -0.358 N 
HETATM    3  C   UNL     1      39.090 -12.083   0.588  1.00  0.00     0.226 C 
HETATM    4  O   UNL     1      39.331 -11.005   1.132  1.00  0.00    -0.273 OA
HETATM    5  H   UNL     1      39.243 -14.108   0.680  1.00  0.00     0.162 HD
BRANCH   3   6
HETATM    6  C   UNL     1      38.575 -12.228  -0.851  1.00  0.00     0.111 C 
HETATM    7  C   UNL     1      37.821 -10.982  -1.307  1.00  0.00     0.025 C 
BRANCH   6   8
HETATM    8  C   UNL     1      39.708 -12.581  -1.776  1.00  0.00     0.004 A 
HETATM    9  C   UNL     1      40.868 -11.869  -2.051  1.00  0.00     0.033 A 
HETATM   10  C   UNL     1      41.383 -10.564  -1.574  1.00  0.00     0.070 C 
HETATM   11  N   UNL     1      41.564 -12.622  -2.957  1.00  0.00    -0.282 N 
HETATM   12  H   UNL     1      42.451 -12.411  -3.405  1.00  0.00     0.189 HD
HETATM   13  N   UNL     1      40.973 -13.783  -3.251  1.00  0.00    -0.179 NA
HETATM   14  C   UNL     1      39.819 -13.752  -2.581  1.00  0.00     0.060 A 
HETATM   15  C   UNL     1      38.855 -14.874  -2.726  1.00  0.00     0.073 C 
ENDBRANCH   6   8
ENDBRANCH   3   6
ENDBRANCH   1   2
BRANCH   1  16
HETATM   16  C   UNL     1      41.477 -13.606   2.541  1.00  0.00     0.238 C 
BRANCH  16  17
HETATM   17  N   UNL     1      41.857 -14.891   1.812  1.00  0.00    -0.061 N 
HETATM   18  H   UNL     1      41.657 -14.666   0.814  1.00  0.00     0.280 HD
HETATM   19  C   UNL     1      41.071 -16.149   2.092  1.00  0.00     0.236 C 
HETATM   20  C   UNL     1      42.106 -17.133   2.596  1.00  0.00     0.029 C 
HETATM   21  C   UNL     1      43.338 -16.768   1.795  1.00  0.00     0.029 C 
HETATM   22  C   UNL     1      43.324 -15.252   1.825  1.00  0.00     0.236 C 
ENDBRANCH  16  17
BRANCH  16  23
HETATM   23  C   UNL     1      42.110 -13.480   3.923  1.00  0.00    -0.024 A 
HETATM   24  C   UNL     1      43.165 -12.589   4.190  1.00  0.00     0.033 A 
HETATM   25  C   UNL     1      43.695 -12.477   5.478  1.00  0.00     0.034 A 
HETATM   26 CL   UNL     1      44.971 -11.362   5.771  1.00  0.00    -0.084 Cl
HETATM   27  C   UNL     1      43.198 -13.252   6.520  1.00  0.00     0.024 A 
HETATM   28  C   UNL     1      42.167 -14.154   6.271  1.00  0.00     0.002 A 
HETATM   29  C   UNL     1      41.632 -14.270   4.984  1.00  0.00     0.009 A 
ENDBRANCH  16  23
ENDBRANCH   1  16
TORSDOF 6
ENDMDL
MODEL 7
REMARK VINA RESULT:      -7.4      5.259      7.979
REMARK  6 active torsions:
REMARK  status: ('A' for Active; 'I' for Inactive)
REMARK    1  A    between atoms: C_8  and  C_9 
REMARK    2  A    between atoms: C_9  and  C_10 
REMARK       I    between atoms: C_10  and  N_11 
REMARK    3  A    between atoms: N_11  and  C_12 
REMARK    4  A    between atoms: C_12  and  C_13 
REMARK    5  A    between atoms: C_13  and  N_14 
REMARK    6  A    between atoms: C_13  and  C_20 
ROOT
HETATM    1  C   UNL     1      44.167 -13.497   6.542  1.00  0.00     0.160 C 
ENDROOT
BRANCH   1   2
HETATM    2  N   UNL     1      43.460 -14.685   6.059  1.00  0.00    -0.358 N 
HETATM    3  C   UNL     1      43.935 -15.977   6.158  1.00  0.00     0.226 C 
HETATM    4  O   UNL     1      45.098 -16.202   6.493  1.00  0.00    -0.273 OA
HETATM    5  H   UNL     1      42.447 -14.601   5.994  1.00  0.00     0.162 HD
BRANCH   3   6
HETATM    6  C   UNL     1      42.913 -17.064   5.800  1.00  0.00     0.111 C 
HETATM    7  C   UNL     1      41.505 -16.490   5.669  1.00  0.00     0.025 C 
BRANCH   6   8
HETATM    8  C   UNL     1      43.347 -17.801   4.562  1.00  0.00     0.004 A 
HETATM    9  C   UNL     1      43.804 -19.105   4.435  1.00  0.00     0.033 A 
HETATM   10  C   UNL     1      44.037 -20.190   5.418  1.00  0.00     0.070 C 
HETATM   11  N   UNL     1      44.065 -19.283   3.103  1.00  0.00    -0.282 N 
HETATM   12  H   UNL     1      44.436 -20.106   2.636  1.00  0.00     0.189 HD
HETATM   13  N   UNL     1      43.767 -18.217   2.355  1.00  0.00    -0.179 NA
HETATM   14  C   UNL     1      43.377 -17.290   3.232  1.00  0.00     0.060 A 
HETATM   15  C   UNL     1      43.024 -15.928   2.752  1.00  0.00     0.073 C 
ENDBRANCH   6   8
ENDBRANCH   3   6
ENDBRANCH   1   2
BRANCH   1  16
HETATM   16  C   UNL     1      43.299 -12.226   6.846  1.00  0.00     0.238 C 
BRANCH  16  17
HETATM   17  N   UNL     1      42.417 -11.872   5.653  1.00  0.00    -0.061 N 
HETATM   18  H   UNL     1      42.299 -12.786   5.166  1.00  0.00     0.280 HD
HETATM   19  C   UNL     1      42.957 -10.936   4.599  1.00  0.00     0.236 C 
HETATM   20  C   UNL     1      41.977  -9.782   4.585  1.00  0.00     0.029 C 
HETATM   21  C   UNL     1      40.653 -10.459   4.872  1.00  0.00     0.029 C 
HETATM   22  C   UNL     1      41.007 -11.437   5.977  1.00  0.00     0.236 C 
ENDBRANCH  16  17
BRANCH  16  23
HETATM   23  C   UNL     1      44.123 -11.051   7.365  1.00  0.00    -0.024 A 
HETATM   24  C   UNL     1      43.533  -9.919   7.954  1.00  0.00     0.033 A 
HETATM   25  C   UNL     1      44.324  -8.879   8.449  1.00  0.00     0.034 A 
HETATM   26 CL   UNL     1      43.568  -7.519   9.181  1.00  0.00    -0.084 Cl
HETATM   27  C   UNL     1      45.710  -8.937   8.359  1.00  0.00     0.024 A 
HETATM   28  C   UNL     1      46.312 -10.041   7.761  1.00  0.00     0.002 A 
HETATM   29  C   UNL     1      45.526 -11.085   7.265  1.00  0.00     0.009 A 
ENDBRANCH  16  23
ENDBRANCH   1  16
TORSDOF 6
ENDMDL
MODEL 8
REMARK VINA RESULT:      -7.4      4.694      7.395
REMARK  6 active torsions:
REMARK  status: ('A' for Active; 'I' for Inactive)
REMARK    1  A    between atoms: C_8  and  C_9 
REMARK    2  A    between atoms: C_9  and  C_10 
REMARK       I    between atoms: C_10  and  N_11 
REMARK    3  A    between atoms: N_11  and  C_12 
REMARK    4  A    between atoms: C_12  and  C_13 
REMARK    5  A    between atoms: C_13  and  N_14 
REMARK    6  A    between atoms: C_13  and  C_20 
ROOT
HETATM    1  C   UNL     1      43.585 -13.738   7.067  1.00  0.00     0.160 C 
ENDROOT
BRANCH   1   2
HETATM    2  N   UNL     1      43.669 -14.653   5.927  1.00  0.00    -0.358 N 
HETATM    3  C   UNL     1      43.741 -16.028   6.026  1.00  0.00     0.226 C 
HETATM    4  O   UNL     1      43.940 -16.577   7.110  1.00  0.00    -0.273 OA
HETATM    5  H   UNL     1      43.287 -14.302   5.050  1.00  0.00     0.162 HD
BRANCH   3   6
HETATM    6  C   UNL     1      43.578 -16.775   4.695  1.00  0.00     0.111 C 
HETATM    7  C   UNL     1      43.647 -18.287   4.888  1.00  0.00     0.025 C 
BRANCH   6   8
HETATM    8  C   UNL     1      42.310 -16.344   4.008  1.00  0.00     0.004 A 
HETATM    9  C   UNL     1      41.040 -16.172   4.542  1.00  0.00     0.033 A 
HETATM   10  C   UNL     1      40.489 -16.356   5.905  1.00  0.00     0.070 C 
HETATM   11  N   UNL     1      40.247 -15.773   3.500  1.00  0.00    -0.282 N 
HETATM   12  H   UNL     1      39.251 -15.573   3.505  1.00  0.00     0.189 HD
HETATM   13  N   UNL     1      40.912 -15.625   2.351  1.00  0.00    -0.179 NA
HETATM   14  C   UNL     1      42.157 -16.016   2.630  1.00  0.00     0.060 A 
HETATM   15  C   UNL     1      43.176 -16.046   1.549  1.00  0.00     0.073 C 
ENDBRANCH   6   8
ENDBRANCH   3   6
ENDBRANCH   1   2
BRANCH   1  16
HETATM   16  C   UNL     1      43.070 -12.285   6.779  1.00  0.00     0.238 C 
BRANCH  16  17
HETATM   17  N   UNL     1      42.651 -12.136   5.320  1.00  0.00    -0.061 N 
HETATM   18  H   UNL     1      42.988 -13.021   4.885  1.00  0.00     0.280 HD
HETATM   19  C   UNL     1      43.267 -11.035   4.492  1.00  0.00     0.236 C 
HETATM   20  C   UNL     1      42.087 -10.206   4.031  1.00  0.00     0.029 C 
HETATM   21  C   UNL     1      41.001 -11.243   3.837  1.00  0.00     0.029 C 
HETATM   22  C   UNL     1      41.163 -12.135   5.054  1.00  0.00     0.236 C 
ENDBRANCH  16  17
BRANCH  16  23
HETATM   23  C   UNL     1      44.040 -11.204   7.247  1.00  0.00    -0.024 A 
HETATM   24  C   UNL     1      43.604  -9.990   7.806  1.00  0.00     0.033 A 
HETATM   25  C   UNL     1      44.524  -9.039   8.256  1.00  0.00     0.034 A 
HETATM   26 CL   UNL     1      43.953  -7.575   8.952  1.00  0.00    -0.084 Cl
HETATM   27  C   UNL     1      45.891  -9.271   8.150  1.00  0.00     0.024 A 
HETATM   28  C   UNL     1      46.343 -10.458   7.581  1.00  0.00     0.002 A 
HETATM   29  C   UNL     1      45.427 -11.413   7.130  1.00  0.00     0.009 A 
ENDBRANCH  16  23
ENDBRANCH   1  16
TORSDOF 6
ENDMDL
MODEL 9
REMARK VINA RESULT:      -7.3      2.836      3.570
REMARK  6 active torsions:
REMARK  status: ('A' for Active; 'I' for Inactive)
REMARK    1  A    between atoms: C_8  and  C_9 
REMARK    2  A    between atoms: C_9  and  C_10 
REMARK       I    between atoms: C_10  and  N_11 
REMARK    3  A    between atoms: N_11  and  C_12 
REMARK    4  A    between atoms: C_12  and  C_13 
REMARK    5  A    between atoms: C_13  and  N_14 
REMARK    6  A    between atoms: C_13  and  C_20 
ROOT
HETATM    1  C   UNL     1      40.608 -14.095   6.310  1.00  0.00     0.160 C 
ENDROOT
BRANCH   1   2
HETATM    2  N   UNL     1      40.141 -14.113   4.923  1.00  0.00    -0.358 N 
HETATM    3  C   UNL     1      39.564 -13.040   4.274  1.00  0.00     0.226 C 
HETATM    4  O   UNL     1      39.219 -12.033   4.893  1.00  0.00    -0.273 OA
HETATM    5  H   UNL     1      40.589 -14.796   4.314  1.00  0.00     0.162 HD
BRANCH   3   6
HETATM    6  C   UNL     1      39.380 -13.230   2.762  1.00  0.00     0.111 C 
HETATM    7  C   UNL     1      38.890 -11.950   2.090  1.00  0.00     0.025 C 
BRANCH   6   8
HETATM    8  C   UNL     1      40.651 -13.749   2.144  1.00  0.00     0.004 A 
HETATM    9  C   UNL     1      41.903 -13.153   2.088  1.00  0.00     0.033 A 
HETATM   10  C   UNL     1      42.421 -11.852   2.574  1.00  0.00     0.070 C 
HETATM   11  N   UNL     1      42.708 -14.035   1.419  1.00  0.00    -0.282 N 
HETATM   12  H   UNL     1      43.687 -13.932   1.168  1.00  0.00     0.189 HD
HETATM   13  N   UNL     1      42.090 -15.171   1.083  1.00  0.00    -0.179 NA
HETATM   14  C   UNL     1      40.826 -14.993   1.471  1.00  0.00     0.060 A 
HETATM   15  C   UNL     1      39.817 -16.048   1.192  1.00  0.00     0.073 C 
ENDBRANCH   6   8
ENDBRANCH   3   6
ENDBRANCH   1   2
BRANCH   1  16
HETATM   16  C   UNL     1      42.144 -14.308   6.548  1.00  0.00     0.238 C 
BRANCH  16  17
HETATM   17  N   UNL     1      42.933 -13.065   6.146  1.00  0.00    -0.061 N 
HETATM   18  H   UNL     1      43.002 -13.153   5.110  1.00  0.00     0.280 HD
HETATM   19  C   UNL     1      44.358 -12.920   6.621  1.00  0.00     0.236 C 
HETATM   20  C   UNL     1      44.361 -11.628   7.411  1.00  0.00     0.029 C 
HETATM   21  C   UNL     1      43.366 -10.770   6.657  1.00  0.00     0.029 C 
HETATM   22  C   UNL     1      42.239 -11.740   6.361  1.00  0.00     0.236 C 
ENDBRANCH  16  17
BRANCH  16  23
HETATM   23  C   UNL     1      42.674 -15.594   5.921  1.00  0.00    -0.024 A 
HETATM   24  C   UNL     1      42.755 -16.803   6.635  1.00  0.00     0.033 A 
HETATM   25  C   UNL     1      43.212 -17.968   6.015  1.00  0.00     0.034 A 
HETATM   26 CL   UNL     1      43.279 -19.432   6.915  1.00  0.00    -0.084 Cl
HETATM   27  C   UNL     1      43.607 -17.954   4.682  1.00  0.00     0.024 A 
HETATM   28  C   UNL     1      43.552 -16.763   3.963  1.00  0.00     0.002 A 
HETATM   29  C   UNL     1      43.095 -15.594   4.578  1.00  0.00     0.009 A 
ENDBRANCH  16  23
ENDBRANCH   1  16
TORSDOF 6
ENDMDL
MODEL 10
REMARK VINA RESULT:      -7.3      2.719      6.882
REMARK  6 active torsions:
REMARK  status: ('A' for Active; 'I' for Inactive)
REMARK    1  A    between atoms: C_8  and  C_9 
REMARK    2  A    between atoms: C_9  and  C_10 
REMARK       I    between atoms: C_10  and  N_11 
REMARK    3  A    between atoms: N_11  and  C_12 
REMARK    4  A    between atoms: C_12  and  C_13 
REMARK    5  A    between atoms: C_13  and  N_14 
REMARK    6  A    between atoms: C_13  and  C_20 
ROOT
HETATM    1  C   UNL     1      42.298 -13.170   1.942  1.00  0.00     0.160 C 
ENDROOT
BRANCH   1   2
HETATM    2  N   UNL     1      42.586 -13.201   3.377  1.00  0.00    -0.358 N 
HETATM    3  C   UNL     1      42.661 -12.086   4.188  1.00  0.00     0.226 C 
HETATM    4  O   UNL     1      42.684 -10.952   3.709  1.00  0.00    -0.273 OA
HETATM    5  H   UNL     1      42.351 -14.068   3.856  1.00  0.00     0.162 HD
BRANCH   3   6
HETATM    6  C   UNL     1      42.734 -12.391   5.690  1.00  0.00     0.111 C 
HETATM    7  C   UNL     1      42.493 -11.140   6.530  1.00  0.00     0.025 C 
BRANCH   6   8
HETATM    8  C   UNL     1      41.787 -13.506   6.042  1.00  0.00     0.004 A 
HETATM    9  C   UNL     1      40.403 -13.542   5.946  1.00  0.00     0.033 A 
HETATM   10  C   UNL     1      39.400 -12.545   5.503  1.00  0.00     0.070 C 
HETATM   11  N   UNL     1      40.028 -14.780   6.392  1.00  0.00    -0.282 N 
HETATM   12  H   UNL     1      39.091 -15.160   6.487  1.00  0.00     0.189 HD
HETATM   13  N   UNL     1      41.060 -15.563   6.719  1.00  0.00    -0.179 NA
HETATM   14  C   UNL     1      42.134 -14.788   6.561  1.00  0.00     0.060 A 
HETATM   15  C   UNL     1      43.480 -15.318   6.903  1.00  0.00     0.073 C 
ENDBRANCH   6   8
ENDBRANCH   3   6
ENDBRANCH   1   2
BRANCH   1  16
HETATM   16  C   UNL     1      41.121 -14.073   1.431  1.00  0.00     0.238 C 
BRANCH  16  17
HETATM   17  N   UNL     1      41.470 -15.552   1.575  1.00  0.00    -0.061 N 
HETATM   18  H   UNL     1      40.951 -15.995   0.787  1.00  0.00     0.280 HD
HETATM   19  C   UNL     1      41.014 -16.292   2.809  1.00  0.00     0.236 C 
HETATM   20  C   UNL     1      42.294 -16.802   3.435  1.00  0.00     0.029 C 
HETATM   21  C   UNL     1      43.160 -17.111   2.231  1.00  0.00     0.029 C 
HETATM   22  C   UNL     1      42.913 -15.921   1.323  1.00  0.00     0.236 C 
ENDBRANCH  16  17
BRANCH  16  23
HETATM   23  C   UNL     1      40.641 -13.694   0.034  1.00  0.00    -0.024 A 
HETATM   24  C   UNL     1      39.882 -14.568  -0.766  1.00  0.00     0.033 A 
HETATM   25  C   UNL     1      39.430 -14.170  -2.027  1.00  0.00     0.034 A 
HETATM   26 CL   UNL     1      38.489 -15.259  -2.967  1.00  0.00    -0.084 Cl
HETATM   27  C   UNL     1      39.731 -12.906  -2.521  1.00  0.00     0.024 A 
HETATM   28  C   UNL     1      40.497 -12.034  -1.753  1.00  0.00     0.002 A 
HETATM   29  C   UNL     1      40.952 -12.426  -0.491  1.00  0.00     0.009 A 
ENDBRANCH  16  23
ENDBRANCH   1  16
TORSDOF 6
ENDMDL
