MODEL 1
REMARK VINA RESULT:      -8.5      0.000      0.000
REMARK  5 active torsions:
REMARK  status: ('A' for Active; 'I' for Inactive)
REMARK    1  A    between atoms: C_2  and  C_3 
REMARK    2  A    between atoms: C_2  and  C_18 
REMARK       I    between atoms: C_3  and  N_4 
REMARK    3  A    between atoms: N_4  and  C_5 
REMARK    4  A    between atoms: C_7  and  C_8 
REMARK    5  A    between atoms: C_18  and  C_19 
ROOT
HETATM    1  C   UNL     1      41.262 -15.084   3.790  1.00  0.00     0.226 C 
HETATM    2  N   UNL     1      41.767 -14.976   2.500  1.00  0.00    -0.327 N 
HETATM    3  O   UNL     1      40.388 -14.366   4.262  1.00  0.00    -0.273 OA
HETATM    4  H   UNL     1      42.638 -15.455   2.310  1.00  0.00     0.169 HD
ENDROOT
BRANCH   2   5
HETATM    5  C   UNL     1      41.261 -14.178   1.452  1.00  0.00     0.035 A 
HETATM    6  C   UNL     1      40.527 -14.690   0.375  1.00  0.00     0.042 A 
HETATM    7  C   UNL     1      40.075 -13.857  -0.665  1.00  0.00    -0.021 A 
HETATM    8  C   UNL     1      40.367 -12.487  -0.593  1.00  0.00     0.012 A 
HETATM    9  C   UNL     1      41.102 -11.968   0.474  1.00  0.00     0.003 A 
HETATM   10  C   UNL     1      41.557 -12.813   1.486  1.00  0.00     0.029 A 
BRANCH   7  11
HETATM   11  C   UNL     1      39.341 -14.392  -1.808  1.00  0.00     0.010 A 
HETATM   12  C   UNL     1      38.960 -13.788  -3.033  1.00  0.00     0.152 A 
HETATM   13  N   UNL     1      38.298 -14.617  -3.845  1.00  0.00    -0.187 NA
HETATM   14  N   UNL     1      38.250 -15.761  -3.146  1.00  0.00    -0.289 N 
HETATM   15  H   UNL     1      37.789 -16.562  -3.564  1.00  0.00     0.188 HD
HETATM   16  C   UNL     1      38.856 -15.679  -1.926  1.00  0.00     0.123 A 
ENDBRANCH   7  11
ENDBRANCH   2   5
BRANCH   1  17
HETATM   17  C   UNL     1      41.970 -16.175   4.604  1.00  0.00     0.078 C 
HETATM   18  C   UNL     1      42.069 -15.783   6.079  1.00  0.00     0.020 C 
BRANCH  17  19
HETATM   19  C   UNL     1      43.323 -16.608   3.998  1.00  0.00     0.052 C 
BRANCH  19  20
HETATM   20  C   UNL     1      43.504 -18.071   3.660  1.00  0.00    -0.057 A 
HETATM   21  C   UNL     1      43.993 -18.972   4.617  1.00  0.00     0.007 A 
HETATM   22  C   UNL     1      44.147 -20.326   4.307  1.00  0.00     0.001 A 
HETATM   23  C   UNL     1      43.806 -20.796   3.041  1.00  0.00     0.000 A 
HETATM   24  C   UNL     1      43.310 -19.914   2.085  1.00  0.00     0.001 A 
HETATM   25  C   UNL     1      43.158 -18.560   2.393  1.00  0.00     0.007 A 
ENDBRANCH  19  20
ENDBRANCH  17  19
ENDBRANCH   1  17
TORSDOF 5
ENDMDL
MODEL 2
REMARK VINA RESULT:      -8.4      4.426      7.979
REMARK  5 active torsions:
REMARK  status: ('A' for Active; 'I' for Inactive)
REMARK    1  A    between atoms: C_2  and  C_3 
REMARK    2  A    between atoms: C_2  and  C_18 
REMARK       I    between atoms: C_3  and  N_4 
REMARK    3  A    between atoms: N_4  and  C_5 
REMARK    4  A    between atoms: C_7  and  C_8 
REMARK    5  A    between atoms: C_18  and  C_19 
ROOT
HETATM    1  C   UNL     1      42.192 -13.540   5.320  1.00  0.00     0.226 C 
HETATM    2  N   UNL     1      43.254 -14.082   4.607  1.00  0.00    -0.327 N 
HETATM    3  O   UNL     1      41.025 -13.903   5.223  1.00  0.00    -0.273 OA
HETATM    4  H   UNL     1      44.112 -13.546   4.590  1.00  0.00     0.169 HD
ENDROOT
BRANCH   2   5
HETATM    5  C   UNL     1      43.236 -15.243   3.804  1.00  0.00     0.035 A 
HETATM    6  C   UNL     1      43.470 -16.530   4.301  1.00  0.00     0.042 A 
HETATM    7  C   UNL     1      43.478 -17.653   3.452  1.00  0.00    -0.021 A 
HETATM    8  C   UNL     1      43.230 -17.454   2.086  1.00  0.00     0.012 A 
HETATM    9  C   UNL     1      43.001 -16.174   1.581  1.00  0.00     0.003 A 
HETATM   10  C   UNL     1      43.015 -15.071   2.435  1.00  0.00     0.029 A 
BRANCH   7  11
HETATM   11  C   UNL     1      43.757 -18.992   3.960  1.00  0.00     0.010 A 
HETATM   12  C   UNL     1      44.042 -19.448   5.273  1.00  0.00     0.152 A 
HETATM   13  N   UNL     1      44.232 -20.768   5.341  1.00  0.00    -0.187 NA
HETATM   14  N   UNL     1      44.070 -21.171   4.072  1.00  0.00    -0.289 N 
HETATM   15  H   UNL     1      44.164 -22.159   3.864  1.00  0.00     0.188 HD
HETATM   16  C   UNL     1      43.787 -20.151   3.210  1.00  0.00     0.123 A 
ENDBRANCH   7  11
ENDBRANCH   2   5
BRANCH   1  17
HETATM   17  C   UNL     1      42.626 -12.370   6.213  1.00  0.00     0.078 C 
HETATM   18  C   UNL     1      42.484 -11.036   5.478  1.00  0.00     0.020 C 
BRANCH  17  19
HETATM   19  C   UNL     1      44.020 -12.570   6.845  1.00  0.00     0.052 C 
BRANCH  19  20
HETATM   20  C   UNL     1      44.631 -11.397   7.581  1.00  0.00    -0.057 A 
HETATM   21  C   UNL     1      44.040 -10.899   8.750  1.00  0.00     0.007 A 
HETATM   22  C   UNL     1      44.612  -9.824   9.436  1.00  0.00     0.001 A 
HETATM   23  C   UNL     1      45.787  -9.241   8.965  1.00  0.00     0.000 A 
HETATM   24  C   UNL     1      46.389  -9.733   7.810  1.00  0.00     0.001 A 
HETATM   25  C   UNL     1      45.815 -10.805   7.123  1.00  0.00     0.007 A 
ENDBRANCH  19  20
ENDBRANCH  17  19
ENDBRANCH   1  17
TORSDOF 5
ENDMDL
MODEL 3
REMARK VINA RESULT:      -8.2      1.605      1.952
REMARK  5 active torsions:
REMARK  status: ('A' for Active; 'I' for Inactive)
REMARK    1  A    between atoms: C_2  and  C_3 
REMARK    2  A    between atoms: C_2  and  C_18 
REMARK       I    between atoms: C_3  and  N_4 
REMARK    3  A    between atoms: N_4  and  C_5 
REMARK    4  A    between atoms: C_7  and  C_8 
REMARK    5  A    between atoms: C_18  and  C_19 
ROOT
HETATM    1  C   UNL     1      42.018 -15.165   4.066  1.00  0.00     0.226 C 
HETATM    2  N   UNL     1      40.839 -15.236   3.335  1.00  0.00    -0.327 N 
HETATM    3  O   UNL     1      42.862 -14.283   3.950  1.00  0.00    -0.273 OA
HETATM    4  H   UNL     1      40.350 -16.122   3.344  1.00  0.00     0.169 HD
ENDROOT
BRANCH   2   5
HETATM    5  C   UNL     1      40.302 -14.245   2.485  1.00  0.00     0.035 A 
HETATM    6  C   UNL     1      40.592 -14.158   1.119  1.00  0.00     0.042 A 
HETATM    7  C   UNL     1      40.060 -13.129   0.320  1.00  0.00    -0.021 A 
HETATM    8  C   UNL     1      39.212 -12.190   0.926  1.00  0.00     0.012 A 
HETATM    9  C   UNL     1      38.921 -12.266   2.289  1.00  0.00     0.003 A 
HETATM   10  C   UNL     1      39.473 -13.283   3.067  1.00  0.00     0.029 A 
BRANCH   7  11
HETATM   11  C   UNL     1      40.389 -13.013  -1.097  1.00  0.00     0.010 A 
HETATM   12  C   UNL     1      40.122 -13.881  -2.187  1.00  0.00     0.152 A 
HETATM   13  N   UNL     1      40.579 -13.416  -3.353  1.00  0.00    -0.187 NA
HETATM   14  N   UNL     1      41.143 -12.246  -3.020  1.00  0.00    -0.289 N 
HETATM   15  H   UNL     1      41.568 -11.689  -3.754  1.00  0.00     0.188 HD
HETATM   16  C   UNL     1      41.058 -11.960  -1.688  1.00  0.00     0.123 A 
ENDBRANCH   7  11
ENDBRANCH   2   5
BRANCH   1  17
HETATM   17  C   UNL     1      42.193 -16.363   5.008  1.00  0.00     0.078 C 
HETATM   18  C   UNL     1      41.763 -16.009   6.433  1.00  0.00     0.020 C 
BRANCH  17  19
HETATM   19  C   UNL     1      43.601 -16.994   4.937  1.00  0.00     0.052 C 
BRANCH  19  20
HETATM   20  C   UNL     1      43.717 -18.382   4.349  1.00  0.00    -0.057 A 
HETATM   21  C   UNL     1      43.955 -19.492   5.172  1.00  0.00     0.007 A 
HETATM   22  C   UNL     1      44.049 -20.775   4.628  1.00  0.00     0.001 A 
HETATM   23  C   UNL     1      43.899 -20.965   3.256  1.00  0.00     0.000 A 
HETATM   24  C   UNL     1      43.654 -19.873   2.429  1.00  0.00     0.001 A 
HETATM   25  C   UNL     1      43.562 -18.590   2.972  1.00  0.00     0.007 A 
ENDBRANCH  19  20
ENDBRANCH  17  19
ENDBRANCH   1  17
TORSDOF 5
ENDMDL
MODEL 4
REMARK VINA RESULT:      -7.9      2.466      7.640
REMARK  5 active torsions:
REMARK  status: ('A' for Active; 'I' for Inactive)
REMARK    1  A    between atoms: C_2  and  C_3 
REMARK    2  A    between atoms: C_2  and  C_18 
REMARK       I    between atoms: C_3  and  N_4 
REMARK    3  A    between atoms: N_4  and  C_5 
REMARK    4  A    between atoms: C_7  and  C_8 
REMARK    5  A    between atoms: C_18  and  C_19 
ROOT
HETATM    1  C   UNL     1      41.230 -14.380   1.974  1.00  0.00     0.226 C 
HETATM    2  N   UNL     1      42.541 -14.544   2.403  1.00  0.00    -0.327 N 
HETATM    3  O   UNL     1      40.314 -15.160   2.208  1.00  0.00    -0.273 OA
HETATM    4  H   UNL     1      43.244 -13.974   1.950  1.00  0.00     0.169 HD
ENDROOT
BRANCH   2   5
HETATM    5  C   UNL     1      43.023 -15.501   3.323  1.00  0.00     0.035 A 
HETATM    6  C   UNL     1      43.209 -16.851   3.007  1.00  0.00     0.042 A 
HETATM    7  C   UNL     1      43.658 -17.774   3.970  1.00  0.00    -0.021 A 
HETATM    8  C   UNL     1      43.931 -17.304   5.263  1.00  0.00     0.012 A 
HETATM    9  C   UNL     1      43.744 -15.960   5.589  1.00  0.00     0.003 A 
HETATM   10  C   UNL     1      43.281 -15.065   4.625  1.00  0.00     0.029 A 
BRANCH   7  11
HETATM   11  C   UNL     1      43.819 -19.190   3.655  1.00  0.00     0.010 A 
HETATM   12  C   UNL     1      43.756 -19.879   2.417  1.00  0.00     0.152 A 
HETATM   13  N   UNL     1      43.971 -21.193   2.536  1.00  0.00    -0.187 NA
HETATM   14  N   UNL     1      44.175 -21.356   3.851  1.00  0.00    -0.289 N 
HETATM   15  H   UNL     1      44.367 -22.290   4.197  1.00  0.00     0.188 HD
HETATM   16  C   UNL     1      44.093 -20.194   4.562  1.00  0.00     0.123 A 
ENDBRANCH   7  11
ENDBRANCH   2   5
BRANCH   1  17
HETATM   17  C   UNL     1      41.055 -13.130   1.102  1.00  0.00     0.078 C 
HETATM   18  C   UNL     1      41.785 -11.930   1.708  1.00  0.00     0.020 C 
BRANCH  17  19
HETATM   19  C   UNL     1      39.580 -12.831   0.754  1.00  0.00     0.052 C 
BRANCH  19  20
HETATM   20  C   UNL     1      39.081 -13.260  -0.608  1.00  0.00    -0.057 A 
HETATM   21  C   UNL     1      38.231 -12.430  -1.354  1.00  0.00     0.007 A 
HETATM   22  C   UNL     1      37.782 -12.822  -2.617  1.00  0.00     0.001 A 
HETATM   23  C   UNL     1      38.183 -14.044  -3.153  1.00  0.00     0.000 A 
HETATM   24  C   UNL     1      39.034 -14.873  -2.428  1.00  0.00     0.001 A 
HETATM   25  C   UNL     1      39.482 -14.482  -1.164  1.00  0.00     0.007 A 
ENDBRANCH  19  20
ENDBRANCH  17  19
ENDBRANCH   1  17
TORSDOF 5
ENDMDL
MODEL 5
REMARK VINA RESULT:      -7.9      4.381      7.325
REMARK  5 active torsions:
REMARK  status: ('A' for Active; 'I' for Inactive)
REMARK    1  A    between atoms: C_2  and  C_3 
REMARK    2  A    between atoms: C_2  and  C_18 
REMARK       I    between atoms: C_3  and  N_4 
REMARK    3  A    between atoms: N_4  and  C_5 
REMARK    4  A    between atoms: C_7  and  C_8 
REMARK    5  A    between atoms: C_18  and  C_19 
ROOT
HETATM    1  C   UNL     1      41.953 -14.233   3.787  1.00  0.00     0.226 C 
HETATM    2  N   UNL     1      41.942 -13.934   5.144  1.00  0.00    -0.327 N 
HETATM    3  O   UNL     1      41.905 -13.402   2.887  1.00  0.00    -0.273 OA
HETATM    4  H   UNL     1      41.742 -14.697   5.777  1.00  0.00     0.169 HD
ENDROOT
BRANCH   2   5
HETATM    5  C   UNL     1      42.066 -12.658   5.736  1.00  0.00     0.035 A 
HETATM    6  C   UNL     1      43.287 -12.115   6.153  1.00  0.00     0.042 A 
HETATM    7  C   UNL     1      43.353 -10.853   6.772  1.00  0.00    -0.021 A 
HETATM    8  C   UNL     1      42.160 -10.138   6.951  1.00  0.00     0.012 A 
HETATM    9  C   UNL     1      40.938 -10.673   6.543  1.00  0.00     0.003 A 
HETATM   10  C   UNL     1      40.890 -11.934   5.948  1.00  0.00     0.029 A 
BRANCH   7  11
HETATM   11  C   UNL     1      44.619 -10.298   7.241  1.00  0.00     0.010 A 
HETATM   12  C   UNL     1      44.894  -9.166   8.051  1.00  0.00     0.152 A 
HETATM   13  N   UNL     1      46.199  -8.986   8.276  1.00  0.00    -0.187 NA
HETATM   14  N   UNL     1      46.771 -10.001   7.612  1.00  0.00    -0.289 N 
HETATM   15  H   UNL     1      47.782 -10.084   7.636  1.00  0.00     0.188 HD
HETATM   16  C   UNL     1      45.873 -10.811   6.978  1.00  0.00     0.123 A 
ENDBRANCH   7  11
ENDBRANCH   2   5
BRANCH   1  17
HETATM   17  C   UNL     1      41.964 -15.744   3.523  1.00  0.00     0.078 C 
HETATM   18  C   UNL     1      40.957 -16.467   4.420  1.00  0.00     0.020 C 
BRANCH  17  19
HETATM   19  C   UNL     1      43.378 -16.362   3.577  1.00  0.00     0.052 C 
BRANCH  19  20
HETATM   20  C   UNL     1      43.492 -17.865   3.447  1.00  0.00    -0.057 A 
HETATM   21  C   UNL     1      43.101 -18.514   2.267  1.00  0.00     0.007 A 
HETATM   22  C   UNL     1      43.219 -19.900   2.144  1.00  0.00     0.001 A 
HETATM   23  C   UNL     1      43.737 -20.653   3.195  1.00  0.00     0.000 A 
HETATM   24  C   UNL     1      44.137 -20.021   4.369  1.00  0.00     0.001 A 
HETATM   25  C   UNL     1      44.017 -18.635   4.493  1.00  0.00     0.007 A 
ENDBRANCH  19  20
ENDBRANCH  17  19
ENDBRANCH   1  17
TORSDOF 5
ENDMDL
MODEL 6
REMARK VINA RESULT:      -7.9      2.450      3.381
REMARK  5 active torsions:
REMARK  status: ('A' for Active; 'I' for Inactive)
REMARK    1  A    between atoms: C_2  and  C_3 
REMARK    2  A    between atoms: C_2  and  C_18 
REMARK       I    between atoms: C_3  and  N_4 
REMARK    3  A    between atoms: N_4  and  C_5 
REMARK    4  A    between atoms: C_7  and  C_8 
REMARK    5  A    between atoms: C_18  and  C_19 
ROOT
HETATM    1  C   UNL     1      41.570 -15.443   4.617  1.00  0.00     0.226 C 
HETATM    2  N   UNL     1      41.966 -15.535   3.289  1.00  0.00    -0.327 N 
HETATM    3  O   UNL     1      40.776 -14.618   5.056  1.00  0.00    -0.273 OA
HETATM    4  H   UNL     1      42.794 -16.085   3.097  1.00  0.00     0.169 HD
ENDROOT
BRANCH   2   5
HETATM    5  C   UNL     1      41.410 -14.854   2.185  1.00  0.00     0.035 A 
HETATM    6  C   UNL     1      41.682 -13.514   1.886  1.00  0.00     0.042 A 
HETATM    7  C   UNL     1      41.074 -12.868   0.794  1.00  0.00    -0.021 A 
HETATM    8  C   UNL     1      40.190 -13.608  -0.006  1.00  0.00     0.012 A 
HETATM    9  C   UNL     1      39.908 -14.943   0.288  1.00  0.00     0.003 A 
HETATM   10  C   UNL     1      40.507 -15.559   1.385  1.00  0.00     0.029 A 
BRANCH   7  11
HETATM   11  C   UNL     1      41.327 -11.461   0.499  1.00  0.00     0.010 A 
HETATM   12  C   UNL     1      41.367 -10.763  -0.734  1.00  0.00     0.152 A 
HETATM   13  N   UNL     1      41.622  -9.459  -0.591  1.00  0.00    -0.187 NA
HETATM   14  N   UNL     1      41.747  -9.311   0.736  1.00  0.00    -0.289 N 
HETATM   15  H   UNL     1      41.945  -8.386   1.102  1.00  0.00     0.188 HD
HETATM   16  C   UNL     1      41.582 -10.474   1.430  1.00  0.00     0.123 A 
ENDBRANCH   7  11
ENDBRANCH   2   5
BRANCH   1  17
HETATM   17  C   UNL     1      42.293 -16.457   5.513  1.00  0.00     0.078 C 
HETATM   18  C   UNL     1      42.403 -15.942   6.950  1.00  0.00     0.020 C 
BRANCH  17  19
HETATM   19  C   UNL     1      43.643 -16.931   4.933  1.00  0.00     0.052 C 
BRANCH  19  20
HETATM   20  C   UNL     1      43.727 -18.352   4.423  1.00  0.00    -0.057 A 
HETATM   21  C   UNL     1      43.642 -18.628   3.051  1.00  0.00     0.007 A 
HETATM   22  C   UNL     1      43.733 -19.940   2.581  1.00  0.00     0.001 A 
HETATM   23  C   UNL     1      43.918 -20.991   3.476  1.00  0.00     0.000 A 
HETATM   24  C   UNL     1      44.014 -20.731   4.840  1.00  0.00     0.001 A 
HETATM   25  C   UNL     1      43.921 -19.420   5.310  1.00  0.00     0.007 A 
ENDBRANCH  19  20
ENDBRANCH  17  19
ENDBRANCH   1  17
TORSDOF 5
ENDMDL
MODEL 7
REMARK VINA RESULT:      -7.7      2.773      3.712
REMARK  5 active torsions:
REMARK  status: ('A' for Active; 'I' for Inactive)
REMARK    1  A    between atoms: C_2  and  C_3 
REMARK    2  A    between atoms: C_2  and  C_18 
REMARK       I    between atoms: C_3  and  N_4 
REMARK    3  A    between atoms: N_4  and  C_5 
REMARK    4  A    between atoms: C_7  and  C_8 
REMARK    5  A    between atoms: C_18  and  C_19 
ROOT
HETATM    1  C   UNL     1      41.069 -15.360   1.634  1.00  0.00     0.226 C 
HETATM    2  N   UNL     1      41.176 -14.419   0.618  1.00  0.00    -0.327 N 
HETATM    3  O   UNL     1      40.013 -15.743   2.126  1.00  0.00    -0.273 OA
HETATM    4  H   UNL     1      42.090 -14.011   0.468  1.00  0.00     0.169 HD
ENDROOT
BRANCH   2   5
HETATM    5  C   UNL     1      40.127 -13.880  -0.158  1.00  0.00     0.035 A 
HETATM    6  C   UNL     1      39.445 -12.704   0.173  1.00  0.00     0.042 A 
HETATM    7  C   UNL     1      38.381 -12.227  -0.614  1.00  0.00    -0.021 A 
HETATM    8  C   UNL     1      38.023 -12.956  -1.758  1.00  0.00     0.012 A 
HETATM    9  C   UNL     1      38.694 -14.133  -2.094  1.00  0.00     0.003 A 
HETATM   10  C   UNL     1      39.734 -14.598  -1.291  1.00  0.00     0.029 A 
BRANCH   7  11
HETATM   11  C   UNL     1      37.643 -11.021  -0.252  1.00  0.00     0.010 A 
HETATM   12  C   UNL     1      36.942 -10.681   0.933  1.00  0.00     0.152 A 
HETATM   13  N   UNL     1      36.398  -9.461   0.890  1.00  0.00    -0.187 NA
HETATM   14  N   UNL     1      36.747  -9.009  -0.324  1.00  0.00    -0.289 N 
HETATM   15  H   UNL     1      36.446  -8.079  -0.597  1.00  0.00     0.188 HD
HETATM   16  C   UNL     1      37.488  -9.900  -1.044  1.00  0.00     0.123 A 
ENDBRANCH   7  11
ENDBRANCH   2   5
BRANCH   1  17
HETATM   17  C   UNL     1      42.439 -15.833   2.137  1.00  0.00     0.078 C 
HETATM   18  C   UNL     1      43.518 -14.783   1.864  1.00  0.00     0.020 C 
BRANCH  17  19
HETATM   19  C   UNL     1      42.821 -17.242   1.633  1.00  0.00     0.052 C 
BRANCH  19  20
HETATM   20  C   UNL     1      43.285 -18.251   2.659  1.00  0.00    -0.057 A 
HETATM   21  C   UNL     1      43.345 -19.617   2.344  1.00  0.00     0.007 A 
HETATM   22  C   UNL     1      43.787 -20.546   3.289  1.00  0.00     0.001 A 
HETATM   23  C   UNL     1      44.183 -20.122   4.555  1.00  0.00     0.000 A 
HETATM   24  C   UNL     1      44.137 -18.768   4.877  1.00  0.00     0.001 A 
HETATM   25  C   UNL     1      43.693 -17.838   3.934  1.00  0.00     0.007 A 
ENDBRANCH  19  20
ENDBRANCH  17  19
ENDBRANCH   1  17
TORSDOF 5
ENDMDL
MODEL 8
REMARK VINA RESULT:      -7.7      2.730      3.852
REMARK  5 active torsions:
REMARK  status: ('A' for Active; 'I' for Inactive)
REMARK    1  A    between atoms: C_2  and  C_3 
REMARK    2  A    between atoms: C_2  and  C_18 
REMARK       I    between atoms: C_3  and  N_4 
REMARK    3  A    between atoms: N_4  and  C_5 
REMARK    4  A    between atoms: C_7  and  C_8 
REMARK    5  A    between atoms: C_18  and  C_19 
ROOT
HETATM    1  C   UNL     1      40.333 -14.736   1.360  1.00  0.00     0.226 C 
HETATM    2  N   UNL     1      40.681 -14.770   0.016  1.00  0.00    -0.327 N 
HETATM    3  O   UNL     1      39.707 -13.830   1.899  1.00  0.00    -0.273 OA
HETATM    4  H   UNL     1      41.393 -15.437  -0.253  1.00  0.00     0.169 HD
ENDROOT
BRANCH   2   5
HETATM    5  C   UNL     1      40.236 -13.899  -1.002  1.00  0.00     0.035 A 
HETATM    6  C   UNL     1      40.787 -12.634  -1.233  1.00  0.00     0.042 A 
HETATM    7  C   UNL     1      40.283 -11.788  -2.238  1.00  0.00    -0.021 A 
HETATM    8  C   UNL     1      39.215 -12.249  -3.020  1.00  0.00     0.012 A 
HETATM    9  C   UNL     1      38.655 -13.508  -2.794  1.00  0.00     0.003 A 
HETATM   10  C   UNL     1      39.157 -14.324  -1.781  1.00  0.00     0.029 A 
BRANCH   7  11
HETATM   11  C   UNL     1      40.832 -10.453  -2.459  1.00  0.00     0.010 A 
HETATM   12  C   UNL     1      41.648  -9.636  -1.636  1.00  0.00     0.152 A 
HETATM   13  N   UNL     1      41.959  -8.466  -2.200  1.00  0.00    -0.187 NA
HETATM   14  N   UNL     1      41.345  -8.524  -3.391  1.00  0.00    -0.289 N 
HETATM   15  H   UNL     1      41.438  -7.733  -4.020  1.00  0.00     0.188 HD
HETATM   16  C   UNL     1      40.660  -9.686  -3.594  1.00  0.00     0.123 A 
ENDBRANCH   7  11
ENDBRANCH   2   5
BRANCH   1  17
HETATM   17  C   UNL     1      40.879 -15.943   2.135  1.00  0.00     0.078 C 
HETATM   18  C   UNL     1      40.383 -15.937   3.583  1.00  0.00     0.020 C 
BRANCH  17  19
HETATM   19  C   UNL     1      42.410 -16.101   2.019  1.00  0.00     0.052 C 
BRANCH  19  20
HETATM   20  C   UNL     1      43.055 -17.248   2.764  1.00  0.00    -0.057 A 
HETATM   21  C   UNL     1      43.072 -18.539   2.216  1.00  0.00     0.007 A 
HETATM   22  C   UNL     1      43.680 -19.595   2.899  1.00  0.00     0.001 A 
HETATM   23  C   UNL     1      44.285 -19.372   4.134  1.00  0.00     0.000 A 
HETATM   24  C   UNL     1      44.283 -18.094   4.685  1.00  0.00     0.001 A 
HETATM   25  C   UNL     1      43.673 -17.038   4.003  1.00  0.00     0.007 A 
ENDBRANCH  19  20
ENDBRANCH  17  19
ENDBRANCH   1  17
TORSDOF 5
ENDMDL
MODEL 9
REMARK VINA RESULT:      -7.6      5.656      9.078
REMARK  5 active torsions:
REMARK  status: ('A' for Active; 'I' for Inactive)
REMARK    1  A    between atoms: C_2  and  C_3 
REMARK    2  A    between atoms: C_2  and  C_18 
REMARK       I    between atoms: C_3  and  N_4 
REMARK    3  A    between atoms: N_4  and  C_5 
REMARK    4  A    between atoms: C_7  and  C_8 
REMARK    5  A    between atoms: C_18  and  C_19 
ROOT
HETATM    1  C   UNL     1      43.227 -12.437   5.287  1.00  0.00     0.226 C 
HETATM    2  N   UNL     1      44.342 -12.497   6.112  1.00  0.00    -0.327 N 
HETATM    3  O   UNL     1      42.287 -11.664   5.433  1.00  0.00    -0.273 OA
HETATM    4  H   UNL     1      44.922 -13.323   6.037  1.00  0.00     0.169 HD
ENDROOT
BRANCH   2   5
HETATM    5  C   UNL     1      44.698 -11.585   7.130  1.00  0.00     0.035 A 
HETATM    6  C   UNL     1      43.942 -11.389   8.292  1.00  0.00     0.042 A 
HETATM    7  C   UNL     1      44.321 -10.441   9.261  1.00  0.00    -0.021 A 
HETATM    8  C   UNL     1      45.491  -9.700   9.042  1.00  0.00     0.012 A 
HETATM    9  C   UNL     1      46.249  -9.885   7.885  1.00  0.00     0.003 A 
HETATM   10  C   UNL     1      45.847 -10.816   6.928  1.00  0.00     0.029 A 
BRANCH   7  11
HETATM   11  C   UNL     1      43.516 -10.208  10.456  1.00  0.00     0.010 A 
HETATM   12  C   UNL     1      43.579 -10.791  11.747  1.00  0.00     0.152 A 
HETATM   13  N   UNL     1      42.667 -10.300  12.591  1.00  0.00    -0.187 NA
HETATM   14  N   UNL     1      42.012  -9.397  11.847  1.00  0.00    -0.289 N 
HETATM   15  H   UNL     1      41.256  -8.875  12.277  1.00  0.00     0.188 HD
HETATM   16  C   UNL     1      42.479  -9.304  10.568  1.00  0.00     0.123 A 
ENDBRANCH   7  11
ENDBRANCH   2   5
BRANCH   1  17
HETATM   17  C   UNL     1      43.258 -13.506   4.186  1.00  0.00     0.078 C 
HETATM   18  C   UNL     1      42.939 -12.897   2.820  1.00  0.00     0.020 C 
BRANCH  17  19
HETATM   19  C   UNL     1      42.399 -14.746   4.515  1.00  0.00     0.052 C 
BRANCH  19  20
HETATM   20  C   UNL     1      42.905 -16.093   4.050  1.00  0.00    -0.057 A 
HETATM   21  C   UNL     1      42.531 -16.607   2.800  1.00  0.00     0.007 A 
HETATM   22  C   UNL     1      43.011 -17.845   2.367  1.00  0.00     0.001 A 
HETATM   23  C   UNL     1      43.876 -18.581   3.173  1.00  0.00     0.000 A 
HETATM   24  C   UNL     1      44.263 -18.078   4.412  1.00  0.00     0.001 A 
HETATM   25  C   UNL     1      43.782 -16.841   4.847  1.00  0.00     0.007 A 
ENDBRANCH  19  20
ENDBRANCH  17  19
ENDBRANCH   1  17
TORSDOF 5
ENDMDL
MODEL 10
REMARK VINA RESULT:      -7.3      1.807      2.421
REMARK  5 active torsions:
REMARK  status: ('A' for Active; 'I' for Inactive)
REMARK    1  A    between atoms: C_2  and  C_3 
REMARK    2  A    between atoms: C_2  and  C_18 
REMARK       I    between atoms: C_3  and  N_4 
REMARK    3  A    between atoms: N_4  and  C_5 
REMARK    4  A    between atoms: C_7  and  C_8 
REMARK    5  A    between atoms: C_18  and  C_19 
ROOT
HETATM    1  C   UNL     1      41.496 -13.529   4.235  1.00  0.00     0.226 C 
HETATM    2  N   UNL     1      40.297 -13.845   3.609  1.00  0.00    -0.327 N 
HETATM    3  O   UNL     1      42.271 -12.655   3.863  1.00  0.00    -0.273 OA
HETATM    4  H   UNL     1      39.872 -14.730   3.859  1.00  0.00     0.169 HD
ENDROOT
BRANCH   2   5
HETATM    5  C   UNL     1      39.658 -13.125   2.577  1.00  0.00     0.035 A 
HETATM    6  C   UNL     1      39.726 -13.485   1.226  1.00  0.00     0.042 A 
HETATM    7  C   UNL     1      39.101 -12.712   0.230  1.00  0.00    -0.021 A 
HETATM    8  C   UNL     1      38.390 -11.569   0.624  1.00  0.00     0.012 A 
HETATM    9  C   UNL     1      38.322 -11.199   1.968  1.00  0.00     0.003 A 
HETATM   10  C   UNL     1      38.963 -11.968   2.939  1.00  0.00     0.029 A 
BRANCH   7  11
HETATM   11  C   UNL     1      39.199 -13.064  -1.183  1.00  0.00     0.010 A 
HETATM   12  C   UNL     1      40.269 -13.619  -1.930  1.00  0.00     0.152 A 
HETATM   13  N   UNL     1      39.967 -13.812  -3.218  1.00  0.00    -0.187 NA
HETATM   14  N   UNL     1      38.700 -13.381  -3.306  1.00  0.00    -0.289 N 
HETATM   15  H   UNL     1      38.236 -13.429  -4.207  1.00  0.00     0.188 HD
HETATM   16  C   UNL     1      38.197 -12.925  -2.122  1.00  0.00     0.123 A 
ENDBRANCH   7  11
ENDBRANCH   2   5
BRANCH   1  17
HETATM   17  C   UNL     1      41.793 -14.449   5.427  1.00  0.00     0.078 C 
HETATM   18  C   UNL     1      43.252 -14.324   5.867  1.00  0.00     0.020 C 
BRANCH  17  19
HETATM   19  C   UNL     1      41.351 -15.910   5.195  1.00  0.00     0.052 C 
BRANCH  19  20
HETATM   20  C   UNL     1      42.284 -16.809   4.415  1.00  0.00    -0.057 A 
HETATM   21  C   UNL     1      42.206 -16.883   3.017  1.00  0.00     0.007 A 
HETATM   22  C   UNL     1      43.078 -17.704   2.297  1.00  0.00     0.001 A 
HETATM   23  C   UNL     1      44.043 -18.453   2.965  1.00  0.00     0.000 A 
HETATM   24  C   UNL     1      44.138 -18.382   4.352  1.00  0.00     0.001 A 
HETATM   25  C   UNL     1      43.265 -17.564   5.072  1.00  0.00     0.007 A 
ENDBRANCH  19  20
ENDBRANCH  17  19
ENDBRANCH   1  17
TORSDOF 5
ENDMDL
