MODEL 1
REMARK VINA RESULT:      -8.4      0.000      0.000
REMARK  5 active torsions:
REMARK  status: ('A' for Active; 'I' for Inactive)
REMARK    1  A    between atoms: C_5  and  C_6 
REMARK    2  A    between atoms: C_6  and  C_7 
REMARK    3  A    between atoms: C_7  and  C_8 
REMARK       I    between atoms: C_8  and  N_9 
REMARK    4  A    between atoms: N_9  and  C_10 
REMARK    5  A    between atoms: C_12  and  C_13 
ROOT
HETATM    1  C   UNL     1      43.165 -12.810   5.198  1.00  0.00     0.222 C 
HETATM    2  N   UNL     1      43.957 -12.966   6.319  1.00  0.00    -0.327 N 
HETATM    3  O   UNL     1      42.753 -11.743   4.749  1.00  0.00    -0.273 OA
HETATM    4  H   UNL     1      44.100 -13.907   6.658  1.00  0.00     0.169 HD
ENDROOT
BRANCH   2   5
HETATM    5  C   UNL     1      44.541 -11.949   7.106  1.00  0.00     0.035 A 
HETATM    6  C   UNL     1      43.968 -11.440   8.276  1.00  0.00     0.042 A 
HETATM    7  C   UNL     1      44.582 -10.400   8.995  1.00  0.00    -0.021 A 
HETATM    8  C   UNL     1      45.794  -9.879   8.522  1.00  0.00     0.012 A 
HETATM    9  C   UNL     1      46.373 -10.378   7.355  1.00  0.00     0.003 A 
HETATM   10  C   UNL     1      45.745 -11.403   6.648  1.00  0.00     0.029 A 
BRANCH   7  11
HETATM   11  C   UNL     1      43.972  -9.847  10.197  1.00  0.00     0.010 A 
HETATM   12  C   UNL     1      43.551  -8.528  10.501  1.00  0.00     0.152 A 
HETATM   13  N   UNL     1      43.030  -8.416  11.727  1.00  0.00    -0.187 NA
HETATM   14  N   UNL     1      43.114  -9.663  12.215  1.00  0.00    -0.289 N 
HETATM   15  H   UNL     1      42.772  -9.837  13.154  1.00  0.00     0.188 HD
HETATM   16  C   UNL     1      43.671 -10.553  11.343  1.00  0.00     0.123 A 
ENDBRANCH   7  11
ENDBRANCH   2   5
BRANCH   1  17
HETATM   17  C   UNL     1      42.877 -14.102   4.447  1.00  0.00     0.108 C 
BRANCH  17  18
HETATM   18  C   UNL     1      43.216 -15.407   5.166  1.00  0.00     0.047 C 
BRANCH  18  19
HETATM   19  C   UNL     1      43.393 -16.662   4.344  1.00  0.00    -0.058 A 
HETATM   20  C   UNL     1      44.165 -17.756   4.751  1.00  0.00     0.007 A 
HETATM   21  C   UNL     1      44.246 -18.908   3.960  1.00  0.00     0.007 A 
HETATM   22  C   UNL     1      43.547 -18.997   2.752  1.00  0.00    -0.062 A 
HETATM   23  C   UNL     1      43.619 -20.230   1.904  1.00  0.00     0.048 C 
HETATM   24  C   UNL     1      42.773 -17.909   2.340  1.00  0.00     0.007 A 
HETATM   25  C   UNL     1      42.694 -16.758   3.128  1.00  0.00     0.007 A 
ENDBRANCH  18  19
ENDBRANCH  17  18
ENDBRANCH   1  17
TORSDOF 5
ENDMDL
MODEL 2
REMARK VINA RESULT:      -8.3      2.365      3.982
REMARK  5 active torsions:
REMARK  status: ('A' for Active; 'I' for Inactive)
REMARK    1  A    between atoms: C_5  and  C_6 
REMARK    2  A    between atoms: C_6  and  C_7 
REMARK    3  A    between atoms: C_7  and  C_8 
REMARK       I    between atoms: C_8  and  N_9 
REMARK    4  A    between atoms: N_9  and  C_10 
REMARK    5  A    between atoms: C_12  and  C_13 
ROOT
HETATM    1  C   UNL     1      41.504 -14.517   2.458  1.00  0.00     0.222 C 
HETATM    2  N   UNL     1      41.544 -14.496   3.839  1.00  0.00    -0.327 N 
HETATM    3  O   UNL     1      41.490 -13.533   1.722  1.00  0.00    -0.273 OA
HETATM    4  H   UNL     1      41.405 -15.374   4.320  1.00  0.00     0.169 HD
ENDROOT
BRANCH   2   5
HETATM    5  C   UNL     1      41.684 -13.367   4.676  1.00  0.00     0.035 A 
HETATM    6  C   UNL     1      42.893 -12.971   5.257  1.00  0.00     0.042 A 
HETATM    7  C   UNL     1      42.959 -11.857   6.113  1.00  0.00    -0.021 A 
HETATM    8  C   UNL     1      41.785 -11.136   6.371  1.00  0.00     0.012 A 
HETATM    9  C   UNL     1      40.574 -11.524   5.798  1.00  0.00     0.003 A 
HETATM   10  C   UNL     1      40.524 -12.638   4.960  1.00  0.00     0.029 A 
BRANCH   7  11
HETATM   11  C   UNL     1      44.211 -11.460   6.744  1.00  0.00     0.010 A 
HETATM   12  C   UNL     1      44.512 -11.152   8.094  1.00  0.00     0.152 A 
HETATM   13  N   UNL     1      45.794 -10.827   8.282  1.00  0.00    -0.187 NA
HETATM   14  N   UNL     1      46.323 -10.926   7.053  1.00  0.00    -0.289 N 
HETATM   15  H   UNL     1      47.310 -10.725   6.935  1.00  0.00     0.188 HD
HETATM   16  C   UNL     1      45.419 -11.297   6.100  1.00  0.00     0.123 A 
ENDBRANCH   7  11
ENDBRANCH   2   5
BRANCH   1  17
HETATM   17  C   UNL     1      41.571 -15.910   1.849  1.00  0.00     0.108 C 
BRANCH  17  18
HETATM   18  C   UNL     1      42.954 -16.548   1.735  1.00  0.00     0.047 C 
BRANCH  18  19
HETATM   19  C   UNL     1      43.286 -17.724   2.624  1.00  0.00    -0.058 A 
HETATM   20  C   UNL     1      43.286 -19.053   2.188  1.00  0.00     0.007 A 
HETATM   21  C   UNL     1      43.652 -20.089   3.056  1.00  0.00     0.007 A 
HETATM   22  C   UNL     1      44.039 -19.818   4.372  1.00  0.00    -0.062 A 
HETATM   23  C   UNL     1      44.443 -20.920   5.304  1.00  0.00     0.048 C 
HETATM   24  C   UNL     1      44.044 -18.492   4.813  1.00  0.00     0.007 A 
HETATM   25  C   UNL     1      43.675 -17.458   3.948  1.00  0.00     0.007 A 
ENDBRANCH  18  19
ENDBRANCH  17  18
ENDBRANCH   1  17
TORSDOF 5
ENDMDL
MODEL 3
REMARK VINA RESULT:      -8.2      5.497      8.906
REMARK  5 active torsions:
REMARK  status: ('A' for Active; 'I' for Inactive)
REMARK    1  A    between atoms: C_5  and  C_6 
REMARK    2  A    between atoms: C_6  and  C_7 
REMARK    3  A    between atoms: C_7  and  C_8 
REMARK       I    between atoms: C_8  and  N_9 
REMARK    4  A    between atoms: N_9  and  C_10 
REMARK    5  A    between atoms: C_12  and  C_13 
ROOT
HETATM    1  C   UNL     1      40.857 -13.855   3.774  1.00  0.00     0.222 C 
HETATM    2  N   UNL     1      41.478 -13.874   2.539  1.00  0.00    -0.327 N 
HETATM    3  O   UNL     1      39.847 -13.219   4.064  1.00  0.00    -0.273 OA
HETATM    4  H   UNL     1      42.381 -14.324   2.482  1.00  0.00     0.169 HD
ENDROOT
BRANCH   2   5
HETATM    5  C   UNL     1      41.030 -13.267   1.346  1.00  0.00     0.035 A 
HETATM    6  C   UNL     1      40.359 -13.951   0.326  1.00  0.00     0.042 A 
HETATM    7  C   UNL     1      39.972 -13.296  -0.857  1.00  0.00    -0.021 A 
HETATM    8  C   UNL     1      40.264 -11.932  -0.998  1.00  0.00     0.012 A 
HETATM    9  C   UNL     1      40.934 -11.243   0.012  1.00  0.00     0.003 A 
HETATM   10  C   UNL     1      41.321 -11.909   1.174  1.00  0.00     0.029 A 
BRANCH   7  11
HETATM   11  C   UNL     1      39.300 -14.012  -1.934  1.00  0.00     0.010 A 
HETATM   12  C   UNL     1      38.880 -13.578  -3.215  1.00  0.00     0.152 A 
HETATM   13  N   UNL     1      38.292 -14.544  -3.927  1.00  0.00    -0.187 NA
HETATM   14  N   UNL     1      38.333 -15.604  -3.105  1.00  0.00    -0.289 N 
HETATM   15  H   UNL     1      37.940 -16.481  -3.429  1.00  0.00     0.188 HD
HETATM   16  C   UNL     1      38.922 -15.338  -1.903  1.00  0.00     0.123 A 
ENDBRANCH   7  11
ENDBRANCH   2   5
BRANCH   1  17
HETATM   17  C   UNL     1      41.478 -14.790   4.803  1.00  0.00     0.108 C 
BRANCH  17  18
HETATM   18  C   UNL     1      42.902 -15.269   4.529  1.00  0.00     0.047 C 
BRANCH  18  19
HETATM   19  C   UNL     1      43.101 -16.628   3.898  1.00  0.00    -0.058 A 
HETATM   20  C   UNL     1      42.492 -17.028   2.704  1.00  0.00     0.007 A 
HETATM   21  C   UNL     1      42.761 -18.286   2.152  1.00  0.00     0.007 A 
HETATM   22  C   UNL     1      43.653 -19.164   2.773  1.00  0.00    -0.062 A 
HETATM   23  C   UNL     1      43.955 -20.509   2.183  1.00  0.00     0.048 C 
HETATM   24  C   UNL     1      44.267 -18.770   3.965  1.00  0.00     0.007 A 
HETATM   25  C   UNL     1      43.996 -17.516   4.518  1.00  0.00     0.007 A 
ENDBRANCH  18  19
ENDBRANCH  17  18
ENDBRANCH   1  17
TORSDOF 5
ENDMDL
MODEL 4
REMARK VINA RESULT:      -8.0      7.010      9.527
REMARK  5 active torsions:
REMARK  status: ('A' for Active; 'I' for Inactive)
REMARK    1  A    between atoms: C_5  and  C_6 
REMARK    2  A    between atoms: C_6  and  C_7 
REMARK    3  A    between atoms: C_7  and  C_8 
REMARK       I    between atoms: C_8  and  N_9 
REMARK    4  A    between atoms: N_9  and  C_10 
REMARK    5  A    between atoms: C_12  and  C_13 
ROOT
HETATM    1  C   UNL     1      40.839 -14.945   1.370  1.00  0.00     0.222 C 
HETATM    2  N   UNL     1      40.946 -14.232   0.191  1.00  0.00    -0.327 N 
HETATM    3  O   UNL     1      39.800 -15.386   1.854  1.00  0.00    -0.273 OA
HETATM    4  H   UNL     1      41.839 -13.805  -0.013  1.00  0.00     0.169 HD
ENDROOT
BRANCH   2   5
HETATM    5  C   UNL     1      39.923 -13.961  -0.743  1.00  0.00     0.035 A 
HETATM    6  C   UNL     1      39.155 -12.791  -0.743  1.00  0.00     0.042 A 
HETATM    7  C   UNL     1      38.124 -12.597  -1.680  1.00  0.00    -0.021 A 
HETATM    8  C   UNL     1      37.879 -13.599  -2.628  1.00  0.00     0.012 A 
HETATM    9  C   UNL     1      38.637 -14.770  -2.635  1.00  0.00     0.003 A 
HETATM   10  C   UNL     1      39.649 -14.952  -1.693  1.00  0.00     0.029 A 
BRANCH   7  11
HETATM   11  C   UNL     1      37.303 -11.394  -1.663  1.00  0.00     0.010 A 
HETATM   12  C   UNL     1      37.085 -10.434  -0.644  1.00  0.00     0.152 A 
HETATM   13  N   UNL     1      36.251  -9.457  -1.016  1.00  0.00    -0.187 NA
HETATM   14  N   UNL     1      35.930  -9.787  -2.277  1.00  0.00    -0.289 N 
HETATM   15  H   UNL     1      35.296  -9.182  -2.786  1.00  0.00     0.188 HD
HETATM   16  C   UNL     1      36.529 -10.935  -2.708  1.00  0.00     0.123 A 
ENDBRANCH   7  11
ENDBRANCH   2   5
BRANCH   1  17
HETATM   17  C   UNL     1      42.170 -15.250   2.043  1.00  0.00     0.108 C 
BRANCH  17  18
HETATM   18  C   UNL     1      42.927 -16.480   1.546  1.00  0.00     0.047 C 
BRANCH  18  19
HETATM   19  C   UNL     1      43.334 -17.536   2.548  1.00  0.00    -0.058 A 
HETATM   20  C   UNL     1      43.624 -17.264   3.889  1.00  0.00     0.007 A 
HETATM   21  C   UNL     1      43.948 -18.299   4.774  1.00  0.00     0.007 A 
HETATM   22  C   UNL     1      43.974 -19.628   4.342  1.00  0.00    -0.062 A 
HETATM   23  C   UNL     1      44.309 -20.744   5.286  1.00  0.00     0.048 C 
HETATM   24  C   UNL     1      43.683 -19.907   3.005  1.00  0.00     0.007 A 
HETATM   25  C   UNL     1      43.363 -18.874   2.120  1.00  0.00     0.007 A 
ENDBRANCH  18  19
ENDBRANCH  17  18
ENDBRANCH   1  17
TORSDOF 5
ENDMDL
MODEL 5
REMARK VINA RESULT:      -8.0      5.141      8.448
REMARK  5 active torsions:
REMARK  status: ('A' for Active; 'I' for Inactive)
REMARK    1  A    between atoms: C_5  and  C_6 
REMARK    2  A    between atoms: C_6  and  C_7 
REMARK    3  A    between atoms: C_7  and  C_8 
REMARK       I    between atoms: C_8  and  N_9 
REMARK    4  A    between atoms: N_9  and  C_10 
REMARK    5  A    between atoms: C_12  and  C_13 
ROOT
HETATM    1  C   UNL     1      41.207 -13.919   3.582  1.00  0.00     0.222 C 
HETATM    2  N   UNL     1      42.450 -14.483   3.363  1.00  0.00    -0.327 N 
HETATM    3  O   UNL     1      40.370 -14.311   4.391  1.00  0.00    -0.273 OA
HETATM    4  H   UNL     1      42.977 -14.148   2.568  1.00  0.00     0.169 HD
ENDROOT
BRANCH   2   5
HETATM    5  C   UNL     1      43.052 -15.537   4.083  1.00  0.00     0.035 A 
HETATM    6  C   UNL     1      43.175 -16.844   3.598  1.00  0.00     0.042 A 
HETATM    7  C   UNL     1      43.752 -17.860   4.381  1.00  0.00    -0.021 A 
HETATM    8  C   UNL     1      44.216 -17.540   5.664  1.00  0.00     0.012 A 
HETATM    9  C   UNL     1      44.097 -16.240   6.157  1.00  0.00     0.003 A 
HETATM   10  C   UNL     1      43.512 -15.247   5.372  1.00  0.00     0.029 A 
BRANCH   7  11
HETATM   11  C   UNL     1      43.853 -19.228   3.891  1.00  0.00     0.010 A 
HETATM   12  C   UNL     1      43.729 -19.756   2.581  1.00  0.00     0.152 A 
HETATM   13  N   UNL     1      43.890 -21.082   2.535  1.00  0.00    -0.187 NA
HETATM   14  N   UNL     1      44.119 -21.412   3.816  1.00  0.00    -0.289 N 
HETATM   15  H   UNL     1      44.277 -22.388   4.042  1.00  0.00     0.188 HD
HETATM   16  C   UNL     1      44.104 -20.342   4.664  1.00  0.00     0.123 A 
ENDBRANCH   7  11
ENDBRANCH   2   5
BRANCH   1  17
HETATM   17  C   UNL     1      40.942 -12.653   2.779  1.00  0.00     0.108 C 
BRANCH  17  18
HETATM   18  C   UNL     1      41.542 -12.588   1.377  1.00  0.00     0.047 C 
BRANCH  18  19
HETATM   19  C   UNL     1      40.786 -13.224   0.233  1.00  0.00    -0.058 A 
HETATM   20  C   UNL     1      40.243 -14.512   0.282  1.00  0.00     0.007 A 
HETATM   21  C   UNL     1      39.512 -15.020  -0.798  1.00  0.00     0.007 A 
HETATM   22  C   UNL     1      39.297 -14.248  -1.944  1.00  0.00    -0.062 A 
HETATM   23  C   UNL     1      38.506 -14.780  -3.101  1.00  0.00     0.048 C 
HETATM   24  C   UNL     1      39.835 -12.960  -1.998  1.00  0.00     0.007 A 
HETATM   25  C   UNL     1      40.568 -12.454  -0.922  1.00  0.00     0.007 A 
ENDBRANCH  18  19
ENDBRANCH  17  18
ENDBRANCH   1  17
TORSDOF 5
ENDMDL
MODEL 6
REMARK VINA RESULT:      -7.8      4.794      7.190
REMARK  5 active torsions:
REMARK  status: ('A' for Active; 'I' for Inactive)
REMARK    1  A    between atoms: C_5  and  C_6 
REMARK    2  A    between atoms: C_6  and  C_7 
REMARK    3  A    between atoms: C_7  and  C_8 
REMARK       I    between atoms: C_8  and  N_9 
REMARK    4  A    between atoms: N_9  and  C_10 
REMARK    5  A    between atoms: C_12  and  C_13 
ROOT
HETATM    1  C   UNL     1      42.224 -15.512   6.403  1.00  0.00     0.222 C 
HETATM    2  N   UNL     1      42.345 -14.440   5.540  1.00  0.00    -0.327 N 
HETATM    3  O   UNL     1      41.175 -16.059   6.731  1.00  0.00    -0.273 OA
HETATM    4  H   UNL     1      43.251 -13.998   5.473  1.00  0.00     0.169 HD
ENDROOT
BRANCH   2   5
HETATM    5  C   UNL     1      41.322 -13.830   4.782  1.00  0.00     0.035 A 
HETATM    6  C   UNL     1      41.110 -14.068   3.419  1.00  0.00     0.042 A 
HETATM    7  C   UNL     1      40.095 -13.400   2.712  1.00  0.00    -0.021 A 
HETATM    8  C   UNL     1      39.284 -12.488   3.401  1.00  0.00     0.012 A 
HETATM    9  C   UNL     1      39.488 -12.241   4.758  1.00  0.00     0.003 A 
HETATM   10  C   UNL     1      40.506 -12.905   5.443  1.00  0.00     0.029 A 
BRANCH   7  11
HETATM   11  C   UNL     1      39.893 -13.623   1.287  1.00  0.00     0.010 A 
HETATM   12  C   UNL     1      40.131 -14.766   0.484  1.00  0.00     0.152 A 
HETATM   13  N   UNL     1      39.813 -14.577  -0.801  1.00  0.00    -0.187 NA
HETATM   14  N   UNL     1      39.369 -13.311  -0.828  1.00  0.00    -0.289 N 
HETATM   15  H   UNL     1      39.059 -12.928  -1.714  1.00  0.00     0.188 HD
HETATM   16  C   UNL     1      39.399 -12.698   0.391  1.00  0.00     0.123 A 
ENDBRANCH   7  11
ENDBRANCH   2   5
BRANCH   1  17
HETATM   17  C   UNL     1      43.551 -16.074   6.895  1.00  0.00     0.108 C 
BRANCH  17  18
HETATM   18  C   UNL     1      43.719 -17.591   6.841  1.00  0.00     0.047 C 
BRANCH  18  19
HETATM   19  C   UNL     1      43.700 -18.275   5.494  1.00  0.00    -0.058 A 
HETATM   20  C   UNL     1      43.589 -17.594   4.277  1.00  0.00     0.007 A 
HETATM   21  C   UNL     1      43.626 -18.289   3.063  1.00  0.00     0.007 A 
HETATM   22  C   UNL     1      43.789 -19.678   3.038  1.00  0.00    -0.062 A 
HETATM   23  C   UNL     1      43.841 -20.429   1.742  1.00  0.00     0.048 C 
HETATM   24  C   UNL     1      43.902 -20.364   4.250  1.00  0.00     0.007 A 
HETATM   25  C   UNL     1      43.862 -19.671   5.462  1.00  0.00     0.007 A 
ENDBRANCH  18  19
ENDBRANCH  17  18
ENDBRANCH   1  17
TORSDOF 5
ENDMDL
MODEL 7
REMARK VINA RESULT:      -7.7      6.093      9.763
REMARK  5 active torsions:
REMARK  status: ('A' for Active; 'I' for Inactive)
REMARK    1  A    between atoms: C_5  and  C_6 
REMARK    2  A    between atoms: C_6  and  C_7 
REMARK    3  A    between atoms: C_7  and  C_8 
REMARK       I    between atoms: C_8  and  N_9 
REMARK    4  A    between atoms: N_9  and  C_10 
REMARK    5  A    between atoms: C_12  and  C_13 
ROOT
HETATM    1  C   UNL     1      40.714 -14.955   0.713  1.00  0.00     0.222 C 
HETATM    2  N   UNL     1      42.050 -15.125   1.020  1.00  0.00    -0.327 N 
HETATM    3  O   UNL     1      39.765 -15.419   1.340  1.00  0.00    -0.273 OA
HETATM    4  H   UNL     1      42.726 -14.810   0.338  1.00  0.00     0.169 HD
ENDROOT
BRANCH   2   5
HETATM    5  C   UNL     1      42.594 -15.762   2.157  1.00  0.00     0.035 A 
HETATM    6  C   UNL     1      42.907 -17.124   2.214  1.00  0.00     0.042 A 
HETATM    7  C   UNL     1      43.413 -17.706   3.390  1.00  0.00    -0.021 A 
HETATM    8  C   UNL     1      43.610 -16.892   4.514  1.00  0.00     0.012 A 
HETATM    9  C   UNL     1      43.299 -15.533   4.467  1.00  0.00     0.003 A 
HETATM   10  C   UNL     1      42.788 -14.973   3.296  1.00  0.00     0.029 A 
BRANCH   7  11
HETATM   11  C   UNL     1      43.711 -19.131   3.463  1.00  0.00     0.010 A 
HETATM   12  C   UNL     1      43.591 -20.154   2.490  1.00  0.00     0.152 A 
HETATM   13  N   UNL     1      43.970 -21.352   2.943  1.00  0.00    -0.187 NA
HETATM   14  N   UNL     1      44.335 -21.104   4.210  1.00  0.00    -0.289 N 
HETATM   15  H   UNL     1      44.670 -21.876   4.776  1.00  0.00     0.188 HD
HETATM   16  C   UNL     1      44.196 -19.794   4.569  1.00  0.00     0.123 A 
ENDBRANCH   7  11
ENDBRANCH   2   5
BRANCH   1  17
HETATM   17  C   UNL     1      40.454 -14.033  -0.470  1.00  0.00     0.108 C 
BRANCH  17  18
HETATM   18  C   UNL     1      40.035 -12.600  -0.148  1.00  0.00     0.047 C 
BRANCH  18  19
HETATM   19  C   UNL     1      40.463 -11.491  -1.082  1.00  0.00    -0.058 A 
HETATM   20  C   UNL     1      40.015 -11.370  -2.402  1.00  0.00     0.007 A 
HETATM   21  C   UNL     1      40.416 -10.289  -3.196  1.00  0.00     0.007 A 
HETATM   22  C   UNL     1      41.261  -9.300  -2.684  1.00  0.00    -0.062 A 
HETATM   23  C   UNL     1      41.686  -8.134  -3.524  1.00  0.00     0.048 C 
HETATM   24  C   UNL     1      41.710  -9.414  -1.366  1.00  0.00     0.007 A 
HETATM   25  C   UNL     1      41.313 -10.494  -0.575  1.00  0.00     0.007 A 
ENDBRANCH  18  19
ENDBRANCH  17  18
ENDBRANCH   1  17
TORSDOF 5
ENDMDL
MODEL 8
REMARK VINA RESULT:      -7.7      6.978      9.280
REMARK  5 active torsions:
REMARK  status: ('A' for Active; 'I' for Inactive)
REMARK    1  A    between atoms: C_5  and  C_6 
REMARK    2  A    between atoms: C_6  and  C_7 
REMARK    3  A    between atoms: C_7  and  C_8 
REMARK       I    between atoms: C_8  and  N_9 
REMARK    4  A    between atoms: N_9  and  C_10 
REMARK    5  A    between atoms: C_12  and  C_13 
ROOT
HETATM    1  C   UNL     1      41.094 -14.322   1.286  1.00  0.00     0.222 C 
HETATM    2  N   UNL     1      40.804 -14.599  -0.037  1.00  0.00    -0.327 N 
HETATM    3  O   UNL     1      41.028 -13.220   1.824  1.00  0.00    -0.273 OA
HETATM    4  H   UNL     1      41.040 -15.519  -0.380  1.00  0.00     0.169 HD
ENDROOT
BRANCH   2   5
HETATM    5  C   UNL     1      40.277 -13.714  -1.002  1.00  0.00     0.035 A 
HETATM    6  C   UNL     1      40.851 -12.479  -1.326  1.00  0.00     0.042 A 
HETATM    7  C   UNL     1      40.256 -11.626  -2.272  1.00  0.00    -0.021 A 
HETATM    8  C   UNL     1      39.071 -12.037  -2.899  1.00  0.00     0.012 A 
HETATM    9  C   UNL     1      38.490 -13.264  -2.581  1.00  0.00     0.003 A 
HETATM   10  C   UNL     1      39.088 -14.095  -1.633  1.00  0.00     0.029 A 
BRANCH   7  11
HETATM   11  C   UNL     1      40.834 -10.326  -2.588  1.00  0.00     0.010 A 
HETATM   12  C   UNL     1      41.600  -9.434  -1.797  1.00  0.00     0.152 A 
HETATM   13  N   UNL     1      41.953  -8.325  -2.454  1.00  0.00    -0.187 NA
HETATM   14  N   UNL     1      41.415  -8.500  -3.671  1.00  0.00    -0.289 N 
HETATM   15  H   UNL     1      41.550  -7.775  -4.367  1.00  0.00     0.188 HD
HETATM   16  C   UNL     1      40.735  -9.677  -3.801  1.00  0.00     0.123 A 
ENDBRANCH   7  11
ENDBRANCH   2   5
BRANCH   1  17
HETATM   17  C   UNL     1      41.439 -15.547   2.122  1.00  0.00     0.108 C 
BRANCH  17  18
HETATM   18  C   UNL     1      42.838 -16.132   1.943  1.00  0.00     0.047 C 
BRANCH  18  19
HETATM   19  C   UNL     1      43.215 -17.365   2.730  1.00  0.00    -0.058 A 
HETATM   20  C   UNL     1      43.244 -18.655   2.190  1.00  0.00     0.007 A 
HETATM   21  C   UNL     1      43.651 -19.746   2.966  1.00  0.00     0.007 A 
HETATM   22  C   UNL     1      44.051 -19.570   4.294  1.00  0.00    -0.062 A 
HETATM   23  C   UNL     1      44.498 -20.732   5.130  1.00  0.00     0.048 C 
HETATM   24  C   UNL     1      44.027 -18.284   4.840  1.00  0.00     0.007 A 
HETATM   25  C   UNL     1      43.618 -17.196   4.066  1.00  0.00     0.007 A 
ENDBRANCH  18  19
ENDBRANCH  17  18
ENDBRANCH   1  17
TORSDOF 5
ENDMDL
MODEL 9
REMARK VINA RESULT:      -7.5      0.994      1.625
REMARK  5 active torsions:
REMARK  status: ('A' for Active; 'I' for Inactive)
REMARK    1  A    between atoms: C_5  and  C_6 
REMARK    2  A    between atoms: C_6  and  C_7 
REMARK    3  A    between atoms: C_7  and  C_8 
REMARK       I    between atoms: C_8  and  N_9 
REMARK    4  A    between atoms: N_9  and  C_10 
REMARK    5  A    between atoms: C_12  and  C_13 
ROOT
HETATM    1  C   UNL     1      43.268 -11.772   5.566  1.00  0.00     0.222 C 
HETATM    2  N   UNL     1      44.239 -11.992   6.524  1.00  0.00    -0.327 N 
HETATM    3  O   UNL     1      42.545 -10.783   5.485  1.00  0.00    -0.273 OA
HETATM    4  H   UNL     1      44.658 -12.911   6.558  1.00  0.00     0.169 HD
ENDROOT
BRANCH   2   5
HETATM    5  C   UNL     1      44.674 -11.097   7.526  1.00  0.00     0.035 A 
HETATM    6  C   UNL     1      43.933 -10.789   8.672  1.00  0.00     0.042 A 
HETATM    7  C   UNL     1      44.405  -9.859   9.616  1.00  0.00    -0.021 A 
HETATM    8  C   UNL     1      45.645  -9.245   9.393  1.00  0.00     0.012 A 
HETATM    9  C   UNL     1      46.390  -9.544   8.252  1.00  0.00     0.003 A 
HETATM   10  C   UNL     1      45.903 -10.460   7.321  1.00  0.00     0.029 A 
BRANCH   7  11
HETATM   11  C   UNL     1      43.623  -9.513  10.795  1.00  0.00     0.010 A 
HETATM   12  C   UNL     1      43.860  -8.564  11.820  1.00  0.00     0.152 A 
HETATM   13  N   UNL     1      42.895  -8.540  12.744  1.00  0.00    -0.187 NA
HETATM   14  N   UNL     1      42.032  -9.475  12.316  1.00  0.00    -0.289 N 
HETATM   15  H   UNL     1      41.195  -9.645  12.862  1.00  0.00     0.188 HD
HETATM   16  C   UNL     1      42.422 -10.086  11.159  1.00  0.00     0.123 A 
ENDBRANCH   7  11
ENDBRANCH   2   5
BRANCH   1  17
HETATM   17  C   UNL     1      43.190 -12.850   4.493  1.00  0.00     0.108 C 
BRANCH  17  18
HETATM   18  C   UNL     1      42.120 -13.925   4.672  1.00  0.00     0.047 C 
BRANCH  18  19
HETATM   19  C   UNL     1      42.333 -15.275   4.028  1.00  0.00    -0.058 A 
HETATM   20  C   UNL     1      41.555 -15.765   2.974  1.00  0.00     0.007 A 
HETATM   21  C   UNL     1      41.840 -17.007   2.393  1.00  0.00     0.007 A 
HETATM   22  C   UNL     1      42.917 -17.777   2.843  1.00  0.00    -0.062 A 
HETATM   23  C   UNL     1      43.236 -19.102   2.219  1.00  0.00     0.048 C 
HETATM   24  C   UNL     1      43.699 -17.292   3.894  1.00  0.00     0.007 A 
HETATM   25  C   UNL     1      43.412 -16.055   4.476  1.00  0.00     0.007 A 
ENDBRANCH  18  19
ENDBRANCH  17  18
ENDBRANCH   1  17
TORSDOF 5
ENDMDL
MODEL 10
REMARK VINA RESULT:      -7.4      2.492      9.319
REMARK  5 active torsions:
REMARK  status: ('A' for Active; 'I' for Inactive)
REMARK    1  A    between atoms: C_5  and  C_6 
REMARK    2  A    between atoms: C_6  and  C_7 
REMARK    3  A    between atoms: C_7  and  C_8 
REMARK       I    between atoms: C_8  and  N_9 
REMARK    4  A    between atoms: N_9  and  C_10 
REMARK    5  A    between atoms: C_12  and  C_13 
ROOT
HETATM    1  C   UNL     1      43.580 -11.919   5.097  1.00  0.00     0.222 C 
HETATM    2  N   UNL     1      42.825 -12.992   5.531  1.00  0.00    -0.327 N 
HETATM    3  O   UNL     1      44.024 -11.760   3.963  1.00  0.00    -0.273 OA
HETATM    4  H   UNL     1      42.650 -13.065   6.523  1.00  0.00     0.169 HD
ENDROOT
BRANCH   2   5
HETATM    5  C   UNL     1      42.321 -14.056   4.752  1.00  0.00     0.035 A 
HETATM    6  C   UNL     1      42.969 -15.287   4.598  1.00  0.00     0.042 A 
HETATM    7  C   UNL     1      42.433 -16.295   3.778  1.00  0.00    -0.021 A 
HETATM    8  C   UNL     1      41.223 -16.050   3.114  1.00  0.00     0.012 A 
HETATM    9  C   UNL     1      40.570 -14.825   3.258  1.00  0.00     0.003 A 
HETATM   10  C   UNL     1      41.121 -13.832   4.068  1.00  0.00     0.029 A 
BRANCH   7  11
HETATM   11  C   UNL     1      43.121 -17.566   3.591  1.00  0.00     0.010 A 
HETATM   12  C   UNL     1      43.892 -18.343   4.490  1.00  0.00     0.152 A 
HETATM   13  N   UNL     1      44.364 -19.465   3.939  1.00  0.00    -0.187 NA
HETATM   14  N   UNL     1      43.897 -19.413   2.682  1.00  0.00    -0.289 N 
HETATM   15  H   UNL     1      44.125 -20.173   2.051  1.00  0.00     0.188 HD
HETATM   16  C   UNL     1      43.152 -18.298   2.424  1.00  0.00     0.123 A 
ENDBRANCH   7  11
ENDBRANCH   2   5
BRANCH   1  17
HETATM   17  C   UNL     1      43.777 -10.827   6.140  1.00  0.00     0.108 C 
BRANCH  17  18
HETATM   18  C   UNL     1      44.654 -11.172   7.342  1.00  0.00     0.047 C 
BRANCH  18  19
HETATM   19  C   UNL     1      44.379 -10.487   8.661  1.00  0.00    -0.058 A 
HETATM   20  C   UNL     1      45.355 -10.260   9.637  1.00  0.00     0.007 A 
HETATM   21  C   UNL     1      45.040  -9.576  10.817  1.00  0.00     0.007 A 
HETATM   22  C   UNL     1      43.747  -9.092  11.040  1.00  0.00    -0.062 A 
HETATM   23  C   UNL     1      43.403  -8.348  12.295  1.00  0.00     0.048 C 
HETATM   24  C   UNL     1      42.768  -9.313  10.068  1.00  0.00     0.007 A 
HETATM   25  C   UNL     1      43.082  -9.999   8.892  1.00  0.00     0.007 A 
ENDBRANCH  18  19
ENDBRANCH  17  18
ENDBRANCH   1  17
TORSDOF 5
ENDMDL
