MODEL 1
REMARK VINA RESULT:      -8.6      0.000      0.000
REMARK  10 active torsions:
REMARK  status: ('A' for Active; 'I' for Inactive)
REMARK    1  A    between atoms: O_2  and  C_3 
REMARK    2  A    between atoms: C_6  and  N_7 
REMARK       I    between atoms: N_7  and  C_8 
REMARK    3  A    between atoms: C_8  and  C_9 
REMARK    4  A    between atoms: C_9  and  C_10 
REMARK    5  A    between atoms: N_11  and  C_12 
REMARK    6  A    between atoms: C_12  and  C_13 
REMARK    7  A    between atoms: C_13  and  C_14 
REMARK    8  A    between atoms: C_16  and  O_17 
REMARK    9  A    between atoms: C_19  and  O_20 
REMARK   10  A    between atoms: N_26  and  C_27 
ROOT
HETATM    1  C   UNL     1      42.422 -14.500   4.480  1.00  0.00     0.190 C 
HETATM    2  N   UNL     1      42.526 -14.474   3.033  1.00  0.00    -0.319 N 
HETATM    3  C   UNL     1      42.995 -15.688   2.537  1.00  0.00     0.332 C 
HETATM    4  O   UNL     1      43.400 -15.809   1.389  1.00  0.00    -0.246 OA
HETATM    5  N   UNL     1      42.960 -16.625   3.551  1.00  0.00    -0.232 N 
HETATM    6  C   UNL     1      42.632 -15.994   4.736  1.00  0.00     0.256 C 
HETATM    7  O   UNL     1      42.564 -16.472   5.863  1.00  0.00    -0.270 OA
ENDROOT
BRANCH   1   8
HETATM    8  C   UNL     1      43.531 -13.708   5.174  1.00  0.00     0.138 C 
BRANCH   8   9
HETATM    9  C   UNL     1      43.107 -13.245   6.546  1.00  0.00     0.224 C 
HETATM   10  N   UNL     1      42.362 -12.112   6.703  1.00  0.00    -0.327 N 
HETATM   11  H   UNL     1      42.303 -11.863   7.685  1.00  0.00     0.169 HD
HETATM   12  O   UNL     1      43.414 -13.878   7.560  1.00  0.00    -0.273 OA
BRANCH  10  13
HETATM   13  C   UNL     1      41.646 -11.285   5.819  1.00  0.00     0.034 A 
HETATM   14  C   UNL     1      42.192 -10.259   5.049  1.00  0.00     0.032 A 
HETATM   15  C   UNL     1      41.393  -9.542   4.150  1.00  0.00     0.039 A 
HETATM   16  C   UNL     1      40.041  -9.841   3.992  1.00  0.00     0.068 A 
HETATM   17  C   UNL     1      39.483 -10.854   4.763  1.00  0.00     0.039 A 
HETATM   18  C   UNL     1      40.283 -11.573   5.661  1.00  0.00     0.032 A 
BRANCH  16  19
HETATM   19  O   UNL     1      39.389  -9.080   3.064  1.00  0.00    -0.356 OA
HETATM   20  C   UNL     1      38.599  -9.779   2.108  1.00  0.00     0.210 C 
ENDBRANCH  16  19
ENDBRANCH  10  13
ENDBRANCH   8   9
ENDBRANCH   1   8
BRANCH   2  21
HETATM   21  C   UNL     1      42.613 -13.229   2.279  1.00  0.00     0.133 C 
BRANCH  21  22
HETATM   22  C   UNL     1      41.257 -12.581   1.973  1.00  0.00     0.058 C 
BRANCH  22  23
HETATM   23  C   UNL     1      40.766 -13.009   0.610  1.00  0.00    -0.054 A 
HETATM   24  C   UNL     1      41.011 -12.223  -0.525  1.00  0.00     0.046 A 
HETATM   25  C   UNL     1      40.611 -12.660  -1.796  1.00  0.00     0.102 A 
HETATM   26  C   UNL     1      39.965 -13.906  -1.935  1.00  0.00     0.101 A 
HETATM   27  C   UNL     1      39.716 -14.683  -0.799  1.00  0.00     0.040 A 
HETATM   28  C   UNL     1      40.117 -14.239   0.462  1.00  0.00     0.010 A 
BRANCH  25  29
HETATM   29  O   UNL     1      40.822 -11.960  -2.958  1.00  0.00    -0.353 OA
HETATM   30  C   UNL     1      40.218 -10.680  -3.078  1.00  0.00     0.210 C 
ENDBRANCH  25  29
BRANCH  26  31
HETATM   31  O   UNL     1      39.617 -14.268  -3.213  1.00  0.00    -0.353 OA
HETATM   32  C   UNL     1      38.255 -14.585  -3.458  1.00  0.00     0.210 C 
ENDBRANCH  26  31
ENDBRANCH  22  23
ENDBRANCH  21  22
ENDBRANCH   2  21
BRANCH   5  33
HETATM   33  C   UNL     1      43.284 -18.014   3.406  1.00  0.00     0.047 A 
HETATM   34  C   UNL     1      42.902 -18.744   2.266  1.00  0.00     0.030 A 
HETATM   35  C   UNL     1      43.213 -20.103   2.119  1.00  0.00     0.002 A 
HETATM   36  C   UNL     1      43.913 -20.772   3.113  1.00  0.00     0.000 A 
HETATM   37  C   UNL     1      44.297 -20.082   4.255  1.00  0.00     0.002 A 
HETATM   38  C   UNL     1      43.985 -18.722   4.397  1.00  0.00     0.030 A 
ENDBRANCH   5  33
TORSDOF 10
ENDMDL
MODEL 2
REMARK VINA RESULT:      -8.4      2.655      8.369
REMARK  10 active torsions:
REMARK  status: ('A' for Active; 'I' for Inactive)
REMARK    1  A    between atoms: O_2  and  C_3 
REMARK    2  A    between atoms: C_6  and  N_7 
REMARK       I    between atoms: N_7  and  C_8 
REMARK    3  A    between atoms: C_8  and  C_9 
REMARK    4  A    between atoms: C_9  and  C_10 
REMARK    5  A    between atoms: N_11  and  C_12 
REMARK    6  A    between atoms: C_12  and  C_13 
REMARK    7  A    between atoms: C_13  and  C_14 
REMARK    8  A    between atoms: C_16  and  O_17 
REMARK    9  A    between atoms: C_19  and  O_20 
REMARK   10  A    between atoms: N_26  and  C_27 
ROOT
HETATM    1  C   UNL     1      40.306 -11.806   4.077  1.00  0.00     0.190 C 
HETATM    2  N   UNL     1      41.112 -10.767   3.464  1.00  0.00    -0.319 N 
HETATM    3  C   UNL     1      41.212 -10.951   2.087  1.00  0.00     0.332 C 
HETATM    4  O   UNL     1      42.039 -10.357   1.409  1.00  0.00    -0.246 OA
HETATM    5  N   UNL     1      40.296 -11.909   1.699  1.00  0.00    -0.232 N 
HETATM    6  C   UNL     1      39.721 -12.464   2.826  1.00  0.00     0.256 C 
HETATM    7  O   UNL     1      38.913 -13.384   2.899  1.00  0.00    -0.270 OA
ENDROOT
BRANCH   1   8
HETATM    8  C   UNL     1      41.138 -12.833   4.847  1.00  0.00     0.138 C 
BRANCH   8   9
HETATM    9  C   UNL     1      40.264 -13.782   5.628  1.00  0.00     0.224 C 
HETATM   10  N   UNL     1      40.273 -15.121   5.363  1.00  0.00    -0.327 N 
HETATM   11  H   UNL     1      39.521 -15.583   5.862  1.00  0.00     0.169 HD
HETATM   12  O   UNL     1      39.524 -13.378   6.529  1.00  0.00    -0.273 OA
BRANCH  10  13
HETATM   13  C   UNL     1      41.114 -15.960   4.609  1.00  0.00     0.034 A 
HETATM   14  C   UNL     1      41.002 -16.199   3.241  1.00  0.00     0.032 A 
HETATM   15  C   UNL     1      41.939 -17.004   2.580  1.00  0.00     0.039 A 
HETATM   16  C   UNL     1      43.009 -17.573   3.267  1.00  0.00     0.068 A 
HETATM   17  C   UNL     1      43.124 -17.352   4.635  1.00  0.00     0.039 A 
HETATM   18  C   UNL     1      42.187 -16.545   5.295  1.00  0.00     0.032 A 
BRANCH  16  19
HETATM   19  O   UNL     1      43.860 -18.314   2.495  1.00  0.00    -0.356 OA
HETATM   20  C   UNL     1      43.574 -19.703   2.386  1.00  0.00     0.210 C 
ENDBRANCH  16  19
ENDBRANCH  10  13
ENDBRANCH   8   9
ENDBRANCH   1   8
BRANCH   2  21
HETATM   21  C   UNL     1      42.067  -9.969   4.223  1.00  0.00     0.133 C 
BRANCH  21  22
HETATM   22  C   UNL     1      41.462  -9.240   5.429  1.00  0.00     0.058 C 
BRANCH  22  23
HETATM   23  C   UNL     1      42.180  -9.638   6.697  1.00  0.00    -0.054 A 
HETATM   24  C   UNL     1      43.336 -10.430   6.653  1.00  0.00     0.046 A 
HETATM   25  C   UNL     1      44.035 -10.739   7.829  1.00  0.00     0.102 A 
HETATM   26  C   UNL     1      43.576 -10.240   9.066  1.00  0.00     0.101 A 
HETATM   27  C   UNL     1      42.419  -9.456   9.105  1.00  0.00     0.040 A 
HETATM   28  C   UNL     1      41.729  -9.156   7.930  1.00  0.00     0.010 A 
BRANCH  25  29
HETATM   29  O   UNL     1      45.180 -11.496   7.874  1.00  0.00    -0.353 OA
HETATM   30  C   UNL     1      46.275 -11.088   7.070  1.00  0.00     0.210 C 
ENDBRANCH  25  29
BRANCH  26  31
HETATM   31  O   UNL     1      44.323 -10.576  10.168  1.00  0.00    -0.353 OA
HETATM   32  C   UNL     1      43.642 -10.708  11.407  1.00  0.00     0.210 C 
ENDBRANCH  26  31
ENDBRANCH  22  23
ENDBRANCH  21  22
ENDBRANCH   2  21
BRANCH   5  33
HETATM   33  C   UNL     1      40.040 -12.310   0.346  1.00  0.00     0.047 A 
HETATM   34  C   UNL     1      40.449 -13.565  -0.140  1.00  0.00     0.030 A 
HETATM   35  C   UNL     1      40.204 -13.961  -1.462  1.00  0.00     0.002 A 
HETATM   36  C   UNL     1      39.546 -13.109  -2.338  1.00  0.00     0.000 A 
HETATM   37  C   UNL     1      39.136 -11.861  -1.890  1.00  0.00     0.002 A 
HETATM   38  C   UNL     1      39.382 -11.469  -0.567  1.00  0.00     0.030 A 
ENDBRANCH   5  33
TORSDOF 10
ENDMDL
MODEL 3
REMARK VINA RESULT:      -8.4      3.237      8.990
REMARK  10 active torsions:
REMARK  status: ('A' for Active; 'I' for Inactive)
REMARK    1  A    between atoms: O_2  and  C_3 
REMARK    2  A    between atoms: C_6  and  N_7 
REMARK       I    between atoms: N_7  and  C_8 
REMARK    3  A    between atoms: C_8  and  C_9 
REMARK    4  A    between atoms: C_9  and  C_10 
REMARK    5  A    between atoms: N_11  and  C_12 
REMARK    6  A    between atoms: C_12  and  C_13 
REMARK    7  A    between atoms: C_13  and  C_14 
REMARK    8  A    between atoms: C_16  and  O_17 
REMARK    9  A    between atoms: C_19  and  O_20 
REMARK   10  A    between atoms: N_26  and  C_27 
ROOT
HETATM    1  C   UNL     1      42.950 -14.054   6.386  1.00  0.00     0.190 C 
HETATM    2  N   UNL     1      43.582 -12.847   5.888  1.00  0.00    -0.319 N 
HETATM    3  C   UNL     1      43.211 -12.587   4.571  1.00  0.00     0.332 C 
HETATM    4  O   UNL     1      43.811 -11.781   3.873  1.00  0.00    -0.246 OA
HETATM    5  N   UNL     1      42.151 -13.408   4.238  1.00  0.00    -0.232 N 
HETATM    6  C   UNL     1      41.940 -14.308   5.265  1.00  0.00     0.256 C 
HETATM    7  O   UNL     1      41.136 -15.233   5.318  1.00  0.00    -0.270 OA
ENDROOT
BRANCH   1   8
HETATM    8  C   UNL     1      43.911 -15.240   6.478  1.00  0.00     0.138 C 
BRANCH   8   9
HETATM    9  C   UNL     1      43.509 -16.197   7.573  1.00  0.00     0.224 C 
HETATM   10  N   UNL     1      43.225 -17.502   7.291  1.00  0.00    -0.327 N 
HETATM   11  H   UNL     1      42.823 -17.958   8.103  1.00  0.00     0.169 HD
HETATM   12  O   UNL     1      43.432 -15.831   8.748  1.00  0.00    -0.273 OA
BRANCH  10  13
HETATM   13  C   UNL     1      43.419 -18.322   6.164  1.00  0.00     0.034 A 
HETATM   14  C   UNL     1      43.601 -17.872   4.858  1.00  0.00     0.032 A 
HETATM   15  C   UNL     1      43.852 -18.779   3.820  1.00  0.00     0.039 A 
HETATM   16  C   UNL     1      43.939 -20.147   4.068  1.00  0.00     0.068 A 
HETATM   17  C   UNL     1      43.747 -20.609   5.365  1.00  0.00     0.039 A 
HETATM   18  C   UNL     1      43.498 -19.701   6.403  1.00  0.00     0.032 A 
BRANCH  16  19
HETATM   19  O   UNL     1      44.214 -20.914   2.970  1.00  0.00    -0.356 OA
HETATM   20  C   UNL     1      43.596 -20.522   1.750  1.00  0.00     0.210 C 
ENDBRANCH  16  19
ENDBRANCH  10  13
ENDBRANCH   8   9
ENDBRANCH   1   8
BRANCH   2  21
HETATM   21  C   UNL     1      44.789 -12.293   6.490  1.00  0.00     0.133 C 
BRANCH  21  22
HETATM   22  C   UNL     1      44.822 -10.761   6.541  1.00  0.00     0.058 C 
BRANCH  22  23
HETATM   23  C   UNL     1      44.476 -10.274   7.928  1.00  0.00    -0.054 A 
HETATM   24  C   UNL     1      43.244  -9.659   8.191  1.00  0.00     0.046 A 
HETATM   25  C   UNL     1      42.902  -9.270   9.494  1.00  0.00     0.102 A 
HETATM   26  C   UNL     1      43.803  -9.509  10.552  1.00  0.00     0.101 A 
HETATM   27  C   UNL     1      45.034 -10.117  10.285  1.00  0.00     0.040 A 
HETATM   28  C   UNL     1      45.365 -10.498   8.984  1.00  0.00     0.010 A 
BRANCH  25  29
HETATM   29  O   UNL     1      41.714  -8.674   9.839  1.00  0.00    -0.353 OA
HETATM   30  C   UNL     1      40.514  -9.272   9.374  1.00  0.00     0.210 C 
ENDBRANCH  25  29
BRANCH  26  31
HETATM   31  O   UNL     1      43.389  -9.112  11.800  1.00  0.00    -0.353 OA
HETATM   32  C   UNL     1      42.739 -10.077  12.614  1.00  0.00     0.210 C 
ENDBRANCH  26  31
ENDBRANCH  22  23
ENDBRANCH  21  22
ENDBRANCH   2  21
BRANCH   5  33
HETATM   33  C   UNL     1      41.436 -13.374   2.996  1.00  0.00     0.047 A 
HETATM   34  C   UNL     1      40.288 -12.580   2.829  1.00  0.00     0.030 A 
HETATM   35  C   UNL     1      39.583 -12.545   1.618  1.00  0.00     0.002 A 
HETATM   36  C   UNL     1      40.006 -13.308   0.539  1.00  0.00     0.000 A 
HETATM   37  C   UNL     1      41.132 -14.109   0.675  1.00  0.00     0.002 A 
HETATM   38  C   UNL     1      41.834 -14.141   1.887  1.00  0.00     0.030 A 
ENDBRANCH   5  33
TORSDOF 10
ENDMDL
MODEL 4
REMARK VINA RESULT:      -8.4      3.445      7.151
REMARK  10 active torsions:
REMARK  status: ('A' for Active; 'I' for Inactive)
REMARK    1  A    between atoms: O_2  and  C_3 
REMARK    2  A    between atoms: C_6  and  N_7 
REMARK       I    between atoms: N_7  and  C_8 
REMARK    3  A    between atoms: C_8  and  C_9 
REMARK    4  A    between atoms: C_9  and  C_10 
REMARK    5  A    between atoms: N_11  and  C_12 
REMARK    6  A    between atoms: C_12  and  C_13 
REMARK    7  A    between atoms: C_13  and  C_14 
REMARK    8  A    between atoms: C_16  and  O_17 
REMARK    9  A    between atoms: C_19  and  O_20 
REMARK   10  A    between atoms: N_26  and  C_27 
ROOT
HETATM    1  C   UNL     1      43.629 -12.538   5.809  1.00  0.00     0.190 C 
HETATM    2  N   UNL     1      42.727 -13.667   5.933  1.00  0.00    -0.319 N 
HETATM    3  C   UNL     1      41.455 -13.353   5.460  1.00  0.00     0.332 C 
HETATM    4  O   UNL     1      40.480 -14.053   5.699  1.00  0.00    -0.246 OA
HETATM    5  N   UNL     1      41.519 -12.155   4.776  1.00  0.00    -0.232 N 
HETATM    6  C   UNL     1      42.777 -11.610   4.940  1.00  0.00     0.256 C 
HETATM    7  O   UNL     1      43.201 -10.531   4.541  1.00  0.00    -0.270 OA
ENDROOT
BRANCH   1   8
HETATM    8  C   UNL     1      43.920 -11.854   7.145  1.00  0.00     0.138 C 
BRANCH   8   9
HETATM    9  C   UNL     1      45.208 -11.070   7.098  1.00  0.00     0.224 C 
HETATM   10  N   UNL     1      45.376  -9.953   7.864  1.00  0.00    -0.327 N 
HETATM   11  H   UNL     1      46.224  -9.466   7.595  1.00  0.00     0.169 HD
HETATM   12  O   UNL     1      46.145 -11.419   6.375  1.00  0.00    -0.273 OA
BRANCH  10  13
HETATM   13  C   UNL     1      44.665  -9.393   8.942  1.00  0.00     0.034 A 
HETATM   14  C   UNL     1      44.648  -9.888  10.245  1.00  0.00     0.032 A 
HETATM   15  C   UNL     1      43.956  -9.208  11.255  1.00  0.00     0.039 A 
HETATM   16  C   UNL     1      43.281  -8.018  10.989  1.00  0.00     0.068 A 
HETATM   17  C   UNL     1      43.280  -7.522   9.691  1.00  0.00     0.039 A 
HETATM   18  C   UNL     1      43.975  -8.201   8.680  1.00  0.00     0.032 A 
BRANCH  16  19
HETATM   19  O   UNL     1      42.671  -7.450  12.072  1.00  0.00    -0.356 OA
HETATM   20  C   UNL     1      43.193  -7.792  13.350  1.00  0.00     0.210 C 
ENDBRANCH  16  19
ENDBRANCH  10  13
ENDBRANCH   8   9
ENDBRANCH   1   8
BRANCH   2  21
HETATM   21  C   UNL     1      42.973 -14.765   6.860  1.00  0.00     0.133 C 
BRANCH  21  22
HETATM   22  C   UNL     1      44.190 -15.629   6.505  1.00  0.00     0.058 C 
BRANCH  22  23
HETATM   23  C   UNL     1      43.867 -16.538   5.343  1.00  0.00    -0.054 A 
HETATM   24  C   UNL     1      43.240 -16.042   4.191  1.00  0.00     0.046 A 
HETATM   25  C   UNL     1      43.005 -16.878   3.090  1.00  0.00     0.102 A 
HETATM   26  C   UNL     1      43.410 -18.228   3.139  1.00  0.00     0.101 A 
HETATM   27  C   UNL     1      44.028 -18.720   4.293  1.00  0.00     0.040 A 
HETATM   28  C   UNL     1      44.257 -17.880   5.384  1.00  0.00     0.010 A 
BRANCH  25  29
HETATM   29  O   UNL     1      42.409 -16.472   1.921  1.00  0.00    -0.353 OA
HETATM   30  C   UNL     1      41.159 -15.807   2.013  1.00  0.00     0.210 C 
ENDBRANCH  25  29
BRANCH  26  31
HETATM   31  O   UNL     1      43.156 -18.977   2.016  1.00  0.00    -0.353 OA
HETATM   32  C   UNL     1      43.492 -20.356   2.057  1.00  0.00     0.210 C 
ENDBRANCH  26  31
ENDBRANCH  22  23
ENDBRANCH  21  22
ENDBRANCH   2  21
BRANCH   5  33
HETATM   33  C   UNL     1      40.429 -11.546   4.070  1.00  0.00     0.047 A 
HETATM   34  C   UNL     1      39.696 -10.482   4.626  1.00  0.00     0.030 A 
HETATM   35  C   UNL     1      38.627  -9.884   3.943  1.00  0.00     0.002 A 
HETATM   36  C   UNL     1      38.260 -10.338   2.684  1.00  0.00     0.000 A 
HETATM   37  C   UNL     1      38.959 -11.392   2.112  1.00  0.00     0.002 A 
HETATM   38  C   UNL     1      40.027 -11.986   2.798  1.00  0.00     0.030 A 
ENDBRANCH   5  33
TORSDOF 10
ENDMDL
MODEL 5
REMARK VINA RESULT:      -8.4      2.071      2.957
REMARK  10 active torsions:
REMARK  status: ('A' for Active; 'I' for Inactive)
REMARK    1  A    between atoms: O_2  and  C_3 
REMARK    2  A    between atoms: C_6  and  N_7 
REMARK       I    between atoms: N_7  and  C_8 
REMARK    3  A    between atoms: C_8  and  C_9 
REMARK    4  A    between atoms: C_9  and  C_10 
REMARK    5  A    between atoms: N_11  and  C_12 
REMARK    6  A    between atoms: C_12  and  C_13 
REMARK    7  A    between atoms: C_13  and  C_14 
REMARK    8  A    between atoms: C_16  and  O_17 
REMARK    9  A    between atoms: C_19  and  O_20 
REMARK   10  A    between atoms: N_26  and  C_27 
ROOT
HETATM    1  C   UNL     1      41.161 -13.854   3.948  1.00  0.00     0.190 C 
HETATM    2  N   UNL     1      41.971 -13.661   2.760  1.00  0.00    -0.319 N 
HETATM    3  C   UNL     1      42.804 -14.754   2.532  1.00  0.00     0.332 C 
HETATM    4  O   UNL     1      43.743 -14.704   1.750  1.00  0.00    -0.246 OA
HETATM    5  N   UNL     1      42.408 -15.792   3.353  1.00  0.00    -0.232 N 
HETATM    6  C   UNL     1      41.439 -15.334   4.223  1.00  0.00     0.256 C 
HETATM    7  O   UNL     1      40.887 -15.934   5.139  1.00  0.00    -0.270 OA
ENDROOT
BRANCH   1   8
HETATM    8  C   UNL     1      41.636 -13.020   5.139  1.00  0.00     0.138 C 
BRANCH   8   9
HETATM    9  C   UNL     1      40.508 -12.219   5.740  1.00  0.00     0.224 C 
HETATM   10  N   UNL     1      40.758 -11.238   6.656  1.00  0.00    -0.327 N 
HETATM   11  H   UNL     1      39.890 -10.914   7.070  1.00  0.00     0.169 HD
HETATM   12  O   UNL     1      39.335 -12.421   5.418  1.00  0.00    -0.273 OA
BRANCH  10  13
HETATM   13  C   UNL     1      41.924 -10.578   7.086  1.00  0.00     0.034 A 
HETATM   14  C   UNL     1      43.210 -11.114   7.069  1.00  0.00     0.032 A 
HETATM   15  C   UNL     1      44.310 -10.338   7.459  1.00  0.00     0.039 A 
HETATM   16  C   UNL     1      44.149  -9.013   7.860  1.00  0.00     0.068 A 
HETATM   17  C   UNL     1      42.869  -8.472   7.893  1.00  0.00     0.039 A 
HETATM   18  C   UNL     1      41.769  -9.247   7.500  1.00  0.00     0.032 A 
BRANCH  16  19
HETATM   19  O   UNL     1      45.307  -8.368   8.189  1.00  0.00    -0.356 OA
HETATM   20  C   UNL     1      46.505  -9.132   8.112  1.00  0.00     0.210 C 
ENDBRANCH  16  19
ENDBRANCH  10  13
ENDBRANCH   8   9
ENDBRANCH   1   8
BRANCH   2  21
HETATM   21  C   UNL     1      42.233 -12.340   2.200  1.00  0.00     0.133 C 
BRANCH  21  22
HETATM   22  C   UNL     1      40.987 -11.620   1.673  1.00  0.00     0.058 C 
BRANCH  22  23
HETATM   23  C   UNL     1      40.563 -12.206   0.347  1.00  0.00    -0.054 A 
HETATM   24  C   UNL     1      40.967 -11.623  -0.862  1.00  0.00     0.046 A 
HETATM   25  C   UNL     1      40.626 -12.212  -2.089  1.00  0.00     0.102 A 
HETATM   26  C   UNL     1      39.878 -13.407  -2.105  1.00  0.00     0.101 A 
HETATM   27  C   UNL     1      39.471 -13.981  -0.897  1.00  0.00     0.040 A 
HETATM   28  C   UNL     1      39.814 -13.387   0.318  1.00  0.00     0.010 A 
BRANCH  25  29
HETATM   29  O   UNL     1      40.990 -11.713  -3.316  1.00  0.00    -0.353 OA
HETATM   30  C   UNL     1      40.783 -10.329  -3.555  1.00  0.00     0.210 C 
ENDBRANCH  25  29
BRANCH  26  31
HETATM   31  O   UNL     1      39.596 -13.927  -3.344  1.00  0.00    -0.353 OA
HETATM   32  C   UNL     1      38.381 -14.647  -3.494  1.00  0.00     0.210 C 
ENDBRANCH  26  31
ENDBRANCH  22  23
ENDBRANCH  21  22
ENDBRANCH   2  21
BRANCH   5  33
HETATM   33  C   UNL     1      42.969 -17.112   3.345  1.00  0.00     0.047 A 
HETATM   34  C   UNL     1      42.675 -18.031   2.322  1.00  0.00     0.030 A 
HETATM   35  C   UNL     1      43.218 -19.323   2.311  1.00  0.00     0.002 A 
HETATM   36  C   UNL     1      44.066 -19.735   3.328  1.00  0.00     0.000 A 
HETATM   37  C   UNL     1      44.369 -18.854   4.358  1.00  0.00     0.002 A 
HETATM   38  C   UNL     1      43.825 -17.562   4.364  1.00  0.00     0.030 A 
ENDBRANCH   5  33
TORSDOF 10
ENDMDL
MODEL 6
REMARK VINA RESULT:      -8.3      2.420      6.460
REMARK  10 active torsions:
REMARK  status: ('A' for Active; 'I' for Inactive)
REMARK    1  A    between atoms: O_2  and  C_3 
REMARK    2  A    between atoms: C_6  and  N_7 
REMARK       I    between atoms: N_7  and  C_8 
REMARK    3  A    between atoms: C_8  and  C_9 
REMARK    4  A    between atoms: C_9  and  C_10 
REMARK    5  A    between atoms: N_11  and  C_12 
REMARK    6  A    between atoms: C_12  and  C_13 
REMARK    7  A    between atoms: C_13  and  C_14 
REMARK    8  A    between atoms: C_16  and  O_17 
REMARK    9  A    between atoms: C_19  and  O_20 
REMARK   10  A    between atoms: N_26  and  C_27 
ROOT
HETATM    1  C   UNL     1      42.162 -13.074   3.841  1.00  0.00     0.190 C 
HETATM    2  N   UNL     1      42.000 -11.664   3.536  1.00  0.00    -0.319 N 
HETATM    3  C   UNL     1      42.533 -10.863   4.543  1.00  0.00     0.332 C 
HETATM    4  O   UNL     1      42.285  -9.668   4.624  1.00  0.00    -0.246 OA
HETATM    5  N   UNL     1      43.287 -11.656   5.388  1.00  0.00    -0.232 N 
HETATM    6  C   UNL     1      43.114 -12.980   5.036  1.00  0.00     0.256 C 
HETATM    7  O   UNL     1      43.563 -13.982   5.582  1.00  0.00    -0.270 OA
ENDROOT
BRANCH   1   8
HETATM    8  C   UNL     1      40.861 -13.745   4.282  1.00  0.00     0.138 C 
BRANCH   8   9
HETATM    9  C   UNL     1      40.254 -14.565   3.171  1.00  0.00     0.224 C 
HETATM   10  N   UNL     1      40.837 -15.730   2.764  1.00  0.00    -0.327 N 
HETATM   11  H   UNL     1      40.396 -16.065   1.913  1.00  0.00     0.169 HD
HETATM   12  O   UNL     1      39.217 -14.211   2.605  1.00  0.00    -0.273 OA
BRANCH  10  13
HETATM   13  C   UNL     1      41.848 -16.553   3.293  1.00  0.00     0.034 A 
HETATM   14  C   UNL     1      42.088 -16.770   4.648  1.00  0.00     0.032 A 
HETATM   15  C   UNL     1      43.083 -17.665   5.061  1.00  0.00     0.039 A 
HETATM   16  C   UNL     1      43.848 -18.368   4.131  1.00  0.00     0.068 A 
HETATM   17  C   UNL     1      43.627 -18.149   2.776  1.00  0.00     0.039 A 
HETATM   18  C   UNL     1      42.629 -17.256   2.364  1.00  0.00     0.032 A 
BRANCH  16  19
HETATM   19  O   UNL     1      44.765 -19.225   4.672  1.00  0.00    -0.356 OA
HETATM   20  C   UNL     1      44.279 -20.493   5.095  1.00  0.00     0.210 C 
ENDBRANCH  16  19
ENDBRANCH  10  13
ENDBRANCH   8   9
ENDBRANCH   1   8
BRANCH   2  21
HETATM   21  C   UNL     1      41.000 -11.180   2.591  1.00  0.00     0.133 C 
BRANCH  21  22
HETATM   22  C   UNL     1      41.466 -11.171   1.130  1.00  0.00     0.058 C 
BRANCH  22  23
HETATM   23  C   UNL     1      40.477 -11.910   0.260  1.00  0.00    -0.054 A 
HETATM   24  C   UNL     1      39.287 -11.298  -0.160  1.00  0.00     0.046 A 
HETATM   25  C   UNL     1      38.406 -11.967  -1.023  1.00  0.00     0.102 A 
HETATM   26  C   UNL     1      38.725 -13.262  -1.479  1.00  0.00     0.101 A 
HETATM   27  C   UNL     1      39.909 -13.871  -1.052  1.00  0.00     0.040 A 
HETATM   28  C   UNL     1      40.778 -13.198  -0.192  1.00  0.00     0.010 A 
BRANCH  25  29
HETATM   29  O   UNL     1      37.229 -11.438  -1.491  1.00  0.00    -0.353 OA
HETATM   30  C   UNL     1      36.944 -10.082  -1.182  1.00  0.00     0.210 C 
ENDBRANCH  25  29
BRANCH  26  31
HETATM   31  O   UNL     1      37.818 -13.844  -2.331  1.00  0.00    -0.353 OA
HETATM   32  C   UNL     1      38.330 -14.571  -3.438  1.00  0.00     0.210 C 
ENDBRANCH  26  31
ENDBRANCH  22  23
ENDBRANCH  21  22
ENDBRANCH   2  21
BRANCH   5  33
HETATM   33  C   UNL     1      44.064 -11.179   6.495  1.00  0.00     0.047 A 
HETATM   34  C   UNL     1      45.468 -11.126   6.440  1.00  0.00     0.030 A 
HETATM   35  C   UNL     1      46.234 -10.664   7.519  1.00  0.00     0.002 A 
HETATM   36  C   UNL     1      45.614 -10.246   8.689  1.00  0.00     0.000 A 
HETATM   37  C   UNL     1      44.229 -10.294   8.777  1.00  0.00     0.002 A 
HETATM   38  C   UNL     1      43.468 -10.756   7.695  1.00  0.00     0.030 A 
ENDBRANCH   5  33
TORSDOF 10
ENDMDL
MODEL 7
REMARK VINA RESULT:      -8.3      2.229      7.022
REMARK  10 active torsions:
REMARK  status: ('A' for Active; 'I' for Inactive)
REMARK    1  A    between atoms: O_2  and  C_3 
REMARK    2  A    between atoms: C_6  and  N_7 
REMARK       I    between atoms: N_7  and  C_8 
REMARK    3  A    between atoms: C_8  and  C_9 
REMARK    4  A    between atoms: C_9  and  C_10 
REMARK    5  A    between atoms: N_11  and  C_12 
REMARK    6  A    between atoms: C_12  and  C_13 
REMARK    7  A    between atoms: C_13  and  C_14 
REMARK    8  A    between atoms: C_16  and  O_17 
REMARK    9  A    between atoms: C_19  and  O_20 
REMARK   10  A    between atoms: N_26  and  C_27 
ROOT
HETATM    1  C   UNL     1      43.032 -13.978   3.354  1.00  0.00     0.190 C 
HETATM    2  N   UNL     1      43.012 -14.367   4.752  1.00  0.00    -0.319 N 
HETATM    3  C   UNL     1      42.992 -15.752   4.892  1.00  0.00     0.332 C 
HETATM    4  O   UNL     1      42.717 -16.295   5.954  1.00  0.00    -0.246 OA
HETATM    5  N   UNL     1      43.266 -16.327   3.666  1.00  0.00    -0.232 N 
HETATM    6  C   UNL     1      43.301 -15.338   2.703  1.00  0.00     0.256 C 
HETATM    7  O   UNL     1      43.452 -15.454   1.492  1.00  0.00    -0.270 OA
ENDROOT
BRANCH   1   8
HETATM    8  C   UNL     1      41.688 -13.440   2.863  1.00  0.00     0.138 C 
BRANCH   8   9
HETATM    9  C   UNL     1      41.796 -12.004   2.413  1.00  0.00     0.224 C 
HETATM   10  N   UNL     1      41.579 -11.662   1.109  1.00  0.00    -0.327 N 
HETATM   11  H   UNL     1      41.846 -10.696   0.951  1.00  0.00     0.169 HD
HETATM   12  O   UNL     1      42.075 -11.103   3.207  1.00  0.00    -0.273 OA
BRANCH  10  13
HETATM   13  C   UNL     1      41.034 -12.336   0.001  1.00  0.00     0.034 A 
HETATM   14  C   UNL     1      40.221 -13.466   0.060  1.00  0.00     0.032 A 
HETATM   15  C   UNL     1      39.678 -14.015  -1.109  1.00  0.00     0.039 A 
HETATM   16  C   UNL     1      39.926 -13.441  -2.354  1.00  0.00     0.068 A 
HETATM   17  C   UNL     1      40.746 -12.320  -2.427  1.00  0.00     0.039 A 
HETATM   18  C   UNL     1      41.286 -11.770  -1.257  1.00  0.00     0.032 A 
BRANCH  16  19
HETATM   19  O   UNL     1      39.314 -14.063  -3.406  1.00  0.00    -0.356 OA
HETATM   20  C   UNL     1      38.426 -15.128  -3.086  1.00  0.00     0.210 C 
ENDBRANCH  16  19
ENDBRANCH  10  13
ENDBRANCH   8   9
ENDBRANCH   1   8
BRANCH   2  21
HETATM   21  C   UNL     1      42.574 -13.461   5.807  1.00  0.00     0.133 C 
BRANCH  21  22
HETATM   22  C   UNL     1      43.652 -13.138   6.849  1.00  0.00     0.058 C 
BRANCH  22  23
HETATM   23  C   UNL     1      43.672 -11.656   7.140  1.00  0.00    -0.054 A 
HETATM   24  C   UNL     1      42.621 -10.825   6.727  1.00  0.00     0.046 A 
HETATM   25  C   UNL     1      42.615  -9.462   7.059  1.00  0.00     0.102 A 
HETATM   26  C   UNL     1      43.671  -8.925   7.823  1.00  0.00     0.101 A 
HETATM   27  C   UNL     1      44.721  -9.756   8.227  1.00  0.00     0.040 A 
HETATM   28  C   UNL     1      44.719 -11.111   7.889  1.00  0.00     0.010 A 
BRANCH  25  29
HETATM   29  O   UNL     1      41.621  -8.583   6.706  1.00  0.00    -0.353 OA
HETATM   30  C   UNL     1      40.337  -8.770   7.282  1.00  0.00     0.210 C 
ENDBRANCH  25  29
BRANCH  26  31
HETATM   31  O   UNL     1      43.585  -7.587   8.118  1.00  0.00    -0.353 OA
HETATM   32  C   UNL     1      43.345  -7.226   9.471  1.00  0.00     0.210 C 
ENDBRANCH  26  31
ENDBRANCH  22  23
ENDBRANCH  21  22
ENDBRANCH   2  21
BRANCH   5  33
HETATM   33  C   UNL     1      43.417 -17.733   3.427  1.00  0.00     0.047 A 
HETATM   34  C   UNL     1      44.092 -18.566   4.336  1.00  0.00     0.030 A 
HETATM   35  C   UNL     1      44.246 -19.941   4.106  1.00  0.00     0.002 A 
HETATM   36  C   UNL     1      43.732 -20.519   2.955  1.00  0.00     0.000 A 
HETATM   37  C   UNL     1      43.067 -19.722   2.033  1.00  0.00     0.002 A 
HETATM   38  C   UNL     1      42.914 -18.348   2.268  1.00  0.00     0.030 A 
ENDBRANCH   5  33
TORSDOF 10
ENDMDL
MODEL 8
REMARK VINA RESULT:      -8.3      1.300      1.677
REMARK  10 active torsions:
REMARK  status: ('A' for Active; 'I' for Inactive)
REMARK    1  A    between atoms: O_2  and  C_3 
REMARK    2  A    between atoms: C_6  and  N_7 
REMARK       I    between atoms: N_7  and  C_8 
REMARK    3  A    between atoms: C_8  and  C_9 
REMARK    4  A    between atoms: C_9  and  C_10 
REMARK    5  A    between atoms: N_11  and  C_12 
REMARK    6  A    between atoms: C_12  and  C_13 
REMARK    7  A    between atoms: C_13  and  C_14 
REMARK    8  A    between atoms: C_16  and  O_17 
REMARK    9  A    between atoms: C_19  and  O_20 
REMARK   10  A    between atoms: N_26  and  C_27 
ROOT
HETATM    1  C   UNL     1      40.996 -14.340   3.896  1.00  0.00     0.190 C 
HETATM    2  N   UNL     1      41.847 -14.091   2.748  1.00  0.00    -0.319 N 
HETATM    3  C   UNL     1      42.712 -15.158   2.517  1.00  0.00     0.332 C 
HETATM    4  O   UNL     1      43.680 -15.063   1.775  1.00  0.00    -0.246 OA
HETATM    5  N   UNL     1      42.308 -16.232   3.288  1.00  0.00    -0.232 N 
HETATM    6  C   UNL     1      41.295 -15.822   4.133  1.00  0.00     0.256 C 
HETATM    7  O   UNL     1      40.722 -16.464   5.007  1.00  0.00    -0.270 OA
ENDROOT
BRANCH   1   8
HETATM    8  C   UNL     1      41.405 -13.537   5.131  1.00  0.00     0.138 C 
BRANCH   8   9
HETATM    9  C   UNL     1      40.209 -13.152   5.965  1.00  0.00     0.224 C 
HETATM   10  N   UNL     1      39.736 -11.872   5.961  1.00  0.00    -0.327 N 
HETATM   11  H   UNL     1      39.038 -11.753   6.688  1.00  0.00     0.169 HD
HETATM   12  O   UNL     1      39.623 -13.981   6.666  1.00  0.00    -0.273 OA
BRANCH  10  13
HETATM   13  C   UNL     1      39.973 -10.747   5.150  1.00  0.00     0.034 A 
HETATM   14  C   UNL     1      41.184 -10.064   5.048  1.00  0.00     0.032 A 
HETATM   15  C   UNL     1      41.324  -8.994   4.155  1.00  0.00     0.039 A 
HETATM   16  C   UNL     1      40.267  -8.594   3.341  1.00  0.00     0.068 A 
HETATM   17  C   UNL     1      39.050  -9.259   3.444  1.00  0.00     0.039 A 
HETATM   18  C   UNL     1      38.911 -10.332   4.335  1.00  0.00     0.032 A 
BRANCH  16  19
HETATM   19  O   UNL     1      40.550  -7.554   2.501  1.00  0.00    -0.356 OA
HETATM   20  C   UNL     1      39.538  -7.196   1.567  1.00  0.00     0.210 C 
ENDBRANCH  16  19
ENDBRANCH  10  13
ENDBRANCH   8   9
ENDBRANCH   1   8
BRANCH   2  21
HETATM   21  C   UNL     1      42.102 -12.747   2.242  1.00  0.00     0.133 C 
BRANCH  21  22
HETATM   22  C   UNL     1      40.855 -12.022   1.722  1.00  0.00     0.058 C 
BRANCH  22  23
HETATM   23  C   UNL     1      40.438 -12.589   0.385  1.00  0.00    -0.054 A 
HETATM   24  C   UNL     1      40.529 -11.820  -0.784  1.00  0.00     0.046 A 
HETATM   25  C   UNL     1      40.203 -12.375  -2.030  1.00  0.00     0.102 A 
HETATM   26  C   UNL     1      39.789 -13.721  -2.109  1.00  0.00     0.101 A 
HETATM   27  C   UNL     1      39.693 -14.481  -0.939  1.00  0.00     0.040 A 
HETATM   28  C   UNL     1      40.018 -13.919   0.297  1.00  0.00     0.010 A 
BRANCH  25  29
HETATM   29  O   UNL     1      40.275 -11.699  -3.223  1.00  0.00    -0.353 OA
HETATM   30  C   UNL     1      40.830 -10.392  -3.209  1.00  0.00     0.210 C 
ENDBRANCH  25  29
BRANCH  26  31
HETATM   31  O   UNL     1      39.502 -14.193  -3.365  1.00  0.00    -0.353 OA
HETATM   32  C   UNL     1      38.177 -14.643  -3.611  1.00  0.00     0.210 C 
ENDBRANCH  26  31
ENDBRANCH  22  23
ENDBRANCH  21  22
ENDBRANCH   2  21
BRANCH   5  33
HETATM   33  C   UNL     1      42.897 -17.538   3.260  1.00  0.00     0.047 A 
HETATM   34  C   UNL     1      43.722 -17.996   4.302  1.00  0.00     0.030 A 
HETATM   35  C   UNL     1      44.303 -19.272   4.279  1.00  0.00     0.002 A 
HETATM   36  C   UNL     1      44.078 -20.125   3.208  1.00  0.00     0.000 A 
HETATM   37  C   UNL     1      43.274 -19.699   2.159  1.00  0.00     0.002 A 
HETATM   38  C   UNL     1      42.694 -18.423   2.187  1.00  0.00     0.030 A 
ENDBRANCH   5  33
TORSDOF 10
ENDMDL
MODEL 9
REMARK VINA RESULT:      -8.3      1.906      6.162
REMARK  10 active torsions:
REMARK  status: ('A' for Active; 'I' for Inactive)
REMARK    1  A    between atoms: O_2  and  C_3 
REMARK    2  A    between atoms: C_6  and  N_7 
REMARK       I    between atoms: N_7  and  C_8 
REMARK    3  A    between atoms: C_8  and  C_9 
REMARK    4  A    between atoms: C_9  and  C_10 
REMARK    5  A    between atoms: N_11  and  C_12 
REMARK    6  A    between atoms: C_12  and  C_13 
REMARK    7  A    between atoms: C_13  and  C_14 
REMARK    8  A    between atoms: C_16  and  O_17 
REMARK    9  A    between atoms: C_19  and  O_20 
REMARK   10  A    between atoms: N_26  and  C_27 
ROOT
HETATM    1  C   UNL     1      42.849 -13.919   3.115  1.00  0.00     0.190 C 
HETATM    2  N   UNL     1      42.452 -14.292   4.459  1.00  0.00    -0.319 N 
HETATM    3  C   UNL     1      42.430 -15.676   4.615  1.00  0.00     0.332 C 
HETATM    4  O   UNL     1      41.885 -16.216   5.568  1.00  0.00    -0.246 OA
HETATM    5  N   UNL     1      43.049 -16.256   3.524  1.00  0.00    -0.232 N 
HETATM    6  C   UNL     1      43.324 -15.276   2.590  1.00  0.00     0.256 C 
HETATM    7  O   UNL     1      43.809 -15.400   1.471  1.00  0.00    -0.270 OA
ENDROOT
BRANCH   1   8
HETATM    8  C   UNL     1      41.680 -13.428   2.260  1.00  0.00     0.138 C 
BRANCH   8   9
HETATM    9  C   UNL     1      41.841 -11.976   1.881  1.00  0.00     0.224 C 
HETATM   10  N   UNL     1      41.328 -11.498   0.710  1.00  0.00    -0.327 N 
HETATM   11  H   UNL     1      41.660 -10.554   0.540  1.00  0.00     0.169 HD
HETATM   12  O   UNL     1      42.431 -11.183   2.619  1.00  0.00    -0.273 OA
BRANCH  10  13
HETATM   13  C   UNL     1      40.428 -12.010  -0.243  1.00  0.00     0.034 A 
HETATM   14  C   UNL     1      40.773 -12.794  -1.342  1.00  0.00     0.032 A 
HETATM   15  C   UNL     1      39.782 -13.306  -2.189  1.00  0.00     0.039 A 
HETATM   16  C   UNL     1      38.432 -13.057  -1.950  1.00  0.00     0.068 A 
HETATM   17  C   UNL     1      38.077 -12.265  -0.864  1.00  0.00     0.039 A 
HETATM   18  C   UNL     1      39.069 -11.755  -0.014  1.00  0.00     0.032 A 
BRANCH  16  19
HETATM   19  O   UNL     1      37.574 -13.637  -2.841  1.00  0.00    -0.356 OA
HETATM   20  C   UNL     1      38.092 -14.710  -3.618  1.00  0.00     0.210 C 
ENDBRANCH  16  19
ENDBRANCH  10  13
ENDBRANCH   8   9
ENDBRANCH   1   8
BRANCH   2  21
HETATM   21  C   UNL     1      41.713 -13.390   5.335  1.00  0.00     0.133 C 
BRANCH  21  22
HETATM   22  C   UNL     1      40.189 -13.476   5.188  1.00  0.00     0.058 C 
BRANCH  22  23
HETATM   23  C   UNL     1      39.570 -12.107   5.337  1.00  0.00    -0.054 A 
HETATM   24  C   UNL     1      39.478 -11.488   6.592  1.00  0.00     0.046 A 
HETATM   25  C   UNL     1      38.963 -10.189   6.712  1.00  0.00     0.102 A 
HETATM   26  C   UNL     1      38.541  -9.496   5.559  1.00  0.00     0.101 A 
HETATM   27  C   UNL     1      38.628 -10.119   4.310  1.00  0.00     0.040 A 
HETATM   28  C   UNL     1      39.141 -11.413   4.201  1.00  0.00     0.010 A 
BRANCH  25  29
HETATM   29  O   UNL     1      38.849  -9.507   7.899  1.00  0.00    -0.353 OA
HETATM   30  C   UNL     1      40.041  -9.227   8.617  1.00  0.00     0.210 C 
ENDBRANCH  25  29
BRANCH  26  31
HETATM   31  O   UNL     1      38.062  -8.225   5.759  1.00  0.00    -0.353 OA
HETATM   32  C   UNL     1      38.391  -7.239   4.792  1.00  0.00     0.210 C 
ENDBRANCH  26  31
ENDBRANCH  22  23
ENDBRANCH  21  22
ENDBRANCH   2  21
BRANCH   5  33
HETATM   33  C   UNL     1      43.299 -17.658   3.362  1.00  0.00     0.047 A 
HETATM   34  C   UNL     1      44.018 -18.393   4.321  1.00  0.00     0.030 A 
HETATM   35  C   UNL     1      44.268 -19.764   4.168  1.00  0.00     0.002 A 
HETATM   36  C   UNL     1      43.808 -20.438   3.045  1.00  0.00     0.000 A 
HETATM   37  C   UNL     1      43.101 -19.739   2.076  1.00  0.00     0.002 A 
HETATM   38  C   UNL     1      42.853 -18.368   2.235  1.00  0.00     0.030 A 
ENDBRANCH   5  33
TORSDOF 10
ENDMDL
MODEL 10
REMARK VINA RESULT:      -8.2      2.544      7.444
REMARK  10 active torsions:
REMARK  status: ('A' for Active; 'I' for Inactive)
REMARK    1  A    between atoms: O_2  and  C_3 
REMARK    2  A    between atoms: C_6  and  N_7 
REMARK       I    between atoms: N_7  and  C_8 
REMARK    3  A    between atoms: C_8  and  C_9 
REMARK    4  A    between atoms: C_9  and  C_10 
REMARK    5  A    between atoms: N_11  and  C_12 
REMARK    6  A    between atoms: C_12  and  C_13 
REMARK    7  A    between atoms: C_13  and  C_14 
REMARK    8  A    between atoms: C_16  and  O_17 
REMARK    9  A    between atoms: C_19  and  O_20 
REMARK   10  A    between atoms: N_26  and  C_27 
ROOT
HETATM    1  C   UNL     1      40.982 -11.649   5.883  1.00  0.00     0.190 C 
HETATM    2  N   UNL     1      41.846 -12.813   5.949  1.00  0.00    -0.319 N 
HETATM    3  C   UNL     1      43.072 -12.501   6.532  1.00  0.00     0.332 C 
HETATM    4  O   UNL     1      44.037 -13.249   6.458  1.00  0.00    -0.246 OA
HETATM    5  N   UNL     1      42.984 -11.248   7.107  1.00  0.00    -0.232 N 
HETATM    6  C   UNL     1      41.773 -10.679   6.763  1.00  0.00     0.256 C 
HETATM    7  O   UNL     1      41.353  -9.557   7.025  1.00  0.00    -0.270 OA
ENDROOT
BRANCH   1   8
HETATM    8  C   UNL     1      40.863 -11.071   4.472  1.00  0.00     0.138 C 
BRANCH   8   9
HETATM    9  C   UNL     1      39.434 -10.729   4.131  1.00  0.00     0.224 C 
HETATM   10  N   UNL     1      38.899 -11.080   2.925  1.00  0.00    -0.327 N 
HETATM   11  H   UNL     1      37.994 -10.639   2.800  1.00  0.00     0.169 HD
HETATM   12  O   UNL     1      38.709 -10.131   4.930  1.00  0.00    -0.273 OA
BRANCH  10  13
HETATM   13  C   UNL     1      39.311 -11.937   1.888  1.00  0.00     0.034 A 
HETATM   14  C   UNL     1      39.601 -13.293   2.024  1.00  0.00     0.032 A 
HETATM   15  C   UNL     1      39.938 -14.065   0.906  1.00  0.00     0.039 A 
HETATM   16  C   UNL     1      39.980 -13.504  -0.369  1.00  0.00     0.068 A 
HETATM   17  C   UNL     1      39.705 -12.149  -0.516  1.00  0.00     0.039 A 
HETATM   18  C   UNL     1      39.365 -11.377   0.603  1.00  0.00     0.032 A 
BRANCH  16  19
HETATM   19  O   UNL     1      40.299 -14.377  -1.371  1.00  0.00    -0.356 OA
HETATM   20  C   UNL     1      39.978 -13.970  -2.696  1.00  0.00     0.210 C 
ENDBRANCH  16  19
ENDBRANCH  10  13
ENDBRANCH   8   9
ENDBRANCH   1   8
BRANCH   2  21
HETATM   21  C   UNL     1      41.655 -13.977   5.092  1.00  0.00     0.133 C 
BRANCH  21  22
HETATM   22  C   UNL     1      42.658 -14.080   3.936  1.00  0.00     0.058 C 
BRANCH  22  23
HETATM   23  C   UNL     1      43.026 -15.524   3.689  1.00  0.00    -0.054 A 
HETATM   24  C   UNL     1      43.416 -16.360   4.745  1.00  0.00     0.046 A 
HETATM   25  C   UNL     1      43.692 -17.716   4.518  1.00  0.00     0.102 A 
HETATM   26  C   UNL     1      43.567 -18.246   3.217  1.00  0.00     0.101 A 
HETATM   27  C   UNL     1      43.184 -17.407   2.166  1.00  0.00     0.040 A 
HETATM   28  C   UNL     1      42.914 -16.058   2.402  1.00  0.00     0.010 A 
BRANCH  25  29
HETATM   29  O   UNL     1      44.068 -18.605   5.495  1.00  0.00    -0.353 OA
HETATM   30  C   UNL     1      43.383 -18.551   6.737  1.00  0.00     0.210 C 
ENDBRANCH  25  29
BRANCH  26  31
HETATM   31  O   UNL     1      43.841 -19.584   3.080  1.00  0.00    -0.353 OA
HETATM   32  C   UNL     1      43.443 -20.216   1.871  1.00  0.00     0.210 C 
ENDBRANCH  26  31
ENDBRANCH  22  23
ENDBRANCH  21  22
ENDBRANCH   2  21
BRANCH   5  33
HETATM   33  C   UNL     1      44.016 -10.616   7.876  1.00  0.00     0.047 A 
HETATM   34  C   UNL     1      45.181 -10.112   7.271  1.00  0.00     0.030 A 
HETATM   35  C   UNL     1      46.195  -9.496   8.018  1.00  0.00     0.002 A 
HETATM   36  C   UNL     1      46.073  -9.372   9.395  1.00  0.00     0.000 A 
HETATM   37  C   UNL     1      44.938  -9.867  10.023  1.00  0.00     0.002 A 
HETATM   38  C   UNL     1      43.926 -10.481   9.272  1.00  0.00     0.030 A 
ENDBRANCH   5  33
TORSDOF 10
ENDMDL
