MODEL 1
REMARK VINA RESULT:      -8.6      0.000      0.000
REMARK  4 active torsions:
REMARK  status: ('A' for Active; 'I' for Inactive)
REMARK    1  A    between atoms: O_2  and  C_3 
REMARK    2  A    between atoms: C_4  and  O_5 
REMARK    3  A    between atoms: C_9  and  C_10 
REMARK    4  A    between atoms: C_10  and  N_11 
ROOT
HETATM    1  N   UNL     1      42.381 -14.719   1.293  1.00  0.00    -0.066 N 
HETATM    2  H   UNL     1      42.485 -14.425   0.309  1.00  0.00     0.280 HD
HETATM    3  C   UNL     1      41.099 -15.530   1.353  1.00  0.00     0.246 C 
HETATM    4  C   UNL     1      39.868 -14.646   1.065  1.00  0.00     0.062 C 
HETATM    5  C   UNL     1      39.803 -13.523   2.094  1.00  0.00     0.020 C 
HETATM    6  C   UNL     1      41.041 -12.655   1.915  1.00  0.00     0.031 C 
HETATM    7  C   UNL     1      41.007 -12.006   0.533  1.00  0.00     0.138 C 
HETATM    8  N   UNL     1      40.613 -12.885  -0.568  1.00  0.00    -0.317 N 
HETATM    9  C   UNL     1      39.928 -14.083  -0.346  1.00  0.00     0.020 A 
HETATM   10  C   UNL     1      39.353 -14.726  -1.377  1.00  0.00     0.026 A 
HETATM   11  C   UNL     1      40.726 -12.316  -1.849  1.00  0.00     0.247 A 
HETATM   12  O   UNL     1      41.316 -11.265  -2.076  1.00  0.00    -0.268 OA
HETATM   13  C   UNL     1      40.087 -13.058  -2.961  1.00  0.00     0.074 A 
HETATM   14  C   UNL     1      39.431 -14.196  -2.714  1.00  0.00     0.007 A 
HETATM   15  C   UNL     1      42.320 -13.464   2.141  1.00  0.00     0.241 C 
ENDROOT
BRANCH   1  16
HETATM   16  C   UNL     1      43.633 -15.503   1.642  1.00  0.00     0.273 C 
BRANCH  16  17
HETATM   17  C   UNL     1      43.520 -16.489   2.772  1.00  0.00    -0.028 A 
HETATM   18  C   UNL     1      43.341 -16.027   4.089  1.00  0.00     0.031 A 
HETATM   19  C   UNL     1      43.328 -16.919   5.165  1.00  0.00     0.047 A 
HETATM   20  C   UNL     1      43.503 -18.284   4.942  1.00  0.00     0.116 A 
HETATM   21 BR   UNL     1      43.126 -16.213   6.912  1.00  0.00    -0.048 Br
HETATM   22  C   UNL     1      43.619 -18.759   3.634  1.00  0.00     0.103 A 
HETATM   23  C   UNL     1      43.643 -17.868   2.554  1.00  0.00     0.048 A 
BRANCH  20  24
HETATM   24  O   UNL     1      43.612 -19.136   6.003  1.00  0.00    -0.357 OA
HETATM   25  H   UNL     1      44.398 -19.691   5.852  1.00  0.00     0.218 HD
ENDBRANCH  20  24
BRANCH  22  26
HETATM   26  O   UNL     1      43.812 -20.085   3.345  1.00  0.00    -0.353 OA
HETATM   27  C   UNL     1      43.574 -20.389   1.967  1.00  0.00     0.210 C 
ENDBRANCH  22  26
ENDBRANCH  16  17
ENDBRANCH   1  16
TORSDOF 4
ENDMDL
MODEL 2
REMARK VINA RESULT:      -8.0      1.397      2.268
REMARK  4 active torsions:
REMARK  status: ('A' for Active; 'I' for Inactive)
REMARK    1  A    between atoms: O_2  and  C_3 
REMARK    2  A    between atoms: C_4  and  O_5 
REMARK    3  A    between atoms: C_9  and  C_10 
REMARK    4  A    between atoms: C_10  and  N_11 
ROOT
HETATM    1  N   UNL     1      42.377 -14.965   1.329  1.00  0.00    -0.066 N 
HETATM    2  H   UNL     1      42.475 -14.656   0.349  1.00  0.00     0.280 HD
HETATM    3  C   UNL     1      41.072 -15.740   1.394  1.00  0.00     0.246 C 
HETATM    4  C   UNL     1      39.863 -14.815   1.140  1.00  0.00     0.062 C 
HETATM    5  C   UNL     1      39.846 -13.709   2.189  1.00  0.00     0.020 C 
HETATM    6  C   UNL     1      41.107 -12.875   2.007  1.00  0.00     0.031 C 
HETATM    7  C   UNL     1      41.073 -12.200   0.637  1.00  0.00     0.138 C 
HETATM    8  N   UNL     1      40.637 -13.047  -0.473  1.00  0.00    -0.317 N 
HETATM    9  C   UNL     1      39.920 -14.228  -0.261  1.00  0.00     0.020 A 
HETATM   10  C   UNL     1      39.312 -14.835  -1.296  1.00  0.00     0.026 A 
HETATM   11  C   UNL     1      40.748 -12.458  -1.745  1.00  0.00     0.247 A 
HETATM   12  O   UNL     1      41.366 -11.421  -1.962  1.00  0.00    -0.268 OA
HETATM   13  C   UNL     1      40.072 -13.161  -2.860  1.00  0.00     0.074 A 
HETATM   14  C   UNL     1      39.386 -14.284  -2.623  1.00  0.00     0.007 A 
HETATM   15  C   UNL     1      42.364 -13.725   2.200  1.00  0.00     0.241 C 
ENDROOT
BRANCH   1  16
HETATM   16  C   UNL     1      43.609 -15.792   1.646  1.00  0.00     0.273 C 
BRANCH  16  17
HETATM   17  C   UNL     1      43.610 -16.530   2.957  1.00  0.00    -0.028 A 
HETATM   18  C   UNL     1      43.818 -17.921   2.977  1.00  0.00     0.031 A 
HETATM   19  C   UNL     1      43.730 -18.641   4.172  1.00  0.00     0.047 A 
HETATM   20  C   UNL     1      43.422 -17.983   5.361  1.00  0.00     0.116 A 
HETATM   21 BR   UNL     1      43.981 -20.518   4.106  1.00  0.00    -0.048 Br
HETATM   22  C   UNL     1      43.274 -16.594   5.363  1.00  0.00     0.103 A 
HETATM   23  C   UNL     1      43.352 -15.871   4.167  1.00  0.00     0.048 A 
BRANCH  20  24
HETATM   24  O   UNL     1      43.216 -18.706   6.502  1.00  0.00    -0.357 OA
HETATM   25  H   UNL     1      43.574 -18.187   7.244  1.00  0.00     0.218 HD
ENDBRANCH  20  24
BRANCH  22  26
HETATM   26  O   UNL     1      42.953 -15.889   6.492  1.00  0.00    -0.353 OA
HETATM   27  C   UNL     1      41.544 -15.678   6.629  1.00  0.00     0.210 C 
ENDBRANCH  22  26
ENDBRANCH  16  17
ENDBRANCH   1  16
TORSDOF 4
ENDMDL
MODEL 3
REMARK VINA RESULT:      -7.9      3.727      5.648
REMARK  4 active torsions:
REMARK  status: ('A' for Active; 'I' for Inactive)
REMARK    1  A    between atoms: O_2  and  C_3 
REMARK    2  A    between atoms: C_4  and  O_5 
REMARK    3  A    between atoms: C_9  and  C_10 
REMARK    4  A    between atoms: C_10  and  N_11 
ROOT
HETATM    1  N   UNL     1      42.016 -14.349   3.312  1.00  0.00    -0.066 N 
HETATM    2  H   UNL     1      42.750 -14.447   4.032  1.00  0.00     0.280 HD
HETATM    3  C   UNL     1      42.363 -13.094   2.532  1.00  0.00     0.246 C 
HETATM    4  C   UNL     1      42.231 -11.836   3.416  1.00  0.00     0.062 C 
HETATM    5  C   UNL     1      40.800 -11.731   3.931  1.00  0.00     0.020 C 
HETATM    6  C   UNL     1      40.533 -12.941   4.816  1.00  0.00     0.031 C 
HETATM    7  C   UNL     1      41.457 -12.892   6.031  1.00  0.00     0.138 C 
HETATM    8  N   UNL     1      42.847 -12.531   5.753  1.00  0.00    -0.317 N 
HETATM    9  C   UNL     1      43.218 -11.884   4.570  1.00  0.00     0.020 A 
HETATM   10  C   UNL     1      44.441 -11.334   4.464  1.00  0.00     0.026 A 
HETATM   11  C   UNL     1      43.716 -12.630   6.854  1.00  0.00     0.247 A 
HETATM   12  O   UNL     1      43.419 -13.188   7.906  1.00  0.00    -0.268 OA
HETATM   13  C   UNL     1      45.056 -12.020   6.696  1.00  0.00     0.074 A 
HETATM   14  C   UNL     1      45.378 -11.400   5.555  1.00  0.00     0.007 A 
HETATM   15  C   UNL     1      40.685 -14.244   4.029  1.00  0.00     0.241 C 
ENDROOT
BRANCH   1  16
HETATM   16  C   UNL     1      42.047 -15.624   2.490  1.00  0.00     0.273 C 
BRANCH  16  17
HETATM   17  C   UNL     1      42.777 -16.797   3.085  1.00  0.00    -0.028 A 
HETATM   18  C   UNL     1      43.008 -17.946   2.308  1.00  0.00     0.031 A 
HETATM   19  C   UNL     1      43.600 -19.082   2.868  1.00  0.00     0.047 A 
HETATM   20  C   UNL     1      43.960 -19.089   4.214  1.00  0.00     0.116 A 
HETATM   21 BR   UNL     1      43.836 -20.604   1.764  1.00  0.00    -0.048 Br
HETATM   22  C   UNL     1      43.792 -17.932   4.979  1.00  0.00     0.103 A 
HETATM   23  C   UNL     1      43.191 -16.796   4.425  1.00  0.00     0.048 A 
BRANCH  20  24
HETATM   24  O   UNL     1      44.425 -20.239   4.786  1.00  0.00    -0.357 OA
HETATM   25  H   UNL     1      44.148 -20.233   5.720  1.00  0.00     0.218 HD
ENDBRANCH  20  24
BRANCH  22  26
HETATM   26  O   UNL     1      44.108 -17.877   6.311  1.00  0.00    -0.353 OA
HETATM   27  C   UNL     1      44.497 -16.565   6.731  1.00  0.00     0.210 C 
ENDBRANCH  22  26
ENDBRANCH  16  17
ENDBRANCH   1  16
TORSDOF 4
ENDMDL
MODEL 4
REMARK VINA RESULT:      -7.7      4.882      7.031
REMARK  4 active torsions:
REMARK  status: ('A' for Active; 'I' for Inactive)
REMARK    1  A    between atoms: O_2  and  C_3 
REMARK    2  A    between atoms: C_4  and  O_5 
REMARK    3  A    between atoms: C_9  and  C_10 
REMARK    4  A    between atoms: C_10  and  N_11 
ROOT
HETATM    1  N   UNL     1      42.065 -13.181   6.242  1.00  0.00    -0.066 N 
HETATM    2  H   UNL     1      42.480 -12.933   7.154  1.00  0.00     0.280 HD
HETATM    3  C   UNL     1      43.193 -13.082   5.230  1.00  0.00     0.246 C 
HETATM    4  C   UNL     1      43.671 -11.623   5.072  1.00  0.00     0.062 C 
HETATM    5  C   UNL     1      42.504 -10.757   4.613  1.00  0.00     0.020 C 
HETATM    6  C   UNL     1      41.450 -10.776   5.711  1.00  0.00     0.031 C 
HETATM    7  C   UNL     1      42.023 -10.133   6.973  1.00  0.00     0.138 C 
HETATM    8  N   UNL     1      43.388 -10.527   7.318  1.00  0.00    -0.317 N 
HETATM    9  C   UNL     1      44.249 -11.103   6.378  1.00  0.00     0.020 A 
HETATM   10  C   UNL     1      45.562 -11.205   6.649  1.00  0.00     0.026 A 
HETATM   11  C   UNL     1      43.849 -10.041   8.554  1.00  0.00     0.247 A 
HETATM   12  O   UNL     1      43.121  -9.528   9.397  1.00  0.00    -0.268 OA
HETATM   13  C   UNL     1      45.301 -10.180   8.819  1.00  0.00     0.074 A 
HETATM   14  C   UNL     1      46.099 -10.727   7.896  1.00  0.00     0.007 A 
HETATM   15  C   UNL     1      40.944 -12.197   5.967  1.00  0.00     0.241 C 
ENDROOT
BRANCH   1  16
HETATM   16  C   UNL     1      41.485 -14.575   6.396  1.00  0.00     0.273 C 
BRANCH  16  17
HETATM   17  C   UNL     1      41.716 -15.533   5.260  1.00  0.00    -0.028 A 
HETATM   18  C   UNL     1      42.713 -16.519   5.367  1.00  0.00     0.031 A 
HETATM   19  C   UNL     1      43.009 -17.359   4.289  1.00  0.00     0.047 A 
HETATM   20  C   UNL     1      42.320 -17.217   3.086  1.00  0.00     0.116 A 
HETATM   21 BR   UNL     1      44.396 -18.633   4.501  1.00  0.00    -0.048 Br
HETATM   22  C   UNL     1      41.287 -16.283   2.988  1.00  0.00     0.103 A 
HETATM   23  C   UNL     1      40.994 -15.434   4.062  1.00  0.00     0.048 A 
BRANCH  20  24
HETATM   24  O   UNL     1      42.695 -17.955   1.999  1.00  0.00    -0.357 OA
HETATM   25  H   UNL     1      42.221 -18.806   2.047  1.00  0.00     0.218 HD
ENDBRANCH  20  24
BRANCH  22  26
HETATM   26  O   UNL     1      40.582 -16.080   1.831  1.00  0.00    -0.353 OA
HETATM   27  C   UNL     1      41.033 -14.932   1.105  1.00  0.00     0.210 C 
ENDBRANCH  22  26
ENDBRANCH  16  17
ENDBRANCH   1  16
TORSDOF 4
ENDMDL
MODEL 5
REMARK VINA RESULT:      -7.7      5.102      7.181
REMARK  4 active torsions:
REMARK  status: ('A' for Active; 'I' for Inactive)
REMARK    1  A    between atoms: O_2  and  C_3 
REMARK    2  A    between atoms: C_4  and  O_5 
REMARK    3  A    between atoms: C_9  and  C_10 
REMARK    4  A    between atoms: C_10  and  N_11 
ROOT
HETATM    1  N   UNL     1      42.209 -13.087   6.412  1.00  0.00    -0.066 N 
HETATM    2  H   UNL     1      42.494 -12.830   7.371  1.00  0.00     0.280 HD
HETATM    3  C   UNL     1      43.435 -12.875   5.542  1.00  0.00     0.246 C 
HETATM    4  C   UNL     1      43.811 -11.381   5.465  1.00  0.00     0.062 C 
HETATM    5  C   UNL     1      42.640 -10.596   4.885  1.00  0.00     0.020 C 
HETATM    6  C   UNL     1      41.470 -10.724   5.851  1.00  0.00     0.031 C 
HETATM    7  C   UNL     1      41.838 -10.070   7.180  1.00  0.00     0.138 C 
HETATM    8  N   UNL     1      43.182 -10.365   7.678  1.00  0.00    -0.317 N 
HETATM    9  C   UNL     1      44.189 -10.850   6.838  1.00  0.00     0.020 A 
HETATM   10  C   UNL     1      45.466 -10.857   7.260  1.00  0.00     0.026 A 
HETATM   11  C   UNL     1      43.455  -9.877   8.968  1.00  0.00     0.247 A 
HETATM   12  O   UNL     1      42.595  -9.443   9.727  1.00  0.00    -0.268 OA
HETATM   13  C   UNL     1      44.872  -9.909   9.400  1.00  0.00     0.074 A 
HETATM   14  C   UNL     1      45.813 -10.370   8.570  1.00  0.00     0.007 A 
HETATM   15  C   UNL     1      41.053 -12.186   6.023  1.00  0.00     0.241 C 
ENDROOT
BRANCH   1  16
HETATM   16  C   UNL     1      41.729 -14.525   6.475  1.00  0.00     0.273 C 
BRANCH  16  17
HETATM   17  C   UNL     1      42.022 -15.389   5.279  1.00  0.00    -0.028 A 
HETATM   18  C   UNL     1      41.198 -15.312   4.142  1.00  0.00     0.031 A 
HETATM   19  C   UNL     1      41.394 -16.171   3.056  1.00  0.00     0.047 A 
HETATM   20  C   UNL     1      42.409 -17.125   3.097  1.00  0.00     0.116 A 
HETATM   21 BR   UNL     1      40.213 -16.033   1.581  1.00  0.00    -0.048 Br
HETATM   22  C   UNL     1      43.271 -17.169   4.195  1.00  0.00     0.103 A 
HETATM   23  C   UNL     1      43.072 -16.317   5.287  1.00  0.00     0.048 A 
BRANCH  20  24
HETATM   24  O   UNL     1      42.519 -18.041   2.090  1.00  0.00    -0.357 OA
HETATM   25  H   UNL     1      43.023 -17.622   1.369  1.00  0.00     0.218 HD
ENDBRANCH  20  24
BRANCH  22  26
HETATM   26  O   UNL     1      44.276 -18.093   4.307  1.00  0.00    -0.353 OA
HETATM   27  C   UNL     1      43.955 -19.150   5.216  1.00  0.00     0.210 C 
ENDBRANCH  22  26
ENDBRANCH  16  17
ENDBRANCH   1  16
TORSDOF 4
ENDMDL
MODEL 6
REMARK VINA RESULT:      -7.6      4.329      7.270
REMARK  4 active torsions:
REMARK  status: ('A' for Active; 'I' for Inactive)
REMARK    1  A    between atoms: O_2  and  C_3 
REMARK    2  A    between atoms: C_4  and  O_5 
REMARK    3  A    between atoms: C_9  and  C_10 
REMARK    4  A    between atoms: C_10  and  N_11 
ROOT
HETATM    1  N   UNL     1      42.721 -14.021   3.579  1.00  0.00    -0.066 N 
HETATM    2  H   UNL     1      43.490 -14.677   3.784  1.00  0.00     0.280 HD
HETATM    3  C   UNL     1      41.697 -14.219   4.683  1.00  0.00     0.246 C 
HETATM    4  C   UNL     1      41.061 -15.622   4.605  1.00  0.00     0.062 C 
HETATM    5  C   UNL     1      40.381 -15.793   3.251  1.00  0.00     0.020 C 
HETATM    6  C   UNL     1      41.458 -15.719   2.177  1.00  0.00     0.031 C 
HETATM    7  C   UNL     1      42.425 -16.889   2.350  1.00  0.00     0.138 C 
HETATM    8  N   UNL     1      42.837 -17.170   3.725  1.00  0.00    -0.317 N 
HETATM    9  C   UNL     1      42.109 -16.701   4.823  1.00  0.00     0.020 A 
HETATM   10  C   UNL     1      42.358 -17.193   6.049  1.00  0.00     0.026 A 
HETATM   11  C   UNL     1      43.834 -18.152   3.854  1.00  0.00     0.247 A 
HETATM   12  O   UNL     1      44.487 -18.586   2.911  1.00  0.00    -0.268 OA
HETATM   13  C   UNL     1      44.085 -18.663   5.222  1.00  0.00     0.074 A 
HETATM   14  C   UNL     1      43.366 -18.201   6.250  1.00  0.00     0.007 A 
HETATM   15  C   UNL     1      42.176 -14.368   2.208  1.00  0.00     0.241 C 
ENDROOT
BRANCH   1  16
HETATM   16  C   UNL     1      43.336 -12.634   3.540  1.00  0.00     0.273 C 
BRANCH  16  17
HETATM   17  C   UNL     1      43.244 -11.818   4.801  1.00  0.00    -0.028 A 
HETATM   18  C   UNL     1      42.269 -10.811   4.913  1.00  0.00     0.031 A 
HETATM   19  C   UNL     1      42.225  -9.978   6.035  1.00  0.00     0.047 A 
HETATM   20  C   UNL     1      43.162 -10.133   7.055  1.00  0.00     0.116 A 
HETATM   21 BR   UNL     1      40.906  -8.619   6.090  1.00  0.00    -0.048 Br
HETATM   22  C   UNL     1      44.096 -11.168   6.982  1.00  0.00     0.103 A 
HETATM   23  C   UNL     1      44.149 -11.998   5.856  1.00  0.00     0.048 A 
BRANCH  20  24
HETATM   24  O   UNL     1      43.192  -9.241   8.089  1.00  0.00    -0.357 OA
HETATM   25  H   UNL     1      42.737  -8.433   7.790  1.00  0.00     0.218 HD
ENDBRANCH  20  24
BRANCH  22  26
HETATM   26  O   UNL     1      45.056 -11.365   7.940  1.00  0.00    -0.353 OA
HETATM   27  C   UNL     1      46.299 -10.736   7.613  1.00  0.00     0.210 C 
ENDBRANCH  22  26
ENDBRANCH  16  17
ENDBRANCH   1  16
TORSDOF 4
ENDMDL
MODEL 7
REMARK VINA RESULT:      -7.5      5.358      7.686
REMARK  4 active torsions:
REMARK  status: ('A' for Active; 'I' for Inactive)
REMARK    1  A    between atoms: O_2  and  C_3 
REMARK    2  A    between atoms: C_4  and  O_5 
REMARK    3  A    between atoms: C_9  and  C_10 
REMARK    4  A    between atoms: C_10  and  N_11 
ROOT
HETATM    1  N   UNL     1      43.111 -13.734   5.487  1.00  0.00    -0.066 N 
HETATM    2  H   UNL     1      43.175 -14.095   4.522  1.00  0.00     0.280 HD
HETATM    3  C   UNL     1      43.791 -14.769   6.366  1.00  0.00     0.246 C 
HETATM    4  C   UNL     1      43.001 -16.094   6.378  1.00  0.00     0.062 C 
HETATM    5  C   UNL     1      41.593 -15.835   6.901  1.00  0.00     0.020 C 
HETATM    6  C   UNL     1      40.898 -14.897   5.924  1.00  0.00     0.031 C 
HETATM    7  C   UNL     1      40.758 -15.591   4.571  1.00  0.00     0.138 C 
HETATM    8  N   UNL     1      41.940 -16.319   4.109  1.00  0.00    -0.317 N 
HETATM    9  C   UNL     1      42.957 -16.706   4.988  1.00  0.00     0.020 A 
HETATM   10  C   UNL     1      43.885 -17.593   4.587  1.00  0.00     0.026 A 
HETATM   11  C   UNL     1      41.847 -16.830   2.803  1.00  0.00     0.247 A 
HETATM   12  O   UNL     1      40.966 -16.513   2.010  1.00  0.00    -0.268 OA
HETATM   13  C   UNL     1      42.893 -17.797   2.396  1.00  0.00     0.074 A 
HETATM   14  C   UNL     1      43.847 -18.154   3.262  1.00  0.00     0.007 A 
HETATM   15  C   UNL     1      41.640 -13.564   5.814  1.00  0.00     0.241 C 
ENDROOT
BRANCH   1  16
HETATM   16  C   UNL     1      43.786 -12.375   5.485  1.00  0.00     0.273 C 
BRANCH  16  17
HETATM   17  C   UNL     1      43.405 -11.428   6.589  1.00  0.00    -0.028 A 
HETATM   18  C   UNL     1      42.499 -10.383   6.333  1.00  0.00     0.031 A 
HETATM   19  C   UNL     1      42.202  -9.435   7.317  1.00  0.00     0.047 A 
HETATM   20  C   UNL     1      42.814  -9.512   8.566  1.00  0.00     0.116 A 
HETATM   21 BR   UNL     1      41.005  -8.033   6.877  1.00  0.00    -0.048 Br
HETATM   22  C   UNL     1      43.667 -10.581   8.852  1.00  0.00     0.103 A 
HETATM   23  C   UNL     1      43.974 -11.526   7.866  1.00  0.00     0.048 A 
BRANCH  20  24
HETATM   24  O   UNL     1      42.615  -8.518   9.481  1.00  0.00    -0.357 OA
HETATM   25  H   UNL     1      41.653  -8.415   9.596  1.00  0.00     0.218 HD
ENDBRANCH  20  24
BRANCH  22  26
HETATM   26  O   UNL     1      44.315 -10.707  10.052  1.00  0.00    -0.353 OA
HETATM   27  C   UNL     1      45.526  -9.947  10.108  1.00  0.00     0.210 C 
ENDBRANCH  22  26
ENDBRANCH  16  17
ENDBRANCH   1  16
TORSDOF 4
ENDMDL
MODEL 8
REMARK VINA RESULT:      -7.4      3.359      7.542
REMARK  4 active torsions:
REMARK  status: ('A' for Active; 'I' for Inactive)
REMARK    1  A    between atoms: O_2  and  C_3 
REMARK    2  A    between atoms: C_4  and  O_5 
REMARK    3  A    between atoms: C_9  and  C_10 
REMARK    4  A    between atoms: C_10  and  N_11 
ROOT
HETATM    1  N   UNL     1      40.573 -13.935   2.144  1.00  0.00    -0.066 N 
HETATM    2  H   UNL     1      40.719 -13.605   3.111  1.00  0.00     0.280 HD
HETATM    3  C   UNL     1      39.928 -15.305   2.264  1.00  0.00     0.246 C 
HETATM    4  C   UNL     1      40.900 -16.323   2.896  1.00  0.00     0.062 C 
HETATM    5  C   UNL     1      42.151 -16.429   2.031  1.00  0.00     0.020 C 
HETATM    6  C   UNL     1      42.840 -15.071   2.043  1.00  0.00     0.031 C 
HETATM    7  C   UNL     1      43.297 -14.749   3.464  1.00  0.00     0.138 C 
HETATM    8  N   UNL     1      42.329 -15.042   4.520  1.00  0.00    -0.317 N 
HETATM    9  C   UNL     1      41.257 -15.916   4.316  1.00  0.00     0.020 A 
HETATM   10  C   UNL     1      40.551 -16.365   5.368  1.00  0.00     0.026 A 
HETATM   11  C   UNL     1      42.705 -14.608   5.804  1.00  0.00     0.247 A 
HETATM   12  O   UNL     1      43.641 -13.845   6.017  1.00  0.00    -0.268 OA
HETATM   13  C   UNL     1      41.897 -15.118   6.936  1.00  0.00     0.074 A 
HETATM   14  C   UNL     1      40.884 -15.960   6.709  1.00  0.00     0.007 A 
HETATM   15  C   UNL     1      41.929 -13.984   1.469  1.00  0.00     0.241 C 
ENDROOT
BRANCH   1  16
HETATM   16  C   UNL     1      39.706 -12.895   1.459  1.00  0.00     0.273 C 
BRANCH  16  17
HETATM   17  C   UNL     1      40.138 -12.451   0.089  1.00  0.00    -0.028 A 
HETATM   18  C   UNL     1      40.816 -11.229  -0.070  1.00  0.00     0.031 A 
HETATM   19  C   UNL     1      41.144 -10.751  -1.343  1.00  0.00     0.047 A 
HETATM   20  C   UNL     1      40.789 -11.483  -2.474  1.00  0.00     0.116 A 
HETATM   21 BR   UNL     1      42.019  -9.076  -1.472  1.00  0.00    -0.048 Br
HETATM   22  C   UNL     1      40.171 -12.727  -2.326  1.00  0.00     0.103 A 
HETATM   23  C   UNL     1      39.833 -13.204  -1.054  1.00  0.00     0.048 A 
BRANCH  20  24
HETATM   24  O   UNL     1      41.002 -10.956  -3.716  1.00  0.00    -0.357 OA
HETATM   25  H   UNL     1      40.145 -10.953  -4.182  1.00  0.00     0.218 HD
ENDBRANCH  20  24
BRANCH  22  26
HETATM   26  O   UNL     1      39.780 -13.488  -3.395  1.00  0.00    -0.353 OA
HETATM   27  C   UNL     1      38.872 -14.532  -3.027  1.00  0.00     0.210 C 
ENDBRANCH  22  26
ENDBRANCH  16  17
ENDBRANCH   1  16
TORSDOF 4
ENDMDL
MODEL 9
REMARK VINA RESULT:      -7.4      2.646      4.383
REMARK  4 active torsions:
REMARK  status: ('A' for Active; 'I' for Inactive)
REMARK    1  A    between atoms: O_2  and  C_3 
REMARK    2  A    between atoms: C_4  and  O_5 
REMARK    3  A    between atoms: C_9  and  C_10 
REMARK    4  A    between atoms: C_10  and  N_11 
ROOT
HETATM    1  N   UNL     1      41.458 -13.993   2.079  1.00  0.00    -0.066 N 
HETATM    2  H   UNL     1      41.618 -13.958   3.097  1.00  0.00     0.280 HD
HETATM    3  C   UNL     1      42.063 -12.717   1.518  1.00  0.00     0.246 C 
HETATM    4  C   UNL     1      41.289 -11.475   2.005  1.00  0.00     0.062 C 
HETATM    5  C   UNL     1      39.835 -11.581   1.563  1.00  0.00     0.020 C 
HETATM    6  C   UNL     1      39.226 -12.796   2.249  1.00  0.00     0.031 C 
HETATM    7  C   UNL     1      39.225 -12.575   3.760  1.00  0.00     0.138 C 
HETATM    8  N   UNL     1      40.453 -12.009   4.316  1.00  0.00    -0.317 N 
HETATM    9  C   UNL     1      41.385 -11.341   3.517  1.00  0.00     0.020 A 
HETATM   10  C   UNL     1      42.357 -10.610   4.091  1.00  0.00     0.026 A 
HETATM   11  C   UNL     1      40.492 -11.946   5.720  1.00  0.00     0.247 A 
HETATM   12  O   UNL     1      39.688 -12.517   6.449  1.00  0.00    -0.268 OA
HETATM   13  C   UNL     1      41.583 -11.139   6.316  1.00  0.00     0.074 A 
HETATM   14  C   UNL     1      42.453 -10.504   5.523  1.00  0.00     0.007 A 
HETATM   15  C   UNL     1      39.961 -14.078   1.854  1.00  0.00     0.241 C 
ENDROOT
BRANCH   1  16
HETATM   16  C   UNL     1      42.116 -15.267   1.581  1.00  0.00     0.273 C 
BRANCH  16  17
HETATM   17  C   UNL     1      42.539 -16.262   2.627  1.00  0.00    -0.028 A 
HETATM   18  C   UNL     1      42.400 -15.947   3.990  1.00  0.00     0.031 A 
HETATM   19  C   UNL     1      42.872 -16.816   4.978  1.00  0.00     0.047 A 
HETATM   20  C   UNL     1      43.499 -18.007   4.617  1.00  0.00     0.116 A 
HETATM   21 BR   UNL     1      42.685 -16.297   6.791  1.00  0.00    -0.048 Br
HETATM   22  C   UNL     1      43.587 -18.359   3.268  1.00  0.00     0.103 A 
HETATM   23  C   UNL     1      43.124 -17.487   2.276  1.00  0.00     0.048 A 
BRANCH  20  24
HETATM   24  O   UNL     1      44.067 -18.793   5.579  1.00  0.00    -0.357 OA
HETATM   25  H   UNL     1      43.748 -19.703   5.438  1.00  0.00     0.218 HD
ENDBRANCH  20  24
BRANCH  22  26
HETATM   26  O   UNL     1      44.206 -19.505   2.844  1.00  0.00    -0.353 OA
HETATM   27  C   UNL     1      43.402 -20.261   1.933  1.00  0.00     0.210 C 
ENDBRANCH  22  26
ENDBRANCH  16  17
ENDBRANCH   1  16
TORSDOF 4
ENDMDL
MODEL 10
REMARK VINA RESULT:      -7.4      3.866      7.265
REMARK  4 active torsions:
REMARK  status: ('A' for Active; 'I' for Inactive)
REMARK    1  A    between atoms: O_2  and  C_3 
REMARK    2  A    between atoms: C_4  and  O_5 
REMARK    3  A    between atoms: C_9  and  C_10 
REMARK    4  A    between atoms: C_10  and  N_11 
ROOT
HETATM    1  N   UNL     1      42.667 -14.060   3.237  1.00  0.00    -0.066 N 
HETATM    2  H   UNL     1      43.438 -14.693   3.500  1.00  0.00     0.280 HD
HETATM    3  C   UNL     1      41.655 -14.143   4.366  1.00  0.00     0.246 C 
HETATM    4  C   UNL     1      41.018 -15.546   4.439  1.00  0.00     0.062 C 
HETATM    5  C   UNL     1      40.324 -15.854   3.117  1.00  0.00     0.020 C 
HETATM    6  C   UNL     1      41.390 -15.892   2.030  1.00  0.00     0.031 C 
HETATM    7  C   UNL     1      42.358 -17.039   2.311  1.00  0.00     0.138 C 
HETATM    8  N   UNL     1      42.784 -17.178   3.703  1.00  0.00    -0.317 N 
HETATM    9  C   UNL     1      42.068 -16.598   4.755  1.00  0.00     0.020 A 
HETATM   10  C   UNL     1      42.330 -16.963   6.023  1.00  0.00     0.026 A 
HETATM   11  C   UNL     1      43.783 -18.143   3.922  1.00  0.00     0.247 A 
HETATM   12  O   UNL     1      44.426 -18.673   3.022  1.00  0.00    -0.268 OA
HETATM   13  C   UNL     1      44.049 -18.511   5.333  1.00  0.00     0.074 A 
HETATM   14  C   UNL     1      43.340 -17.946   6.315  1.00  0.00     0.007 A 
HETATM   15  C   UNL     1      42.108 -14.546   1.914  1.00  0.00     0.241 C 
ENDROOT
BRANCH   1  16
HETATM   16  C   UNL     1      43.282 -12.686   3.050  1.00  0.00     0.273 C 
BRANCH  16  17
HETATM   17  C   UNL     1      43.143 -11.721   4.195  1.00  0.00    -0.028 A 
HETATM   18  C   UNL     1      44.086 -11.734   5.239  1.00  0.00     0.031 A 
HETATM   19  C   UNL     1      43.926 -10.912   6.359  1.00  0.00     0.047 A 
HETATM   20  C   UNL     1      42.816 -10.075   6.456  1.00  0.00     0.116 A 
HETATM   21 BR   UNL     1      45.217 -11.021   7.742  1.00  0.00    -0.048 Br
HETATM   22  C   UNL     1      41.907 -10.009   5.398  1.00  0.00     0.103 A 
HETATM   23  C   UNL     1      42.059 -10.836   4.279  1.00  0.00     0.048 A 
BRANCH  20  24
HETATM   24  O   UNL     1      42.600  -9.366   7.604  1.00  0.00    -0.357 OA
HETATM   25  H   UNL     1      43.320  -8.716   7.685  1.00  0.00     0.218 HD
ENDBRANCH  20  24
BRANCH  22  26
HETATM   26  O   UNL     1      40.786  -9.221   5.436  1.00  0.00    -0.353 OA
HETATM   27  C   UNL     1      39.601  -9.963   5.744  1.00  0.00     0.210 C 
ENDBRANCH  22  26
ENDBRANCH  16  17
ENDBRANCH   1  16
TORSDOF 4
ENDMDL
