MODEL 1
REMARK VINA RESULT:     -10.3      0.000      0.000
REMARK  8 active torsions:
REMARK  status: ('A' for Active; 'I' for Inactive)
REMARK    1  A    between atoms: C_4  and  N_5 
REMARK       I    between atoms: N_5  and  C_6 
REMARK    2  A    between atoms: C_6  and  C_7 
REMARK    3  A    between atoms: C_10  and  N_11 
REMARK       I    between atoms: N_11  and  C_12 
REMARK       I    between atoms: C_12  and  N_21 
REMARK    4  A    between atoms: N_21  and  CA_22 
REMARK    5  A    between atoms: CA_22  and  C_23 
REMARK    6  A    between atoms: CA_22  and  CB_25 
REMARK    7  A    between atoms: C_23  and  O_24 
REMARK    8  A    between atoms: CB_25  and  CG_26 
ROOT
HETATM    1  N   UNK A   0      43.781 -11.607   4.287  1.00  0.00    -0.309 N 
HETATM    2  C   UNK A   0      43.074 -12.568   3.640  1.00  0.00     0.321 C 
HETATM    3  O   UNK A   0      42.931 -12.467   2.421  1.00  0.00    -0.247 OA
HETATM    4  H   UNK A   0      44.157 -10.956   3.606  1.00  0.00     0.170 HD
ATOM      5  N   TRP A   1      42.587 -13.617   4.351  1.00  0.00    -0.336 N 
ATOM      6  H   TRP A   1      43.232 -13.948   5.055  1.00  0.00     0.164 HD
ENDROOT
BRANCH   1   7
HETATM    7  C   UNK A   0      44.005 -11.274   5.634  1.00  0.00     0.036 A 
HETATM    8  C   UNK A   0      45.191 -11.481   6.336  1.00  0.00     0.030 A 
HETATM    9  C   UNK A   0      45.292 -11.150   7.701  1.00  0.00     0.019 A 
HETATM   10  C   UNK A   0      44.192 -10.629   8.391  1.00  0.00     0.032 A 
HETATM   11  C   UNK A   0      43.005 -10.409   7.682  1.00  0.00     0.019 A 
HETATM   12  C   UNK A   0      42.915 -10.729   6.324  1.00  0.00     0.030 A 
BRANCH  10  13
HETATM   13  C   UNK A   0      44.189 -10.306   9.856  1.00  0.00     0.256 C 
HETATM   14  N   UNK A   0      43.014  -9.784  10.372  1.00  0.00    -0.323 N 
HETATM   15  H   UNK A   0      42.217  -9.707   9.760  1.00  0.00     0.169 HD
HETATM   16  O   UNK A   0      45.223 -10.503  10.487  1.00  0.00    -0.267 OA
BRANCH  14  17
HETATM   17  C   UNK A   0      42.809  -9.278  11.677  1.00  0.00     0.035 A 
HETATM   18  C   UNK A   0      43.507  -8.195  12.217  1.00  0.00     0.029 A 
HETATM   19  C   UNK A   0      43.214  -7.731  13.504  1.00  0.00     0.002 A 
HETATM   20  C   UNK A   0      42.228  -8.349  14.267  1.00  0.00     0.000 A 
HETATM   21  C   UNK A   0      41.531  -9.434  13.744  1.00  0.00     0.002 A 
HETATM   22  C   UNK A   0      41.816  -9.892  12.454  1.00  0.00     0.029 A 
ENDBRANCH  14  17
ENDBRANCH  10  13
ENDBRANCH   1   7
BRANCH   5  23
ATOM     23  CA  TRP A   1      41.885 -14.709   3.655  1.00  0.00     0.114 C 
BRANCH  23  24
ATOM     24  C   TRP A   1      40.833 -14.116   2.700  1.00  0.00     0.189 C 
BRANCH  24  25
ATOM     25  O   TRP A   1      39.529 -14.579   3.060  1.00  0.00    -0.399 OA
ATOM     26  H   TRP A   1      39.382 -15.401   2.559  1.00  0.00     0.209 HD
ENDBRANCH  24  25
ENDBRANCH  23  24
BRANCH  23  27
ATOM     27  CB  TRP A   1      42.873 -15.615   2.891  1.00  0.00     0.068 C 
BRANCH  27  28
ATOM     28  CG  TRP A   1      43.348 -16.777   3.717  1.00  0.00    -0.028 A 
ATOM     29  CD2 TRP A   1      43.413 -18.154   3.331  1.00  0.00    -0.002 A 
ATOM     30  CE2 TRP A   1      43.959 -18.864   4.402  1.00  0.00     0.042 A 
ATOM     31  CE3 TRP A   1      43.064 -18.867   2.167  1.00  0.00     0.014 A 
ATOM     32  CZ2 TRP A   1      44.193 -20.244   4.357  1.00  0.00     0.030 A 
ATOM     33  NE1 TRP A   1      44.188 -17.962   5.411  1.00  0.00    -0.365 N 
ATOM     34  CH2 TRP A   1      43.858 -20.921   3.182  1.00  0.00     0.002 A 
ATOM     35  CZ3 TRP A   1      43.298 -20.246   2.101  1.00  0.00     0.001 A 
ATOM     36  HE1 TRP A   1      44.580 -18.198   6.312  1.00  0.00     0.165 HD
ATOM     37  CD1 TRP A   1      43.819 -16.705   5.016  1.00  0.00     0.096 A 
ENDBRANCH  27  28
ENDBRANCH  23  27
ENDBRANCH   5  23
TORSDOF 8
ENDMDL
MODEL 2
REMARK VINA RESULT:      -9.9      1.996     11.139
REMARK  8 active torsions:
REMARK  status: ('A' for Active; 'I' for Inactive)
REMARK    1  A    between atoms: C_4  and  N_5 
REMARK       I    between atoms: N_5  and  C_6 
REMARK    2  A    between atoms: C_6  and  C_7 
REMARK    3  A    between atoms: C_10  and  N_11 
REMARK       I    between atoms: N_11  and  C_12 
REMARK       I    between atoms: C_12  and  N_21 
REMARK    4  A    between atoms: N_21  and  CA_22 
REMARK    5  A    between atoms: CA_22  and  C_23 
REMARK    6  A    between atoms: CA_22  and  CB_25 
REMARK    7  A    between atoms: C_23  and  O_24 
REMARK    8  A    between atoms: CB_25  and  CG_26 
ROOT
HETATM    1  N   UNK A   0      43.642 -10.618   6.651  1.00  0.00    -0.309 N 
HETATM    2  C   UNK A   0      43.524  -9.855   7.767  1.00  0.00     0.321 C 
HETATM    3  O   UNK A   0      44.002  -8.721   7.753  1.00  0.00    -0.247 OA
HETATM    4  H   UNK A   0      44.074 -10.067   5.917  1.00  0.00     0.170 HD
ATOM      5  N   TRP A   1      42.854 -10.355   8.837  1.00  0.00    -0.336 N 
ATOM      6  H   TRP A   1      42.029 -10.878   8.575  1.00  0.00     0.164 HD
ENDROOT
BRANCH   1   7
HETATM    7  C   UNK A   0      43.405 -11.967   6.338  1.00  0.00     0.036 A 
HETATM    8  C   UNK A   0      43.985 -13.063   6.975  1.00  0.00     0.030 A 
HETATM    9  C   UNK A   0      43.710 -14.377   6.550  1.00  0.00     0.019 A 
HETATM   10  C   UNK A   0      42.867 -14.611   5.459  1.00  0.00     0.032 A 
HETATM   11  C   UNK A   0      42.273 -13.510   4.828  1.00  0.00     0.019 A 
HETATM   12  C   UNK A   0      42.541 -12.208   5.262  1.00  0.00     0.030 A 
BRANCH  10  13
HETATM   13  C   UNK A   0      42.565 -15.970   4.898  1.00  0.00     0.256 C 
HETATM   14  N   UNK A   0      43.650 -16.800   4.670  1.00  0.00    -0.323 N 
HETATM   15  H   UNK A   0      44.564 -16.477   4.944  1.00  0.00     0.169 HD
HETATM   16  O   UNK A   0      41.393 -16.242   4.662  1.00  0.00    -0.267 OA
BRANCH  14  17
HETATM   17  C   UNK A   0      43.637 -18.060   4.028  1.00  0.00     0.035 A 
HETATM   18  C   UNK A   0      43.281 -18.255   2.692  1.00  0.00     0.029 A 
HETATM   19  C   UNK A   0      43.333 -19.531   2.120  1.00  0.00     0.002 A 
HETATM   20  C   UNK A   0      43.734 -20.626   2.881  1.00  0.00     0.000 A 
HETATM   21  C   UNK A   0      44.085 -20.446   4.216  1.00  0.00     0.002 A 
HETATM   22  C   UNK A   0      44.042 -19.170   4.784  1.00  0.00     0.029 A 
ENDBRANCH  14  17
ENDBRANCH  10  13
ENDBRANCH   1   7
BRANCH   5  23
ATOM     23  CA  TRP A   1      42.647  -9.515  10.028  1.00  0.00     0.114 C 
BRANCH  23  24
ATOM     24  C   TRP A   1      41.232  -8.907   9.988  1.00  0.00     0.189 C 
BRANCH  24  25
ATOM     25  O   TRP A   1      40.326  -9.817   9.360  1.00  0.00    -0.399 OA
ATOM     26  H   TRP A   1      40.864 -10.382   8.777  1.00  0.00     0.209 HD
ENDBRANCH  24  25
ENDBRANCH  23  24
BRANCH  23  27
ATOM     27  CB  TRP A   1      42.865 -10.317  11.329  1.00  0.00     0.068 C 
BRANCH  27  28
ATOM     28  CG  TRP A   1      42.008  -9.824  12.461  1.00  0.00    -0.028 A 
ATOM     29  CD2 TRP A   1      42.272  -8.726  13.341  1.00  0.00    -0.002 A 
ATOM     30  CE2 TRP A   1      41.183  -8.610  14.205  1.00  0.00     0.042 A 
ATOM     31  CE3 TRP A   1      43.335  -7.811  13.482  1.00  0.00     0.014 A 
ATOM     32  CZ2 TRP A   1      41.093  -7.614  15.186  1.00  0.00     0.030 A 
ATOM     33  NE1 TRP A   1      40.304  -9.616  13.886  1.00  0.00    -0.365 N 
ATOM     34  CH2 TRP A   1      42.152  -6.708  15.288  1.00  0.00     0.002 A 
ATOM     35  CZ3 TRP A   1      43.261  -6.804  14.451  1.00  0.00     0.001 A 
ATOM     36  HE1 TRP A   1      39.423  -9.776  14.354  1.00  0.00     0.165 HD
ATOM     37  CD1 TRP A   1      40.791 -10.357  12.845  1.00  0.00     0.096 A 
ENDBRANCH  27  28
ENDBRANCH  23  27
ENDBRANCH   5  23
TORSDOF 8
ENDMDL
MODEL 3
REMARK VINA RESULT:      -9.7      2.696      9.746
REMARK  8 active torsions:
REMARK  status: ('A' for Active; 'I' for Inactive)
REMARK    1  A    between atoms: C_4  and  N_5 
REMARK       I    between atoms: N_5  and  C_6 
REMARK    2  A    between atoms: C_6  and  C_7 
REMARK    3  A    between atoms: C_10  and  N_11 
REMARK       I    between atoms: N_11  and  C_12 
REMARK       I    between atoms: C_12  and  N_21 
REMARK    4  A    between atoms: N_21  and  CA_22 
REMARK    5  A    between atoms: CA_22  and  C_23 
REMARK    6  A    between atoms: CA_22  and  CB_25 
REMARK    7  A    between atoms: C_23  and  O_24 
REMARK    8  A    between atoms: CB_25  and  CG_26 
ROOT
HETATM    1  N   UNK A   0      39.446  -9.502   7.677  1.00  0.00    -0.309 N 
HETATM    2  C   UNK A   0      39.335  -9.044   8.950  1.00  0.00     0.321 C 
HETATM    3  O   UNK A   0      38.612  -8.069   9.160  1.00  0.00    -0.247 OA
HETATM    4  H   UNK A   0      38.822  -8.972   7.079  1.00  0.00     0.170 HD
ATOM      5  N   TRP A   1      39.992  -9.697   9.944  1.00  0.00    -0.336 N 
ATOM      6  H   TRP A   1      39.967 -10.702   9.836  1.00  0.00     0.164 HD
ENDROOT
BRANCH   1   7
HETATM    7  C   UNK A   0      40.274 -10.430   7.023  1.00  0.00     0.036 A 
HETATM    8  C   UNK A   0      41.654 -10.318   6.861  1.00  0.00     0.030 A 
HETATM    9  C   UNK A   0      42.381 -11.288   6.147  1.00  0.00     0.019 A 
HETATM   10  C   UNK A   0      41.729 -12.377   5.558  1.00  0.00     0.032 A 
HETATM   11  C   UNK A   0      40.344 -12.497   5.733  1.00  0.00     0.019 A 
HETATM   12  C   UNK A   0      39.629 -11.536   6.454  1.00  0.00     0.030 A 
BRANCH  10  13
HETATM   13  C   UNK A   0      42.411 -13.425   4.730  1.00  0.00     0.256 C 
HETATM   14  N   UNK A   0      42.037 -14.739   4.961  1.00  0.00    -0.323 N 
HETATM   15  H   UNK A   0      41.296 -14.914   5.620  1.00  0.00     0.169 HD
HETATM   16  O   UNK A   0      43.261 -13.053   3.926  1.00  0.00    -0.267 OA
BRANCH  14  17
HETATM   17  C   UNK A   0      42.627 -15.900   4.411  1.00  0.00     0.035 A 
HETATM   18  C   UNK A   0      43.611 -16.657   5.049  1.00  0.00     0.029 A 
HETATM   19  C   UNK A   0      44.114 -17.819   4.453  1.00  0.00     0.002 A 
HETATM   20  C   UNK A   0      43.645 -18.230   3.209  1.00  0.00     0.000 A 
HETATM   21  C   UNK A   0      42.669 -17.480   2.558  1.00  0.00     0.002 A 
HETATM   22  C   UNK A   0      42.159 -16.325   3.159  1.00  0.00     0.029 A 
ENDBRANCH  14  17
ENDBRANCH  10  13
ENDBRANCH   1   7
BRANCH   5  23
ATOM     23  CA  TRP A   1      39.821  -9.264  11.340  1.00  0.00     0.114 C 
BRANCH  23  24
ATOM     24  C   TRP A   1      39.427 -10.473  12.209  1.00  0.00     0.189 C 
BRANCH  24  25
ATOM     25  O   TRP A   1      38.656 -11.398  11.439  1.00  0.00    -0.399 OA
ATOM     26  H   TRP A   1      38.900 -11.252  10.508  1.00  0.00     0.209 HD
ENDBRANCH  24  25
ENDBRANCH  23  24
BRANCH  23  27
ATOM     27  CB  TRP A   1      41.101  -8.591  11.882  1.00  0.00     0.068 C 
BRANCH  27  28
ATOM     28  CG  TRP A   1      42.348  -9.346  11.515  1.00  0.00    -0.028 A 
ATOM     29  CD2 TRP A   1      43.278  -9.039  10.471  1.00  0.00    -0.002 A 
ATOM     30  CE2 TRP A   1      44.303  -9.984  10.530  1.00  0.00     0.042 A 
ATOM     31  CE3 TRP A   1      43.351  -8.039   9.481  1.00  0.00     0.014 A 
ATOM     32  CZ2 TRP A   1      45.404  -9.967   9.666  1.00  0.00     0.030 A 
ATOM     33  NE1 TRP A   1      43.994 -10.852  11.549  1.00  0.00    -0.365 N 
ATOM     34  CH2 TRP A   1      45.461  -8.951   8.709  1.00  0.00     0.002 A 
ATOM     35  CZ3 TRP A   1      44.448  -8.000   8.612  1.00  0.00     0.001 A 
ATOM     36  HE1 TRP A   1      44.561 -11.644  11.819  1.00  0.00     0.165 HD
ATOM     37  CD1 TRP A   1      42.818 -10.484  12.145  1.00  0.00     0.096 A 
ENDBRANCH  27  28
ENDBRANCH  23  27
ENDBRANCH   5  23
TORSDOF 8
ENDMDL
MODEL 4
REMARK VINA RESULT:      -9.7      2.641      4.370
REMARK  8 active torsions:
REMARK  status: ('A' for Active; 'I' for Inactive)
REMARK    1  A    between atoms: C_4  and  N_5 
REMARK       I    between atoms: N_5  and  C_6 
REMARK    2  A    between atoms: C_6  and  C_7 
REMARK    3  A    between atoms: C_10  and  N_11 
REMARK       I    between atoms: N_11  and  C_12 
REMARK       I    between atoms: C_12  and  N_21 
REMARK    4  A    between atoms: N_21  and  CA_22 
REMARK    5  A    between atoms: CA_22  and  C_23 
REMARK    6  A    between atoms: CA_22  and  CB_25 
REMARK    7  A    between atoms: C_23  and  O_24 
REMARK    8  A    between atoms: CB_25  and  CG_26 
ROOT
HETATM    1  N   UNK A   0      44.438 -10.726   8.489  1.00  0.00    -0.309 N 
HETATM    2  C   UNK A   0      44.295 -11.685   7.540  1.00  0.00     0.321 C 
HETATM    3  O   UNK A   0      44.960 -11.592   6.509  1.00  0.00    -0.247 OA
HETATM    4  H   UNK A   0      45.169 -10.083   8.202  1.00  0.00     0.170 HD
ATOM      5  N   TRP A   1      43.454 -12.725   7.779  1.00  0.00    -0.336 N 
ATOM      6  H   TRP A   1      43.501 -13.056   8.734  1.00  0.00     0.164 HD
ENDROOT
BRANCH   1   7
HETATM    7  C   UNK A   0      43.758 -10.385   9.670  1.00  0.00     0.036 A 
HETATM    8  C   UNK A   0      44.053 -10.864  10.946  1.00  0.00     0.030 A 
HETATM    9  C   UNK A   0      43.275 -10.490  12.058  1.00  0.00     0.019 A 
HETATM   10  C   UNK A   0      42.168  -9.648  11.903  1.00  0.00     0.032 A 
HETATM   11  C   UNK A   0      41.880  -9.157  10.623  1.00  0.00     0.019 A 
HETATM   12  C   UNK A   0      42.664  -9.522   9.525  1.00  0.00     0.030 A 
BRANCH  10  13
HETATM   13  C   UNK A   0      41.248  -9.247  13.017  1.00  0.00     0.256 C 
HETATM   14  N   UNK A   0      41.491  -8.019  13.610  1.00  0.00    -0.323 N 
HETATM   15  H   UNK A   0      42.224  -7.442  13.228  1.00  0.00     0.169 HD
HETATM   16  O   UNK A   0      40.365 -10.035  13.340  1.00  0.00    -0.267 OA
BRANCH  14  17
HETATM   17  C   UNK A   0      40.856  -7.486  14.756  1.00  0.00     0.035 A 
HETATM   18  C   UNK A   0      39.799  -6.575  14.713  1.00  0.00     0.029 A 
HETATM   19  C   UNK A   0      39.197  -6.127  15.894  1.00  0.00     0.002 A 
HETATM   20  C   UNK A   0      39.652  -6.580  17.130  1.00  0.00     0.000 A 
HETATM   21  C   UNK A   0      40.710  -7.483  17.186  1.00  0.00     0.002 A 
HETATM   22  C   UNK A   0      41.304  -7.938  16.005  1.00  0.00     0.029 A 
ENDBRANCH  14  17
ENDBRANCH  10  13
ENDBRANCH   1   7
BRANCH   5  23
ATOM     23  CA  TRP A   1      43.344 -13.817   6.797  1.00  0.00     0.114 C 
BRANCH  23  24
ATOM     24  C   TRP A   1      43.084 -15.145   7.532  1.00  0.00     0.189 C 
BRANCH  24  25
ATOM     25  O   TRP A   1      43.253 -14.967   8.940  1.00  0.00    -0.399 OA
ATOM     26  H   TRP A   1      42.963 -14.058   9.139  1.00  0.00     0.209 HD
ENDBRANCH  24  25
ENDBRANCH  23  24
BRANCH  23  27
ATOM     27  CB  TRP A   1      42.233 -13.534   5.763  1.00  0.00     0.068 C 
BRANCH  27  28
ATOM     28  CG  TRP A   1      42.666 -13.830   4.355  1.00  0.00    -0.028 A 
ATOM     29  CD2 TRP A   1      42.826 -15.114   3.743  1.00  0.00    -0.002 A 
ATOM     30  CE2 TRP A   1      43.199 -14.902   2.415  1.00  0.00     0.042 A 
ATOM     31  CE3 TRP A   1      42.683 -16.442   4.191  1.00  0.00     0.014 A 
ATOM     32  CZ2 TRP A   1      43.413 -15.948   1.509  1.00  0.00     0.030 A 
ATOM     33  NE1 TRP A   1      43.294 -13.543   2.233  1.00  0.00    -0.365 N 
ATOM     34  CH2 TRP A   1      43.242 -17.254   1.976  1.00  0.00     0.002 A 
ATOM     35  CZ3 TRP A   1      42.885 -17.502   3.298  1.00  0.00     0.001 A 
ATOM     36  HE1 TRP A   1      43.550 -13.099   1.363  1.00  0.00     0.165 HD
ATOM     37  CD1 TRP A   1      42.983 -12.888   3.393  1.00  0.00     0.096 A 
ENDBRANCH  27  28
ENDBRANCH  23  27
ENDBRANCH   5  23
TORSDOF 8
ENDMDL
MODEL 5
REMARK VINA RESULT:      -9.6      6.346      9.739
REMARK  8 active torsions:
REMARK  status: ('A' for Active; 'I' for Inactive)
REMARK    1  A    between atoms: C_4  and  N_5 
REMARK       I    between atoms: N_5  and  C_6 
REMARK    2  A    between atoms: C_6  and  C_7 
REMARK    3  A    between atoms: C_10  and  N_11 
REMARK       I    between atoms: N_11  and  C_12 
REMARK       I    between atoms: C_12  and  N_21 
REMARK    4  A    between atoms: N_21  and  CA_22 
REMARK    5  A    between atoms: CA_22  and  C_23 
REMARK    6  A    between atoms: CA_22  and  CB_25 
REMARK    7  A    between atoms: C_23  and  O_24 
REMARK    8  A    between atoms: CB_25  and  CG_26 
ROOT
HETATM    1  N   UNK A   0      38.645 -11.082   1.368  1.00  0.00    -0.309 N 
HETATM    2  C   UNK A   0      38.851 -10.127   0.426  1.00  0.00     0.321 C 
HETATM    3  O   UNK A   0      37.967  -9.291   0.239  1.00  0.00    -0.247 OA
HETATM    4  H   UNK A   0      37.767 -10.897   1.841  1.00  0.00     0.170 HD
ATOM      5  N   TRP A   1      40.032 -10.108  -0.244  1.00  0.00    -0.336 N 
ATOM      6  H   TRP A   1      40.823 -10.315   0.350  1.00  0.00     0.164 HD
ENDROOT
BRANCH   1   7
HETATM    7  C   UNK A   0      39.298 -12.269   1.739  1.00  0.00     0.036 A 
HETATM    8  C   UNK A   0      39.689 -13.288   0.872  1.00  0.00     0.030 A 
HETATM    9  C   UNK A   0      40.299 -14.460   1.359  1.00  0.00     0.019 A 
HETATM   10  C   UNK A   0      40.502 -14.641   2.731  1.00  0.00     0.032 A 
HETATM   11  C   UNK A   0      40.121 -13.611   3.601  1.00  0.00     0.019 A 
HETATM   12  C   UNK A   0      39.527 -12.444   3.110  1.00  0.00     0.030 A 
BRANCH  10  13
HETATM   13  C   UNK A   0      41.086 -15.879   3.344  1.00  0.00     0.256 C 
HETATM   14  N   UNK A   0      42.258 -16.356   2.779  1.00  0.00    -0.323 N 
HETATM   15  H   UNK A   0      42.681 -15.822   2.038  1.00  0.00     0.169 HD
HETATM   16  O   UNK A   0      40.482 -16.392   4.280  1.00  0.00    -0.267 OA
BRANCH  14  17
HETATM   17  C   UNK A   0      42.918 -17.568   3.088  1.00  0.00     0.035 A 
HETATM   18  C   UNK A   0      43.616 -17.800   4.275  1.00  0.00     0.029 A 
HETATM   19  C   UNK A   0      44.208 -19.043   4.521  1.00  0.00     0.002 A 
HETATM   20  C   UNK A   0      44.116 -20.064   3.579  1.00  0.00     0.000 A 
HETATM   21  C   UNK A   0      43.429 -19.844   2.389  1.00  0.00     0.002 A 
HETATM   22  C   UNK A   0      42.829 -18.604   2.147  1.00  0.00     0.029 A 
ENDBRANCH  14  17
ENDBRANCH  10  13
ENDBRANCH   1   7
BRANCH   5  23
ATOM     23  CA  TRP A   1      40.305  -9.033  -1.213  1.00  0.00     0.114 C 
BRANCH  23  24
ATOM     24  C   TRP A   1      41.699  -8.437  -0.939  1.00  0.00     0.189 C 
BRANCH  24  25
ATOM     25  O   TRP A   1      42.359  -9.185   0.085  1.00  0.00    -0.399 OA
ATOM     26  H   TRP A   1      42.234  -8.687   0.912  1.00  0.00     0.209 HD
ENDBRANCH  24  25
ENDBRANCH  23  24
BRANCH  23  27
ATOM     27  CB  TRP A   1      40.202  -9.546  -2.666  1.00  0.00     0.068 C 
BRANCH  27  28
ATOM     28  CG  TRP A   1      40.406 -11.031  -2.769  1.00  0.00    -0.028 A 
ATOM     29  CD2 TRP A   1      39.404 -12.053  -2.737  1.00  0.00    -0.002 A 
ATOM     30  CE2 TRP A   1      40.050 -13.278  -2.912  1.00  0.00     0.042 A 
ATOM     31  CE3 TRP A   1      38.004 -12.054  -2.581  1.00  0.00     0.014 A 
ATOM     32  CZ2 TRP A   1      39.364 -14.498  -2.961  1.00  0.00     0.030 A 
ATOM     33  NE1 TRP A   1      41.394 -13.016  -3.015  1.00  0.00    -0.365 N 
ATOM     34  CH2 TRP A   1      37.974 -14.466  -2.826  1.00  0.00     0.002 A 
ATOM     35  CZ3 TRP A   1      37.300 -13.263  -2.635  1.00  0.00     0.001 A 
ATOM     36  HE1 TRP A   1      42.106 -13.721  -3.146  1.00  0.00     0.165 HD
ATOM     37  CD1 TRP A   1      41.622 -11.671  -2.924  1.00  0.00     0.096 A 
ENDBRANCH  27  28
ENDBRANCH  23  27
ENDBRANCH   5  23
TORSDOF 8
ENDMDL
MODEL 6
REMARK VINA RESULT:      -9.5      2.723     10.624
REMARK  8 active torsions:
REMARK  status: ('A' for Active; 'I' for Inactive)
REMARK    1  A    between atoms: C_4  and  N_5 
REMARK       I    between atoms: N_5  and  C_6 
REMARK    2  A    between atoms: C_6  and  C_7 
REMARK    3  A    between atoms: C_10  and  N_11 
REMARK       I    between atoms: N_11  and  C_12 
REMARK       I    between atoms: C_12  and  N_21 
REMARK    4  A    between atoms: N_21  and  CA_22 
REMARK    5  A    between atoms: CA_22  and  C_23 
REMARK    6  A    between atoms: CA_22  and  CB_25 
REMARK    7  A    between atoms: C_23  and  O_24 
REMARK    8  A    between atoms: CB_25  and  CG_26 
ROOT
HETATM    1  N   UNK A   0      43.419 -10.824   6.705  1.00  0.00    -0.309 N 
HETATM    2  C   UNK A   0      42.606  -9.902   7.280  1.00  0.00     0.321 C 
HETATM    3  O   UNK A   0      43.121  -8.910   7.795  1.00  0.00    -0.247 OA
HETATM    4  H   UNK A   0      44.375 -10.488   6.737  1.00  0.00     0.170 HD
ATOM      5  N   TRP A   1      41.262 -10.091   7.234  1.00  0.00    -0.336 N 
ATOM      6  H   TRP A   1      40.948 -10.459   6.347  1.00  0.00     0.164 HD
ENDROOT
BRANCH   1   7
HETATM    7  C   UNK A   0      43.247 -12.123   6.197  1.00  0.00     0.036 A 
HETATM    8  C   UNK A   0      42.681 -12.446   4.965  1.00  0.00     0.030 A 
HETATM    9  C   UNK A   0      42.516 -13.788   4.573  1.00  0.00     0.019 A 
HETATM   10  C   UNK A   0      42.893 -14.831   5.426  1.00  0.00     0.032 A 
HETATM   11  C   UNK A   0      43.474 -14.506   6.658  1.00  0.00     0.019 A 
HETATM   12  C   UNK A   0      43.647 -13.171   7.036  1.00  0.00     0.030 A 
BRANCH  10  13
HETATM   13  C   UNK A   0      42.698 -16.287   5.119  1.00  0.00     0.256 C 
HETATM   14  N   UNK A   0      43.817 -16.985   4.693  1.00  0.00    -0.323 N 
HETATM   15  H   UNK A   0      44.700 -16.501   4.669  1.00  0.00     0.169 HD
HETATM   16  O   UNK A   0      41.570 -16.751   5.245  1.00  0.00    -0.267 OA
BRANCH  14  17
HETATM   17  C   UNK A   0      43.858 -18.316   4.218  1.00  0.00     0.035 A 
HETATM   18  C   UNK A   0      44.109 -19.428   5.025  1.00  0.00     0.029 A 
HETATM   19  C   UNK A   0      44.092 -20.718   4.483  1.00  0.00     0.002 A 
HETATM   20  C   UNK A   0      43.832 -20.909   3.129  1.00  0.00     0.000 A 
HETATM   21  C   UNK A   0      43.588 -19.808   2.312  1.00  0.00     0.002 A 
HETATM   22  C   UNK A   0      43.595 -18.519   2.855  1.00  0.00     0.029 A 
ENDBRANCH  14  17
ENDBRANCH  10  13
ENDBRANCH   1   7
BRANCH   5  23
ATOM     23  CA  TRP A   1      40.360  -9.065   7.783  1.00  0.00     0.114 C 
BRANCH  23  24
ATOM     24  C   TRP A   1      39.254  -8.752   6.758  1.00  0.00     0.189 C 
BRANCH  24  25
ATOM     25  O   TRP A   1      38.416  -7.703   7.247  1.00  0.00    -0.399 OA
ATOM     26  H   TRP A   1      37.895  -7.390   6.486  1.00  0.00     0.209 HD
ENDBRANCH  24  25
ENDBRANCH  23  24
BRANCH  23  27
ATOM     27  CB  TRP A   1      39.752  -9.511   9.130  1.00  0.00     0.068 C 
BRANCH  27  28
ATOM     28  CG  TRP A   1      40.087  -8.573  10.254  1.00  0.00    -0.028 A 
ATOM     29  CD2 TRP A   1      41.259  -8.579  11.076  1.00  0.00    -0.002 A 
ATOM     30  CE2 TRP A   1      41.161  -7.500  11.956  1.00  0.00     0.042 A 
ATOM     31  CE3 TRP A   1      42.403  -9.400  11.153  1.00  0.00     0.014 A 
ATOM     32  CZ2 TRP A   1      42.156  -7.188  12.890  1.00  0.00     0.030 A 
ATOM     33  NE1 TRP A   1      39.962  -6.879  11.701  1.00  0.00    -0.365 N 
ATOM     34  CH2 TRP A   1      43.289  -8.006  12.929  1.00  0.00     0.002 A 
ATOM     35  CZ3 TRP A   1      43.412  -9.100  12.076  1.00  0.00     0.001 A 
ATOM     36  HE1 TRP A   1      39.625  -6.063  12.193  1.00  0.00     0.165 HD
ATOM     37  CD1 TRP A   1      39.304  -7.517  10.686  1.00  0.00     0.096 A 
ENDBRANCH  27  28
ENDBRANCH  23  27
ENDBRANCH   5  23
TORSDOF 8
ENDMDL
MODEL 7
REMARK VINA RESULT:      -9.2      5.204      9.171
REMARK  8 active torsions:
REMARK  status: ('A' for Active; 'I' for Inactive)
REMARK    1  A    between atoms: C_4  and  N_5 
REMARK       I    between atoms: N_5  and  C_6 
REMARK    2  A    between atoms: C_6  and  C_7 
REMARK    3  A    between atoms: C_10  and  N_11 
REMARK       I    between atoms: N_11  and  C_12 
REMARK       I    between atoms: C_12  and  N_21 
REMARK    4  A    between atoms: N_21  and  CA_22 
REMARK    5  A    between atoms: CA_22  and  C_23 
REMARK    6  A    between atoms: CA_22  and  CB_25 
REMARK    7  A    between atoms: C_23  and  O_24 
REMARK    8  A    between atoms: CB_25  and  CG_26 
ROOT
HETATM    1  N   UNK A   0      41.160  -9.975   3.523  1.00  0.00    -0.309 N 
HETATM    2  C   UNK A   0      40.937  -9.172   2.451  1.00  0.00     0.321 C 
HETATM    3  O   UNK A   0      40.577  -8.012   2.654  1.00  0.00    -0.247 OA
HETATM    4  H   UNK A   0      41.051  -9.431   4.372  1.00  0.00     0.170 HD
ATOM      5  N   TRP A   1      41.154  -9.665   1.205  1.00  0.00    -0.336 N 
ATOM      6  H   TRP A   1      41.978 -10.248   1.151  1.00  0.00     0.164 HD
ENDROOT
BRANCH   1   7
HETATM    7  C   UNK A   0      41.392 -11.348   3.706  1.00  0.00     0.036 A 
HETATM    8  C   UNK A   0      42.599 -11.924   4.098  1.00  0.00     0.030 A 
HETATM    9  C   UNK A   0      42.734 -13.321   4.207  1.00  0.00     0.019 A 
HETATM   10  C   UNK A   0      41.664 -14.167   3.897  1.00  0.00     0.032 A 
HETATM   11  C   UNK A   0      40.447 -13.587   3.516  1.00  0.00     0.019 A 
HETATM   12  C   UNK A   0      40.316 -12.198   3.421  1.00  0.00     0.030 A 
BRANCH  10  13
HETATM   13  C   UNK A   0      41.733 -15.665   3.925  1.00  0.00     0.256 C 
HETATM   14  N   UNK A   0      42.953 -16.235   3.597  1.00  0.00    -0.323 N 
HETATM   15  H   UNK A   0      43.733 -15.622   3.418  1.00  0.00     0.169 HD
HETATM   16  O   UNK A   0      40.711 -16.278   4.212  1.00  0.00    -0.267 OA
BRANCH  14  17
HETATM   17  C   UNK A   0      43.229 -17.611   3.421  1.00  0.00     0.035 A 
HETATM   18  C   UNK A   0      42.957 -18.321   2.250  1.00  0.00     0.029 A 
HETATM   19  C   UNK A   0      43.299 -19.673   2.142  1.00  0.00     0.002 A 
HETATM   20  C   UNK A   0      43.909 -20.331   3.207  1.00  0.00     0.000 A 
HETATM   21  C   UNK A   0      44.178 -19.636   4.383  1.00  0.00     0.002 A 
HETATM   22  C   UNK A   0      43.845 -18.282   4.487  1.00  0.00     0.029 A 
ENDBRANCH  14  17
ENDBRANCH  10  13
ENDBRANCH   1   7
BRANCH   5  23
ATOM     23  CA  TRP A   1      40.994  -8.787   0.033  1.00  0.00     0.114 C 
BRANCH  23  24
ATOM     24  C   TRP A   1      42.184  -8.986  -0.924  1.00  0.00     0.189 C 
BRANCH  24  25
ATOM     25  O   TRP A   1      43.164  -7.968  -0.706  1.00  0.00    -0.399 OA
ATOM     26  H   TRP A   1      42.898  -7.209  -1.255  1.00  0.00     0.209 HD
ENDBRANCH  24  25
ENDBRANCH  23  24
BRANCH  23  27
ATOM     27  CB  TRP A   1      39.656  -9.052  -0.690  1.00  0.00     0.068 C 
BRANCH  27  28
ATOM     28  CG  TRP A   1      39.211 -10.482  -0.575  1.00  0.00    -0.028 A 
ATOM     29  CD2 TRP A   1      39.628 -11.593  -1.375  1.00  0.00    -0.002 A 
ATOM     30  CE2 TRP A   1      38.989 -12.731  -0.880  1.00  0.00     0.042 A 
ATOM     31  CE3 TRP A   1      40.496 -11.743  -2.475  1.00  0.00     0.014 A 
ATOM     32  CZ2 TRP A   1      39.192 -14.009  -1.413  1.00  0.00     0.030 A 
ATOM     33  NE1 TRP A   1      38.190 -12.325   0.162  1.00  0.00    -0.365 N 
ATOM     34  CH2 TRP A   1      40.075 -14.131  -2.489  1.00  0.00     0.002 A 
ATOM     35  CZ3 TRP A   1      40.718 -13.014  -3.018  1.00  0.00     0.001 A 
ATOM     36  HE1 TRP A   1      37.606 -12.941   0.709  1.00  0.00     0.165 HD
ATOM     37  CD1 TRP A   1      38.309 -10.975   0.351  1.00  0.00     0.096 A 
ENDBRANCH  27  28
ENDBRANCH  23  27
ENDBRANCH   5  23
TORSDOF 8
ENDMDL
MODEL 8
REMARK VINA RESULT:      -9.1      2.483      9.136
REMARK  8 active torsions:
REMARK  status: ('A' for Active; 'I' for Inactive)
REMARK    1  A    between atoms: C_4  and  N_5 
REMARK       I    between atoms: N_5  and  C_6 
REMARK    2  A    between atoms: C_6  and  C_7 
REMARK    3  A    between atoms: C_10  and  N_11 
REMARK       I    between atoms: N_11  and  C_12 
REMARK       I    between atoms: C_12  and  N_21 
REMARK    4  A    between atoms: N_21  and  CA_22 
REMARK    5  A    between atoms: CA_22  and  C_23 
REMARK    6  A    between atoms: CA_22  and  CB_25 
REMARK    7  A    between atoms: C_23  and  O_24 
REMARK    8  A    between atoms: CB_25  and  CG_26 
ROOT
HETATM    1  N   UNK A   0      40.866  -8.247   7.962  1.00  0.00    -0.309 N 
HETATM    2  C   UNK A   0      41.713  -7.940   8.977  1.00  0.00     0.321 C 
HETATM    3  O   UNK A   0      41.703  -6.792   9.420  1.00  0.00    -0.247 OA
HETATM    4  H   UNK A   0      40.278  -7.445   7.768  1.00  0.00     0.170 HD
ATOM      5  N   TRP A   1      42.509  -8.916   9.487  1.00  0.00    -0.336 N 
ATOM      6  H   TRP A   1      42.037  -9.807   9.564  1.00  0.00     0.164 HD
ENDROOT
BRANCH   1   7
HETATM    7  C   UNK A   0      40.707  -9.342   7.096  1.00  0.00     0.036 A 
HETATM    8  C   UNK A   0      39.811 -10.395   7.270  1.00  0.00     0.030 A 
HETATM    9  C   UNK A   0      39.766 -11.468   6.361  1.00  0.00     0.019 A 
HETATM   10  C   UNK A   0      40.643 -11.515   5.271  1.00  0.00     0.032 A 
HETATM   11  C   UNK A   0      41.535 -10.451   5.088  1.00  0.00     0.019 A 
HETATM   12  C   UNK A   0      41.565  -9.382   5.989  1.00  0.00     0.030 A 
BRANCH  10  13
HETATM   13  C   UNK A   0      40.709 -12.645   4.287  1.00  0.00     0.256 C 
HETATM   14  N   UNK A   0      41.730 -13.565   4.468  1.00  0.00    -0.323 N 
HETATM   15  H   UNK A   0      42.328 -13.462   5.272  1.00  0.00     0.169 HD
HETATM   16  O   UNK A   0      39.877 -12.667   3.386  1.00  0.00    -0.267 OA
BRANCH  14  17
HETATM   17  C   UNK A   0      42.080 -14.627   3.603  1.00  0.00     0.035 A 
HETATM   18  C   UNK A   0      41.481 -15.888   3.628  1.00  0.00     0.029 A 
HETATM   19  C   UNK A   0      41.858 -16.874   2.709  1.00  0.00     0.002 A 
HETATM   20  C   UNK A   0      42.843 -16.611   1.761  1.00  0.00     0.000 A 
HETATM   21  C   UNK A   0      43.454 -15.360   1.730  1.00  0.00     0.002 A 
HETATM   22  C   UNK A   0      43.070 -14.372   2.642  1.00  0.00     0.029 A 
ENDBRANCH  14  17
ENDBRANCH  10  13
ENDBRANCH   1   7
BRANCH   5  23
ATOM     23  CA  TRP A   1      43.377  -8.623  10.639  1.00  0.00     0.114 C 
BRANCH  23  24
ATOM     24  C   TRP A   1      42.564  -8.753  11.941  1.00  0.00     0.189 C 
BRANCH  24  25
ATOM     25  O   TRP A   1      42.112  -7.466  12.366  1.00  0.00    -0.399 OA
ATOM     26  H   TRP A   1      41.155  -7.437  12.186  1.00  0.00     0.209 HD
ENDBRANCH  24  25
ENDBRANCH  23  24
BRANCH  23  27
ATOM     27  CB  TRP A   1      44.610  -9.551  10.666  1.00  0.00     0.068 C 
BRANCH  27  28
ATOM     28  CG  TRP A   1      45.209  -9.754   9.303  1.00  0.00    -0.028 A 
ATOM     29  CD2 TRP A   1      44.851 -10.743   8.331  1.00  0.00    -0.002 A 
ATOM     30  CE2 TRP A   1      45.640 -10.525   7.200  1.00  0.00     0.042 A 
ATOM     31  CE3 TRP A   1      43.923 -11.803   8.301  1.00  0.00     0.014 A 
ATOM     32  CZ2 TRP A   1      45.532 -11.297   6.037  1.00  0.00     0.030 A 
ATOM     33  NE1 TRP A   1      46.468  -9.466   7.483  1.00  0.00    -0.365 N 
ATOM     34  CH2 TRP A   1      44.587 -12.327   6.029  1.00  0.00     0.002 A 
ATOM     35  CZ3 TRP A   1      43.795 -12.582   7.145  1.00  0.00     0.001 A 
ATOM     36  HE1 TRP A   1      47.152  -9.087   6.843  1.00  0.00     0.165 HD
ATOM     37  CD1 TRP A   1      46.225  -8.998   8.745  1.00  0.00     0.096 A 
ENDBRANCH  27  28
ENDBRANCH  23  27
ENDBRANCH   5  23
TORSDOF 8
ENDMDL
MODEL 9
REMARK VINA RESULT:      -9.0      3.402     10.971
REMARK  8 active torsions:
REMARK  status: ('A' for Active; 'I' for Inactive)
REMARK    1  A    between atoms: C_4  and  N_5 
REMARK       I    between atoms: N_5  and  C_6 
REMARK    2  A    between atoms: C_6  and  C_7 
REMARK    3  A    between atoms: C_10  and  N_11 
REMARK       I    between atoms: N_11  and  C_12 
REMARK       I    between atoms: C_12  and  N_21 
REMARK    4  A    between atoms: N_21  and  CA_22 
REMARK    5  A    between atoms: CA_22  and  C_23 
REMARK    6  A    between atoms: CA_22  and  CB_25 
REMARK    7  A    between atoms: C_23  and  O_24 
REMARK    8  A    between atoms: CB_25  and  CG_26 
ROOT
HETATM    1  N   UNK A   0      44.402 -11.783   7.648  1.00  0.00    -0.309 N 
HETATM    2  C   UNK A   0      44.050 -10.829   8.547  1.00  0.00     0.321 C 
HETATM    3  O   UNK A   0      44.620 -10.814   9.638  1.00  0.00    -0.247 OA
HETATM    4  H   UNK A   0      45.176 -12.320   8.022  1.00  0.00     0.170 HD
ATOM      5  N   TRP A   1      43.113  -9.910   8.197  1.00  0.00    -0.336 N 
ATOM      6  H   TRP A   1      43.209  -9.596   7.241  1.00  0.00     0.164 HD
ENDROOT
BRANCH   1   7
HETATM    7  C   UNK A   0      43.886 -12.232   6.421  1.00  0.00     0.036 A 
HETATM    8  C   UNK A   0      43.063 -13.343   6.243  1.00  0.00     0.030 A 
HETATM    9  C   UNK A   0      42.638 -13.732   4.958  1.00  0.00     0.019 A 
HETATM   10  C   UNK A   0      43.056 -13.025   3.825  1.00  0.00     0.032 A 
HETATM   11  C   UNK A   0      43.872 -11.901   4.006  1.00  0.00     0.019 A 
HETATM   12  C   UNK A   0      44.281 -11.513   5.286  1.00  0.00     0.030 A 
BRANCH  10  13
HETATM   13  C   UNK A   0      42.705 -13.401   2.416  1.00  0.00     0.256 C 
HETATM   14  N   UNK A   0      41.554 -12.835   1.893  1.00  0.00    -0.323 N 
HETATM   15  H   UNK A   0      41.054 -12.165   2.455  1.00  0.00     0.169 HD
HETATM   16  O   UNK A   0      43.441 -14.193   1.837  1.00  0.00    -0.267 OA
BRANCH  14  17
HETATM   17  C   UNK A   0      40.947 -13.137   0.651  1.00  0.00     0.035 A 
HETATM   18  C   UNK A   0      41.030 -12.322  -0.480  1.00  0.00     0.029 A 
HETATM   19  C   UNK A   0      40.434 -12.714  -1.684  1.00  0.00     0.002 A 
HETATM   20  C   UNK A   0      39.742 -13.919  -1.766  1.00  0.00     0.000 A 
HETATM   21  C   UNK A   0      39.645 -14.736  -0.643  1.00  0.00     0.002 A 
HETATM   22  C   UNK A   0      40.249 -14.350   0.557  1.00  0.00     0.029 A 
ENDBRANCH  14  17
ENDBRANCH  10  13
ENDBRANCH   1   7
BRANCH   5  23
ATOM     23  CA  TRP A   1      42.774  -8.821   9.128  1.00  0.00     0.114 C 
BRANCH  23  24
ATOM     24  C   TRP A   1      43.213  -7.474   8.524  1.00  0.00     0.189 C 
BRANCH  24  25
ATOM     25  O   TRP A   1      44.639  -7.373   8.537  1.00  0.00    -0.399 OA
ATOM     26  H   TRP A   1      44.976  -8.265   8.737  1.00  0.00     0.209 HD
ENDBRANCH  24  25
ENDBRANCH  23  24
BRANCH  23  27
ATOM     27  CB  TRP A   1      41.265  -8.810   9.457  1.00  0.00     0.068 C 
BRANCH  27  28
ATOM     28  CG  TRP A   1      40.987  -9.120  10.900  1.00  0.00    -0.028 A 
ATOM     29  CD2 TRP A   1      41.648  -8.583  12.051  1.00  0.00    -0.002 A 
ATOM     30  CE2 TRP A   1      41.029  -9.122  13.180  1.00  0.00     0.042 A 
ATOM     31  CE3 TRP A   1      42.715  -7.682  12.242  1.00  0.00     0.014 A 
ATOM     32  CZ2 TRP A   1      41.407  -8.788  14.486  1.00  0.00     0.030 A 
ATOM     33  NE1 TRP A   1      40.051  -9.977  12.735  1.00  0.00    -0.365 N 
ATOM     34  CH2 TRP A   1      42.453  -7.874  14.645  1.00  0.00     0.002 A 
ATOM     35  CZ3 TRP A   1      43.102  -7.330  13.540  1.00  0.00     0.001 A 
ATOM     36  HE1 TRP A   1      39.440 -10.511  13.338  1.00  0.00     0.165 HD
ATOM     37  CD1 TRP A   1      40.020  -9.991  11.368  1.00  0.00     0.096 A 
ENDBRANCH  27  28
ENDBRANCH  23  27
ENDBRANCH   5  23
TORSDOF 8
ENDMDL
MODEL 10
REMARK VINA RESULT:      -8.8      2.885      4.691
REMARK  8 active torsions:
REMARK  status: ('A' for Active; 'I' for Inactive)
REMARK    1  A    between atoms: C_4  and  N_5 
REMARK       I    between atoms: N_5  and  C_6 
REMARK    2  A    between atoms: C_6  and  C_7 
REMARK    3  A    between atoms: C_10  and  N_11 
REMARK       I    between atoms: N_11  and  C_12 
REMARK       I    between atoms: C_12  and  N_21 
REMARK    4  A    between atoms: N_21  and  CA_22 
REMARK    5  A    between atoms: CA_22  and  C_23 
REMARK    6  A    between atoms: CA_22  and  CB_25 
REMARK    7  A    between atoms: C_23  and  O_24 
REMARK    8  A    between atoms: CB_25  and  CG_26 
ROOT
HETATM    1  N   UNK A   0      44.770 -10.317   8.915  1.00  0.00    -0.309 N 
HETATM    2  C   UNK A   0      44.845 -11.098   7.807  1.00  0.00     0.321 C 
HETATM    3  O   UNK A   0      45.877 -11.063   7.136  1.00  0.00    -0.247 OA
HETATM    4  H   UNK A   0      45.660  -9.853   9.054  1.00  0.00     0.170 HD
ATOM      5  N   TRP A   1      43.800 -11.911   7.504  1.00  0.00    -0.336 N 
ATOM      6  H   TRP A   1      43.392 -12.346   8.320  1.00  0.00     0.164 HD
ENDROOT
BRANCH   1   7
HETATM    7  C   UNK A   0      43.746  -9.948   9.804  1.00  0.00     0.036 A 
HETATM    8  C   UNK A   0      42.489  -9.467   9.442  1.00  0.00     0.030 A 
HETATM    9  C   UNK A   0      41.551  -9.083  10.420  1.00  0.00     0.019 A 
HETATM   10  C   UNK A   0      41.871  -9.151  11.780  1.00  0.00     0.032 A 
HETATM   11  C   UNK A   0      43.130  -9.648  12.143  1.00  0.00     0.019 A 
HETATM   12  C   UNK A   0      44.052 -10.038  11.168  1.00  0.00     0.030 A 
BRANCH  10  13
HETATM   13  C   UNK A   0      40.961  -8.708  12.887  1.00  0.00     0.256 C 
HETATM   14  N   UNK A   0      41.514  -7.878  13.849  1.00  0.00    -0.323 N 
HETATM   15  H   UNK A   0      42.466  -7.572  13.724  1.00  0.00     0.169 HD
HETATM   16  O   UNK A   0      39.807  -9.123  12.877  1.00  0.00    -0.267 OA
BRANCH  14  17
HETATM   17  C   UNK A   0      40.905  -7.443  15.049  1.00  0.00     0.035 A 
HETATM   18  C   UNK A   0      41.247  -7.914  16.317  1.00  0.00     0.029 A 
HETATM   19  C   UNK A   0      40.623  -7.401  17.459  1.00  0.00     0.002 A 
HETATM   20  C   UNK A   0      39.645  -6.418  17.344  1.00  0.00     0.000 A 
HETATM   21  C   UNK A   0      39.288  -5.945  16.084  1.00  0.00     0.002 A 
HETATM   22  C   UNK A   0      39.919  -6.451  14.943  1.00  0.00     0.029 A 
ENDBRANCH  14  17
ENDBRANCH  10  13
ENDBRANCH   1   7
BRANCH   5  23
ATOM     23  CA  TRP A   1      43.894 -12.823   6.352  1.00  0.00     0.114 C 
BRANCH  23  24
ATOM     24  C   TRP A   1      43.581 -14.260   6.808  1.00  0.00     0.189 C 
BRANCH  24  25
ATOM     25  O   TRP A   1      43.134 -14.257   8.165  1.00  0.00    -0.399 OA
ATOM     26  H   TRP A   1      43.195 -15.178   8.477  1.00  0.00     0.209 HD
ENDBRANCH  24  25
ENDBRANCH  23  24
BRANCH  23  27
ATOM     27  CB  TRP A   1      42.948 -12.389   5.211  1.00  0.00     0.068 C 
BRANCH  27  28
ATOM     28  CG  TRP A   1      42.010 -13.486   4.792  1.00  0.00    -0.028 A 
ATOM     29  CD2 TRP A   1      42.219 -14.472   3.776  1.00  0.00    -0.002 A 
ATOM     30  CE2 TRP A   1      41.102 -15.309   3.767  1.00  0.00     0.042 A 
ATOM     31  CE3 TRP A   1      43.258 -14.738   2.862  1.00  0.00     0.014 A 
ATOM     32  CZ2 TRP A   1      40.983 -16.408   2.909  1.00  0.00     0.030 A 
ATOM     33  NE1 TRP A   1      40.233 -14.833   4.719  1.00  0.00    -0.365 N 
ATOM     34  CH2 TRP A   1      42.038 -16.661   2.029  1.00  0.00     0.002 A 
ATOM     35  CZ3 TRP A   1      43.161 -15.838   2.001  1.00  0.00     0.001 A 
ATOM     36  HE1 TRP A   1      39.335 -15.245   4.931  1.00  0.00     0.165 HD
ATOM     37  CD1 TRP A   1      40.763 -13.734   5.337  1.00  0.00     0.096 A 
ENDBRANCH  27  28
ENDBRANCH  23  27
ENDBRANCH   5  23
TORSDOF 8
ENDMDL
