MODEL 1
REMARK VINA RESULT:     -10.1      0.000      0.000
REMARK  8 active torsions:
REMARK  status: ('A' for Active; 'I' for Inactive)
REMARK    1  A    between atoms: C_2  and  C_3 
REMARK    2  A    between atoms: C_6  and  N_7 
REMARK       I    between atoms: N_7  and  C_8 
REMARK    3  A    between atoms: C_8  and  C_9 
REMARK    4  A    between atoms: C_9  and  S_10 
REMARK    5  A    between atoms: S_10  and  C_11 
REMARK    6  A    between atoms: C_23  and  C_24 
REMARK    7  A    between atoms: C_24  and  C_25 
REMARK       I    between atoms: C_25  and  N_26 
REMARK    8  A    between atoms: N_26  and  C_27 
ROOT
HETATM    1  C   UNL     1      42.770 -10.246   6.376  1.00  0.00     0.178 C 
HETATM    2  N   UNL     1      43.658  -9.795   7.339  1.00  0.00    -0.241 N 
HETATM    3  C   UNL     1      43.558  -8.547   7.862  1.00  0.00     0.147 C 
HETATM    4  N   UNL     1      44.512  -8.143   8.646  1.00  0.00    -0.256 NA
HETATM    5  C   UNL     1      42.372  -7.763   7.517  1.00  0.00     0.039 A 
HETATM    6  C   UNL     1      41.469  -8.347   6.621  1.00  0.00     0.073 A 
HETATM    7  C   UNL     1      42.121  -6.521   8.106  1.00  0.00     0.018 A 
HETATM    8  C   UNL     1      40.941  -5.847   7.797  1.00  0.00     0.001 A 
HETATM    9  C   UNL     1      40.026  -6.417   6.911  1.00  0.00     0.002 A 
HETATM   10  C   UNL     1      40.290  -7.659   6.327  1.00  0.00     0.032 A 
HETATM   11  C   UNL     1      44.736 -10.409   7.933  1.00  0.00     0.257 C 
HETATM   12  O   UNL     1      45.059 -11.586   7.915  1.00  0.00    -0.270 OA
HETATM   13  C   UNL     1      45.420  -9.324   8.745  1.00  0.00     0.211 C 
HETATM   14  N   UNL     1      41.716  -9.588   6.003  1.00  0.00    -0.223 NA
ENDROOT
BRANCH   1  15
HETATM   15  S   UNL     1      43.121 -11.730   5.527  1.00  0.00    -0.082 SA
BRANCH  15  16
HETATM   16  C   UNL     1      41.545 -12.587   5.761  1.00  0.00     0.185 C 
BRANCH  16  17
HETATM   17  C   UNL     1      41.642 -14.106   5.688  1.00  0.00     0.231 C 
HETATM   18  N   UNL     1      42.665 -14.589   4.896  1.00  0.00    -0.327 N 
HETATM   19  H   UNL     1      43.346 -13.905   4.572  1.00  0.00     0.169 HD
HETATM   20  O   UNL     1      40.781 -14.791   6.239  1.00  0.00    -0.272 OA
BRANCH  18  21
HETATM   21  C   UNL     1      42.843 -15.901   4.415  1.00  0.00     0.034 A 
HETATM   22  C   UNL     1      42.392 -16.343   3.174  1.00  0.00     0.030 A 
HETATM   23  C   UNL     1      42.735 -17.619   2.710  1.00  0.00     0.010 A 
HETATM   24  C   UNL     1      43.526 -18.479   3.482  1.00  0.00    -0.055 A 
HETATM   25  C   UNL     1      43.929 -18.050   4.751  1.00  0.00     0.010 A 
HETATM   26  C   UNL     1      43.585 -16.776   5.213  1.00  0.00     0.030 A 
BRANCH  24  27
HETATM   27  C   UNL     1      44.005 -19.818   2.951  1.00  0.00     0.010 C 
HETATM   28  C   UNL     1      43.207 -20.207   1.702  1.00  0.00     0.015 C 
HETATM   29  C   UNL     1      43.951 -20.932   3.999  1.00  0.00     0.015 C 
ENDBRANCH  24  27
ENDBRANCH  18  21
ENDBRANCH  16  17
ENDBRANCH  15  16
ENDBRANCH   1  15
BRANCH  13  30
HETATM   30  C   UNL     1      45.593  -9.692  10.212  1.00  0.00     0.140 C 
BRANCH  30  31
HETATM   31  C   UNL     1      44.305  -9.918  10.989  1.00  0.00     0.220 C 
HETATM   32  N   UNL     1      43.585  -8.793  11.310  1.00  0.00    -0.356 N 
HETATM   33  H   UNL     1      43.629  -8.055  10.614  1.00  0.00     0.162 HD
HETATM   34  O   UNL     1      43.968 -11.055  11.310  1.00  0.00    -0.274 OA
BRANCH  32  35
HETATM   35  C   UNL     1      42.369  -8.793  12.128  1.00  0.00     0.084 C 
HETATM   36  C   UNL     1      42.625  -8.626  13.637  1.00  0.00     0.025 C 
HETATM   37  C   UNL     1      43.226  -7.264  13.977  1.00  0.00     0.002 C 
HETATM   38  C   UNL     1      42.351  -6.125  13.464  1.00  0.00     0.000 C 
HETATM   39  C   UNL     1      42.029  -6.272  11.979  1.00  0.00     0.002 C 
HETATM   40  C   UNL     1      41.451  -7.653  11.652  1.00  0.00     0.025 C 
ENDBRANCH  32  35
ENDBRANCH  30  31
ENDBRANCH  13  30
TORSDOF 8
ENDMDL
MODEL 2
REMARK VINA RESULT:      -9.9      2.138     10.434
REMARK  8 active torsions:
REMARK  status: ('A' for Active; 'I' for Inactive)
REMARK    1  A    between atoms: C_2  and  C_3 
REMARK    2  A    between atoms: C_6  and  N_7 
REMARK       I    between atoms: N_7  and  C_8 
REMARK    3  A    between atoms: C_8  and  C_9 
REMARK    4  A    between atoms: C_9  and  S_10 
REMARK    5  A    between atoms: S_10  and  C_11 
REMARK    6  A    between atoms: C_23  and  C_24 
REMARK    7  A    between atoms: C_24  and  C_25 
REMARK       I    between atoms: C_25  and  N_26 
REMARK    8  A    between atoms: N_26  and  C_27 
ROOT
HETATM    1  C   UNL     1      42.403 -12.656   4.351  1.00  0.00     0.178 C 
HETATM    2  N   UNL     1      42.082 -13.787   5.084  1.00  0.00    -0.241 N 
HETATM    3  C   UNL     1      41.292 -14.762   4.567  1.00  0.00     0.147 C 
HETATM    4  N   UNL     1      40.912 -15.716   5.363  1.00  0.00    -0.256 NA
HETATM    5  C   UNL     1      40.947 -14.671   3.148  1.00  0.00     0.039 A 
HETATM    6  C   UNL     1      41.411 -13.546   2.457  1.00  0.00     0.073 A 
HETATM    7  C   UNL     1      40.246 -15.692   2.500  1.00  0.00     0.018 A 
HETATM    8  C   UNL     1      40.004 -15.588   1.131  1.00  0.00     0.001 A 
HETATM    9  C   UNL     1      40.466 -14.477   0.425  1.00  0.00     0.002 A 
HETATM   10  C   UNL     1      41.165 -13.462   1.086  1.00  0.00     0.032 A 
HETATM   11  C   UNL     1      42.426 -14.166   6.360  1.00  0.00     0.257 C 
HETATM   12  O   UNL     1      43.277 -13.698   7.099  1.00  0.00    -0.270 OA
HETATM   13  C   UNL     1      41.593 -15.400   6.653  1.00  0.00     0.211 C 
HETATM   14  N   UNL     1      42.102 -12.499   3.099  1.00  0.00    -0.223 NA
ENDROOT
BRANCH   1  15
HETATM   15  S   UNL     1      43.163 -11.310   5.160  1.00  0.00    -0.082 SA
BRANCH  15  16
HETATM   16  C   UNL     1      41.688 -10.456   5.767  1.00  0.00     0.185 C 
BRANCH  16  17
HETATM   17  C   UNL     1      41.948  -9.511   6.934  1.00  0.00     0.231 C 
HETATM   18  N   UNL     1      42.393 -10.119   8.091  1.00  0.00    -0.327 N 
HETATM   19  H   UNL     1      42.657 -11.100   8.012  1.00  0.00     0.169 HD
HETATM   20  O   UNL     1      41.669  -8.318   6.816  1.00  0.00    -0.272 OA
BRANCH  18  21
HETATM   21  C   UNL     1      42.454  -9.574   9.388  1.00  0.00     0.034 A 
HETATM   22  C   UNL     1      41.337  -9.184  10.123  1.00  0.00     0.030 A 
HETATM   23  C   UNL     1      41.472  -8.787  11.459  1.00  0.00     0.010 A 
HETATM   24  C   UNL     1      42.726  -8.763  12.082  1.00  0.00    -0.055 A 
HETATM   25  C   UNL     1      43.850  -9.102  11.321  1.00  0.00     0.010 A 
HETATM   26  C   UNL     1      43.714  -9.497   9.987  1.00  0.00     0.030 A 
BRANCH  24  27
HETATM   27  C   UNL     1      42.881  -8.448  13.558  1.00  0.00     0.010 C 
HETATM   28  C   UNL     1      41.618  -8.860  14.321  1.00  0.00     0.015 C 
HETATM   29  C   UNL     1      43.222  -6.980  13.825  1.00  0.00     0.015 C 
ENDBRANCH  24  27
ENDBRANCH  18  21
ENDBRANCH  16  17
ENDBRANCH  15  16
ENDBRANCH   1  15
BRANCH  13  30
HETATM   30  C   UNL     1      42.428 -16.600   7.078  1.00  0.00     0.140 C 
BRANCH  30  31
HETATM   31  C   UNL     1      43.627 -16.912   6.196  1.00  0.00     0.220 C 
HETATM   32  N   UNL     1      43.358 -17.557   5.012  1.00  0.00    -0.356 N 
HETATM   33  H   UNL     1      42.475 -17.297   4.586  1.00  0.00     0.162 HD
HETATM   34  O   UNL     1      44.759 -16.606   6.560  1.00  0.00    -0.274 OA
BRANCH  32  35
HETATM   35  C   UNL     1      44.381 -18.020   4.072  1.00  0.00     0.084 C 
HETATM   36  C   UNL     1      44.709 -19.520   4.187  1.00  0.00     0.025 C 
HETATM   37  C   UNL     1      43.522 -20.405   3.813  1.00  0.00     0.002 C 
HETATM   38  C   UNL     1      43.008 -20.087   2.413  1.00  0.00     0.000 C 
HETATM   39  C   UNL     1      42.713 -18.600   2.234  1.00  0.00     0.002 C 
HETATM   40  C   UNL     1      43.906 -17.726   2.637  1.00  0.00     0.025 C 
ENDBRANCH  32  35
ENDBRANCH  30  31
ENDBRANCH  13  30
TORSDOF 8
ENDMDL
MODEL 3
REMARK VINA RESULT:      -9.7      3.517     11.234
REMARK  8 active torsions:
REMARK  status: ('A' for Active; 'I' for Inactive)
REMARK    1  A    between atoms: C_2  and  C_3 
REMARK    2  A    between atoms: C_6  and  N_7 
REMARK       I    between atoms: N_7  and  C_8 
REMARK    3  A    between atoms: C_8  and  C_9 
REMARK    4  A    between atoms: C_9  and  S_10 
REMARK    5  A    between atoms: S_10  and  C_11 
REMARK    6  A    between atoms: C_23  and  C_24 
REMARK    7  A    between atoms: C_24  and  C_25 
REMARK       I    between atoms: C_25  and  N_26 
REMARK    8  A    between atoms: N_26  and  C_27 
ROOT
HETATM    1  C   UNL     1      43.011 -15.010   5.699  1.00  0.00     0.178 C 
HETATM    2  N   UNL     1      42.256 -14.577   4.621  1.00  0.00    -0.241 N 
HETATM    3  C   UNL     1      42.256 -15.250   3.442  1.00  0.00     0.147 C 
HETATM    4  N   UNL     1      41.646 -14.704   2.435  1.00  0.00    -0.256 NA
HETATM    5  C   UNL     1      42.928 -16.550   3.408  1.00  0.00     0.039 A 
HETATM    6  C   UNL     1      43.571 -16.960   4.581  1.00  0.00     0.073 A 
HETATM    7  C   UNL     1      42.872 -17.371   2.278  1.00  0.00     0.018 A 
HETATM    8  C   UNL     1      43.469 -18.630   2.321  1.00  0.00     0.001 A 
HETATM    9  C   UNL     1      44.108 -19.057   3.485  1.00  0.00     0.002 A 
HETATM   10  C   UNL     1      44.158 -18.226   4.608  1.00  0.00     0.032 A 
HETATM   11  C   UNL     1      41.425 -13.491   4.477  1.00  0.00     0.257 C 
HETATM   12  O   UNL     1      40.976 -12.746   5.333  1.00  0.00    -0.270 OA
HETATM   13  C   UNL     1      41.062 -13.454   3.004  1.00  0.00     0.211 C 
HETATM   14  N   UNL     1      43.654 -16.136   5.722  1.00  0.00    -0.223 NA
ENDROOT
BRANCH   1  15
HETATM   15  S   UNL     1      43.210 -13.955   7.073  1.00  0.00    -0.082 SA
BRANCH  15  16
HETATM   16  C   UNL     1      44.438 -12.811   6.397  1.00  0.00     0.185 C 
BRANCH  16  17
HETATM   17  C   UNL     1      44.670 -11.567   7.246  1.00  0.00     0.231 C 
HETATM   18  N   UNL     1      43.842 -11.447   8.344  1.00  0.00    -0.327 N 
HETATM   19  H   UNL     1      43.275 -12.261   8.574  1.00  0.00     0.169 HD
HETATM   20  O   UNL     1      45.484 -10.725   6.870  1.00  0.00    -0.272 OA
BRANCH  18  21
HETATM   21  C   UNL     1      43.623 -10.308   9.144  1.00  0.00     0.034 A 
HETATM   22  C   UNL     1      42.676  -9.326   8.860  1.00  0.00     0.030 A 
HETATM   23  C   UNL     1      42.421  -8.302   9.780  1.00  0.00     0.010 A 
HETATM   24  C   UNL     1      43.115  -8.234  10.995  1.00  0.00    -0.055 A 
HETATM   25  C   UNL     1      44.103  -9.191  11.249  1.00  0.00     0.010 A 
HETATM   26  C   UNL     1      44.357 -10.212  10.329  1.00  0.00     0.030 A 
BRANCH  24  27
HETATM   27  C   UNL     1      42.773  -7.202  12.055  1.00  0.00     0.010 C 
HETATM   28  C   UNL     1      43.133  -7.735  13.446  1.00  0.00     0.015 C 
HETATM   29  C   UNL     1      41.311  -6.755  12.006  1.00  0.00     0.015 C 
ENDBRANCH  24  27
ENDBRANCH  18  21
ENDBRANCH  16  17
ENDBRANCH  15  16
ENDBRANCH   1  15
BRANCH  13  30
HETATM   30  C   UNL     1      39.560 -13.453   2.757  1.00  0.00     0.140 C 
BRANCH  30  31
HETATM   31  C   UNL     1      39.073 -12.509   1.669  1.00  0.00     0.220 C 
HETATM   32  N   UNL     1      39.040 -13.018   0.393  1.00  0.00    -0.356 N 
HETATM   33  H   UNL     1      38.808 -14.004   0.342  1.00  0.00     0.162 HD
HETATM   34  O   UNL     1      38.752 -11.356   1.949  1.00  0.00    -0.274 OA
BRANCH  32  35
HETATM   35  C   UNL     1      38.687 -12.242  -0.799  1.00  0.00     0.084 C 
HETATM   36  C   UNL     1      39.832 -11.368  -1.343  1.00  0.00     0.025 C 
HETATM   37  C   UNL     1      41.007 -12.200  -1.852  1.00  0.00     0.002 C 
HETATM   38  C   UNL     1      40.563 -13.202  -2.913  1.00  0.00     0.000 C 
HETATM   39  C   UNL     1      39.395 -14.062  -2.437  1.00  0.00     0.002 C 
HETATM   40  C   UNL     1      38.235 -13.212  -1.906  1.00  0.00     0.025 C 
ENDBRANCH  32  35
ENDBRANCH  30  31
ENDBRANCH  13  30
TORSDOF 8
ENDMDL
MODEL 4
REMARK VINA RESULT:      -9.6      2.188      3.519
REMARK  8 active torsions:
REMARK  status: ('A' for Active; 'I' for Inactive)
REMARK    1  A    between atoms: C_2  and  C_3 
REMARK    2  A    between atoms: C_6  and  N_7 
REMARK       I    between atoms: N_7  and  C_8 
REMARK    3  A    between atoms: C_8  and  C_9 
REMARK    4  A    between atoms: C_9  and  S_10 
REMARK    5  A    between atoms: S_10  and  C_11 
REMARK    6  A    between atoms: C_23  and  C_24 
REMARK    7  A    between atoms: C_24  and  C_25 
REMARK       I    between atoms: C_25  and  N_26 
REMARK    8  A    between atoms: N_26  and  C_27 
ROOT
HETATM    1  C   UNL     1      41.612 -10.444   6.526  1.00  0.00     0.178 C 
HETATM    2  N   UNL     1      41.030  -9.821   7.618  1.00  0.00    -0.241 N 
HETATM    3  C   UNL     1      41.746  -9.539   8.736  1.00  0.00     0.147 C 
HETATM    4  N   UNL     1      41.100  -9.093   9.771  1.00  0.00    -0.256 NA
HETATM    5  C   UNL     1      43.194  -9.742   8.679  1.00  0.00     0.039 A 
HETATM    6  C   UNL     1      43.711 -10.272   7.490  1.00  0.00     0.073 A 
HETATM    7  C   UNL     1      44.027  -9.361   9.734  1.00  0.00     0.018 A 
HETATM    8  C   UNL     1      45.406  -9.510   9.601  1.00  0.00     0.001 A 
HETATM    9  C   UNL     1      45.939 -10.030   8.421  1.00  0.00     0.002 A 
HETATM   10  C   UNL     1      45.094 -10.409   7.373  1.00  0.00     0.032 A 
HETATM   11  C   UNL     1      39.742  -9.388   7.832  1.00  0.00     0.257 C 
HETATM   12  O   UNL     1      38.831  -9.254   7.030  1.00  0.00    -0.270 OA
HETATM   13  C   UNL     1      39.690  -8.984   9.293  1.00  0.00     0.211 C 
HETATM   14  N   UNL     1      42.883 -10.679   6.425  1.00  0.00    -0.223 NA
ENDROOT
BRANCH   1  15
HETATM   15  S   UNL     1      40.589 -11.049   5.250  1.00  0.00    -0.082 SA
BRANCH  15  16
HETATM   16  C   UNL     1      41.825 -11.933   4.269  1.00  0.00     0.185 C 
BRANCH  16  17
HETATM   17  C   UNL     1      41.728 -13.451   4.359  1.00  0.00     0.231 C 
HETATM   18  N   UNL     1      42.875 -14.132   4.004  1.00  0.00    -0.327 N 
HETATM   19  H   UNL     1      43.713 -13.569   3.874  1.00  0.00     0.169 HD
HETATM   20  O   UNL     1      40.648 -13.969   4.641  1.00  0.00    -0.272 OA
BRANCH  18  21
HETATM   21  C   UNL     1      43.014 -15.505   3.721  1.00  0.00     0.034 A 
HETATM   22  C   UNL     1      42.814 -16.066   2.462  1.00  0.00     0.030 A 
HETATM   23  C   UNL     1      43.113 -17.414   2.232  1.00  0.00     0.010 A 
HETATM   24  C   UNL     1      43.609 -18.229   3.258  1.00  0.00    -0.055 A 
HETATM   25  C   UNL     1      43.755 -17.673   4.533  1.00  0.00     0.010 A 
HETATM   26  C   UNL     1      43.455 -16.327   4.762  1.00  0.00     0.030 A 
BRANCH  24  27
HETATM   27  C   UNL     1      44.049 -19.659   3.002  1.00  0.00     0.010 C 
HETATM   28  C   UNL     1      43.262 -20.252   1.829  1.00  0.00     0.015 C 
HETATM   29  C   UNL     1      43.933 -20.551   4.240  1.00  0.00     0.015 C 
ENDBRANCH  24  27
ENDBRANCH  18  21
ENDBRANCH  16  17
ENDBRANCH  15  16
ENDBRANCH   1  15
BRANCH  13  30
HETATM   30  C   UNL     1      39.207  -7.555   9.503  1.00  0.00     0.140 C 
BRANCH  30  31
HETATM   31  C   UNL     1      40.086  -6.688  10.391  1.00  0.00     0.220 C 
HETATM   32  N   UNL     1      40.259  -7.122  11.683  1.00  0.00    -0.356 N 
HETATM   33  H   UNL     1      40.282  -8.131  11.786  1.00  0.00     0.162 HD
HETATM   34  O   UNL     1      40.583  -5.655   9.949  1.00  0.00    -0.274 OA
BRANCH  32  35
HETATM   35  C   UNL     1      40.995  -6.383  12.713  1.00  0.00     0.084 C 
HETATM   36  C   UNL     1      40.532  -6.678  14.151  1.00  0.00     0.025 C 
HETATM   37  C   UNL     1      40.796  -8.125  14.561  1.00  0.00     0.002 C 
HETATM   38  C   UNL     1      42.267  -8.492  14.399  1.00  0.00     0.000 C 
HETATM   39  C   UNL     1      42.787  -8.173  12.999  1.00  0.00     0.002 C 
HETATM   40  C   UNL     1      42.492  -6.724  12.594  1.00  0.00     0.025 C 
ENDBRANCH  32  35
ENDBRANCH  30  31
ENDBRANCH  13  30
TORSDOF 8
ENDMDL
MODEL 5
REMARK VINA RESULT:      -9.4      3.720      9.586
REMARK  8 active torsions:
REMARK  status: ('A' for Active; 'I' for Inactive)
REMARK    1  A    between atoms: C_2  and  C_3 
REMARK    2  A    between atoms: C_6  and  N_7 
REMARK       I    between atoms: N_7  and  C_8 
REMARK    3  A    between atoms: C_8  and  C_9 
REMARK    4  A    between atoms: C_9  and  S_10 
REMARK    5  A    between atoms: S_10  and  C_11 
REMARK    6  A    between atoms: C_23  and  C_24 
REMARK    7  A    between atoms: C_24  and  C_25 
REMARK       I    between atoms: C_25  and  N_26 
REMARK    8  A    between atoms: N_26  and  C_27 
ROOT
HETATM    1  C   UNL     1      41.133 -12.100   0.857  1.00  0.00     0.178 C 
HETATM    2  N   UNL     1      41.303 -13.439   1.167  1.00  0.00    -0.241 N 
HETATM    3  C   UNL     1      40.630 -14.410   0.499  1.00  0.00     0.147 C 
HETATM    4  N   UNL     1      40.727 -15.627   0.944  1.00  0.00    -0.256 NA
HETATM    5  C   UNL     1      39.864 -14.011  -0.682  1.00  0.00     0.039 A 
HETATM    6  C   UNL     1      39.840 -12.645  -0.986  1.00  0.00     0.073 A 
HETATM    7  C   UNL     1      39.244 -14.956  -1.504  1.00  0.00     0.018 A 
HETATM    8  C   UNL     1      38.587 -14.529  -2.656  1.00  0.00     0.001 A 
HETATM    9  C   UNL     1      38.559 -13.172  -2.978  1.00  0.00     0.002 A 
HETATM   10  C   UNL     1      39.182 -12.237  -2.147  1.00  0.00     0.032 A 
HETATM   11  C   UNL     1      42.090 -14.056   2.112  1.00  0.00     0.257 C 
HETATM   12  O   UNL     1      42.998 -13.590   2.781  1.00  0.00    -0.270 OA
HETATM   13  C   UNL     1      41.676 -15.515   2.091  1.00  0.00     0.211 C 
HETATM   14  N   UNL     1      40.443 -11.678  -0.158  1.00  0.00    -0.223 NA
ENDROOT
BRANCH   1  15
HETATM   15  S   UNL     1      41.783 -10.891   1.932  1.00  0.00    -0.082 SA
BRANCH  15  16
HETATM   16  C   UNL     1      40.402 -10.749   3.092  1.00  0.00     0.185 C 
BRANCH  16  17
HETATM   17  C   UNL     1      40.748 -11.123   4.528  1.00  0.00     0.231 C 
HETATM   18  N   UNL     1      41.548 -10.213   5.192  1.00  0.00    -0.327 N 
HETATM   19  H   UNL     1      41.695  -9.319   4.728  1.00  0.00     0.169 HD
HETATM   20  O   UNL     1      40.390 -12.214   4.969  1.00  0.00    -0.272 OA
BRANCH  18  21
HETATM   21  C   UNL     1      42.251 -10.397   6.398  1.00  0.00     0.034 A 
HETATM   22  C   UNL     1      43.299 -11.300   6.560  1.00  0.00     0.030 A 
HETATM   23  C   UNL     1      44.041 -11.319   7.747  1.00  0.00     0.010 A 
HETATM   24  C   UNL     1      43.742 -10.443   8.799  1.00  0.00    -0.055 A 
HETATM   25  C   UNL     1      42.654  -9.577   8.651  1.00  0.00     0.010 A 
HETATM   26  C   UNL     1      41.914  -9.560   7.466  1.00  0.00     0.030 A 
BRANCH  24  27
HETATM   27  C   UNL     1      44.604 -10.367  10.046  1.00  0.00     0.010 C 
HETATM   28  C   UNL     1      43.727 -10.129  11.280  1.00  0.00     0.015 C 
HETATM   29  C   UNL     1      45.705  -9.309   9.950  1.00  0.00     0.015 C 
ENDBRANCH  24  27
ENDBRANCH  18  21
ENDBRANCH  16  17
ENDBRANCH  15  16
ENDBRANCH   1  15
BRANCH  13  30
HETATM   30  C   UNL     1      42.843 -16.465   1.860  1.00  0.00     0.140 C 
BRANCH  30  31
HETATM   31  C   UNL     1      43.291 -17.263   3.075  1.00  0.00     0.220 C 
HETATM   32  N   UNL     1      43.492 -16.548   4.231  1.00  0.00    -0.356 N 
HETATM   33  H   UNL     1      42.863 -15.761   4.351  1.00  0.00     0.162 HD
HETATM   34  O   UNL     1      43.469 -18.476   2.987  1.00  0.00    -0.274 OA
BRANCH  32  35
HETATM   35  C   UNL     1      44.006 -17.118   5.478  1.00  0.00     0.084 C 
HETATM   36  C   UNL     1      44.897 -16.159   6.289  1.00  0.00     0.025 C 
HETATM   37  C   UNL     1      44.127 -14.943   6.800  1.00  0.00     0.002 C 
HETATM   38  C   UNL     1      42.914 -15.357   7.626  1.00  0.00     0.000 C 
HETATM   39  C   UNL     1      42.023 -16.348   6.881  1.00  0.00     0.002 C 
HETATM   40  C   UNL     1      42.816 -17.549   6.355  1.00  0.00     0.025 C 
ENDBRANCH  32  35
ENDBRANCH  30  31
ENDBRANCH  13  30
TORSDOF 8
ENDMDL
MODEL 6
REMARK VINA RESULT:      -9.1      2.851      9.475
REMARK  8 active torsions:
REMARK  status: ('A' for Active; 'I' for Inactive)
REMARK    1  A    between atoms: C_2  and  C_3 
REMARK    2  A    between atoms: C_6  and  N_7 
REMARK       I    between atoms: N_7  and  C_8 
REMARK    3  A    between atoms: C_8  and  C_9 
REMARK    4  A    between atoms: C_9  and  S_10 
REMARK    5  A    between atoms: S_10  and  C_11 
REMARK    6  A    between atoms: C_23  and  C_24 
REMARK    7  A    between atoms: C_24  and  C_25 
REMARK       I    between atoms: C_25  and  N_26 
REMARK    8  A    between atoms: N_26  and  C_27 
ROOT
HETATM    1  C   UNL     1      41.009 -10.670   5.798  1.00  0.00     0.178 C 
HETATM    2  N   UNL     1      41.495 -11.084   4.569  1.00  0.00    -0.241 N 
HETATM    3  C   UNL     1      42.825 -11.243   4.352  1.00  0.00     0.147 C 
HETATM    4  N   UNL     1      43.214 -11.487   3.137  1.00  0.00    -0.256 NA
HETATM    5  C   UNL     1      43.714 -11.148   5.511  1.00  0.00     0.039 A 
HETATM    6  C   UNL     1      43.119 -10.835   6.739  1.00  0.00     0.073 A 
HETATM    7  C   UNL     1      45.080 -11.422   5.407  1.00  0.00     0.018 A 
HETATM    8  C   UNL     1      45.870 -11.386   6.555  1.00  0.00     0.001 A 
HETATM    9  C   UNL     1      45.292 -11.083   7.788  1.00  0.00     0.002 A 
HETATM   10  C   UNL     1      43.925 -10.810   7.878  1.00  0.00     0.032 A 
HETATM   11  C   UNL     1      40.845 -11.394   3.397  1.00  0.00     0.257 C 
HETATM   12  O   UNL     1      39.655 -11.585   3.204  1.00  0.00    -0.270 OA
HETATM   13  C   UNL     1      41.940 -11.573   2.363  1.00  0.00     0.211 C 
HETATM   14  N   UNL     1      41.747 -10.537   6.857  1.00  0.00    -0.223 NA
ENDROOT
BRANCH   1  15
HETATM   15  S   UNL     1      39.336 -10.195   5.932  1.00  0.00    -0.082 SA
BRANCH  15  16
HETATM   16  C   UNL     1      39.554  -8.454   6.374  1.00  0.00     0.185 C 
BRANCH  16  17
HETATM   17  C   UNL     1      39.739  -8.205   7.866  1.00  0.00     0.231 C 
HETATM   18  N   UNL     1      41.041  -7.974   8.263  1.00  0.00    -0.327 N 
HETATM   19  H   UNL     1      41.721  -7.832   7.519  1.00  0.00     0.169 HD
HETATM   20  O   UNL     1      38.771  -8.312   8.618  1.00  0.00    -0.272 OA
BRANCH  18  21
HETATM   21  C   UNL     1      41.563  -7.986   9.571  1.00  0.00     0.034 A 
HETATM   22  C   UNL     1      41.870  -6.839  10.299  1.00  0.00     0.030 A 
HETATM   23  C   UNL     1      42.247  -6.934  11.644  1.00  0.00     0.010 A 
HETATM   24  C   UNL     1      42.334  -8.177  12.284  1.00  0.00    -0.055 A 
HETATM   25  C   UNL     1      42.077  -9.329  11.532  1.00  0.00     0.010 A 
HETATM   26  C   UNL     1      41.702  -9.233  10.189  1.00  0.00     0.030 A 
BRANCH  24  27
HETATM   27  C   UNL     1      42.627  -8.295  13.768  1.00  0.00     0.010 C 
HETATM   28  C   UNL     1      41.360  -8.705  14.526  1.00  0.00     0.015 C 
HETATM   29  C   UNL     1      43.227  -7.019  14.363  1.00  0.00     0.015 C 
ENDBRANCH  24  27
ENDBRANCH  18  21
ENDBRANCH  16  17
ENDBRANCH  15  16
ENDBRANCH   1  15
BRANCH  13  30
HETATM   30  C   UNL     1      41.883 -12.918   1.655  1.00  0.00     0.140 C 
BRANCH  30  31
HETATM   31  C   UNL     1      42.696 -14.033   2.294  1.00  0.00     0.220 C 
HETATM   32  N   UNL     1      42.284 -14.449   3.537  1.00  0.00    -0.356 N 
HETATM   33  H   UNL     1      41.280 -14.416   3.678  1.00  0.00     0.162 HD
HETATM   34  O   UNL     1      43.671 -14.500   1.710  1.00  0.00    -0.274 OA
BRANCH  32  35
HETATM   35  C   UNL     1      42.986 -15.444   4.352  1.00  0.00     0.084 C 
HETATM   36  C   UNL     1      43.466 -14.917   5.716  1.00  0.00     0.025 C 
HETATM   37  C   UNL     1      42.305 -14.531   6.631  1.00  0.00     0.002 C 
HETATM   38  C   UNL     1      41.341 -15.695   6.829  1.00  0.00     0.000 C 
HETATM   39  C   UNL     1      40.872 -16.285   5.501  1.00  0.00     0.002 C 
HETATM   40  C   UNL     1      42.049 -16.643   4.586  1.00  0.00     0.025 C 
ENDBRANCH  32  35
ENDBRANCH  30  31
ENDBRANCH  13  30
TORSDOF 8
ENDMDL
MODEL 7
REMARK VINA RESULT:      -9.1      1.501      2.295
REMARK  8 active torsions:
REMARK  status: ('A' for Active; 'I' for Inactive)
REMARK    1  A    between atoms: C_2  and  C_3 
REMARK    2  A    between atoms: C_6  and  N_7 
REMARK       I    between atoms: N_7  and  C_8 
REMARK    3  A    between atoms: C_8  and  C_9 
REMARK    4  A    between atoms: C_9  and  S_10 
REMARK    5  A    between atoms: S_10  and  C_11 
REMARK    6  A    between atoms: C_23  and  C_24 
REMARK    7  A    between atoms: C_24  and  C_25 
REMARK       I    between atoms: C_25  and  N_26 
REMARK    8  A    between atoms: N_26  and  C_27 
ROOT
HETATM    1  C   UNL     1      41.520  -8.320   6.976  1.00  0.00     0.178 C 
HETATM    2  N   UNL     1      42.737  -8.378   7.637  1.00  0.00    -0.241 N 
HETATM    3  C   UNL     1      43.136  -7.385   8.471  1.00  0.00     0.147 C 
HETATM    4  N   UNL     1      44.348  -7.437   8.934  1.00  0.00    -0.256 NA
HETATM    5  C   UNL     1      42.161  -6.344   8.797  1.00  0.00     0.039 A 
HETATM    6  C   UNL     1      40.914  -6.428   8.167  1.00  0.00     0.073 A 
HETATM    7  C   UNL     1      42.439  -5.354   9.743  1.00  0.00     0.018 A 
HETATM    8  C   UNL     1      41.450  -4.428  10.070  1.00  0.00     0.001 A 
HETATM    9  C   UNL     1      40.199  -4.501   9.456  1.00  0.00     0.002 A 
HETATM   10  C   UNL     1      39.934  -5.496   8.511  1.00  0.00     0.032 A 
HETATM   11  C   UNL     1      43.731  -9.328   7.618  1.00  0.00     0.257 C 
HETATM   12  O   UNL     1      43.702 -10.465   7.174  1.00  0.00    -0.270 OA
HETATM   13  C   UNL     1      44.889  -8.715   8.384  1.00  0.00     0.211 C 
HETATM   14  N   UNL     1      40.624  -7.408   7.197  1.00  0.00    -0.223 NA
ENDROOT
BRANCH   1  15
HETATM   15  S   UNL     1      41.193  -9.462   5.699  1.00  0.00    -0.082 SA
BRANCH  15  16
HETATM   16  C   UNL     1      40.335 -10.738   6.652  1.00  0.00     0.185 C 
BRANCH  16  17
HETATM   17  C   UNL     1      40.512 -12.150   6.109  1.00  0.00     0.231 C 
HETATM   18  N   UNL     1      41.772 -12.689   6.282  1.00  0.00    -0.327 N 
HETATM   19  H   UNL     1      42.406 -12.170   6.887  1.00  0.00     0.169 HD
HETATM   20  O   UNL     1      39.590 -12.677   5.488  1.00  0.00    -0.272 OA
BRANCH  18  21
HETATM   21  C   UNL     1      42.319 -13.830   5.663  1.00  0.00     0.034 A 
HETATM   22  C   UNL     1      42.418 -15.077   6.276  1.00  0.00     0.030 A 
HETATM   23  C   UNL     1      42.839 -16.194   5.544  1.00  0.00     0.010 A 
HETATM   24  C   UNL     1      43.179 -16.083   4.189  1.00  0.00    -0.055 A 
HETATM   25  C   UNL     1      43.131 -14.817   3.595  1.00  0.00     0.010 A 
HETATM   26  C   UNL     1      42.711 -13.703   4.328  1.00  0.00     0.030 A 
BRANCH  24  27
HETATM   27  C   UNL     1      43.527 -17.298   3.349  1.00  0.00     0.010 C 
HETATM   28  C   UNL     1      42.357 -17.653   2.425  1.00  0.00     0.015 C 
HETATM   29  C   UNL     1      43.942 -18.508   4.189  1.00  0.00     0.015 C 
ENDBRANCH  24  27
ENDBRANCH  18  21
ENDBRANCH  16  17
ENDBRANCH  15  16
ENDBRANCH   1  15
BRANCH  13  30
HETATM   30  C   UNL     1      45.373  -9.584   9.536  1.00  0.00     0.140 C 
BRANCH  30  31
HETATM   31  C   UNL     1      44.285 -10.137  10.444  1.00  0.00     0.220 C 
HETATM   32  N   UNL     1      43.735  -9.254  11.341  1.00  0.00    -0.356 N 
HETATM   33  H   UNL     1      43.669  -8.300  11.002  1.00  0.00     0.162 HD
HETATM   34  O   UNL     1      43.953 -11.318  10.363  1.00  0.00    -0.274 OA
BRANCH  32  35
HETATM   35  C   UNL     1      42.742  -9.614  12.355  1.00  0.00     0.084 C 
HETATM   36  C   UNL     1      42.577  -8.570  13.475  1.00  0.00     0.025 C 
HETATM   37  C   UNL     1      42.022  -7.245  12.956  1.00  0.00     0.002 C 
HETATM   38  C   UNL     1      40.698  -7.443  12.224  1.00  0.00     0.000 C 
HETATM   39  C   UNL     1      40.799  -8.506  11.133  1.00  0.00     0.002 C 
HETATM   40  C   UNL     1      41.381  -9.821  11.666  1.00  0.00     0.025 C 
ENDBRANCH  32  35
ENDBRANCH  30  31
ENDBRANCH  13  30
TORSDOF 8
ENDMDL
MODEL 8
REMARK VINA RESULT:      -9.0      2.539      4.014
REMARK  8 active torsions:
REMARK  status: ('A' for Active; 'I' for Inactive)
REMARK    1  A    between atoms: C_2  and  C_3 
REMARK    2  A    between atoms: C_6  and  N_7 
REMARK       I    between atoms: N_7  and  C_8 
REMARK    3  A    between atoms: C_8  and  C_9 
REMARK    4  A    between atoms: C_9  and  S_10 
REMARK    5  A    between atoms: S_10  and  C_11 
REMARK    6  A    between atoms: C_23  and  C_24 
REMARK    7  A    between atoms: C_24  and  C_25 
REMARK       I    between atoms: C_25  and  N_26 
REMARK    8  A    between atoms: N_26  and  C_27 
ROOT
HETATM    1  C   UNL     1      40.834 -11.024   4.806  1.00  0.00     0.178 C 
HETATM    2  N   UNL     1      40.491 -10.373   5.980  1.00  0.00    -0.241 N 
HETATM    3  C   UNL     1      41.375 -10.242   7.001  1.00  0.00     0.147 C 
HETATM    4  N   UNL     1      40.935  -9.755   8.122  1.00  0.00    -0.256 NA
HETATM    5  C   UNL     1      42.760 -10.644   6.750  1.00  0.00     0.039 A 
HETATM    6  C   UNL     1      43.040 -11.189   5.492  1.00  0.00     0.073 A 
HETATM    7  C   UNL     1      43.765 -10.428   7.697  1.00  0.00     0.018 A 
HETATM    8  C   UNL     1      45.081 -10.764   7.380  1.00  0.00     0.001 A 
HETATM    9  C   UNL     1      45.379 -11.303   6.128  1.00  0.00     0.002 A 
HETATM   10  C   UNL     1      44.364 -11.514   5.191  1.00  0.00     0.032 A 
HETATM   11  C   UNL     1      39.316  -9.773   6.371  1.00  0.00     0.257 C 
HETATM   12  O   UNL     1      38.341  -9.478   5.698  1.00  0.00    -0.270 OA
HETATM   13  C   UNL     1      39.507  -9.428   7.836  1.00  0.00     0.211 C 
HETATM   14  N   UNL     1      42.036 -11.431   4.534  1.00  0.00    -0.223 NA
ENDROOT
BRANCH   1  15
HETATM   15  S   UNL     1      39.582 -11.424   3.660  1.00  0.00    -0.082 SA
BRANCH  15  16
HETATM   16  C   UNL     1      40.605 -11.776   2.210  1.00  0.00     0.185 C 
BRANCH  16  17
HETATM   17  C   UNL     1      40.855 -13.259   1.966  1.00  0.00     0.231 C 
HETATM   18  N   UNL     1      41.236 -13.979   3.081  1.00  0.00    -0.327 N 
HETATM   19  H   UNL     1      41.160 -13.500   3.976  1.00  0.00     0.169 HD
HETATM   20  O   UNL     1      40.798 -13.698   0.818  1.00  0.00    -0.272 OA
BRANCH  18  21
HETATM   21  C   UNL     1      41.793 -15.272   3.128  1.00  0.00     0.034 A 
HETATM   22  C   UNL     1      41.462 -16.297   2.244  1.00  0.00     0.030 A 
HETATM   23  C   UNL     1      42.167 -17.507   2.267  1.00  0.00     0.010 A 
HETATM   24  C   UNL     1      43.207 -17.719   3.180  1.00  0.00    -0.055 A 
HETATM   25  C   UNL     1      43.497 -16.707   4.102  1.00  0.00     0.010 A 
HETATM   26  C   UNL     1      42.793 -15.500   4.078  1.00  0.00     0.030 A 
BRANCH  24  27
HETATM   27  C   UNL     1      44.058 -18.975   3.145  1.00  0.00     0.010 C 
HETATM   28  C   UNL     1      43.451 -19.998   2.179  1.00  0.00     0.015 C 
HETATM   29  C   UNL     1      44.269 -19.594   4.529  1.00  0.00     0.015 C 
ENDBRANCH  24  27
ENDBRANCH  18  21
ENDBRANCH  16  17
ENDBRANCH  15  16
ENDBRANCH   1  15
BRANCH  13  30
HETATM   30  C   UNL     1      39.266  -7.957   8.142  1.00  0.00     0.140 C 
BRANCH  30  31
HETATM   31  C   UNL     1      40.511  -7.136   8.444  1.00  0.00     0.220 C 
HETATM   32  N   UNL     1      41.092  -7.344   9.671  1.00  0.00    -0.356 N 
HETATM   33  H   UNL     1      41.025  -8.299  10.010  1.00  0.00     0.162 HD
HETATM   34  O   UNL     1      40.934  -6.329   7.620  1.00  0.00    -0.274 OA
BRANCH  32  35
HETATM   35  C   UNL     1      42.240  -6.590  10.182  1.00  0.00     0.084 C 
HETATM   36  C   UNL     1      42.141  -6.228  11.675  1.00  0.00     0.025 C 
HETATM   37  C   UNL     1      42.156  -7.461  12.575  1.00  0.00     0.002 C 
HETATM   38  C   UNL     1      43.391  -8.320  12.325  1.00  0.00     0.000 C 
HETATM   39  C   UNL     1      43.560  -8.667  10.848  1.00  0.00     0.002 C 
HETATM   40  C   UNL     1      43.517  -7.420   9.957  1.00  0.00     0.025 C 
ENDBRANCH  32  35
ENDBRANCH  30  31
ENDBRANCH  13  30
TORSDOF 8
ENDMDL
MODEL 9
REMARK VINA RESULT:      -8.8      6.631      9.581
REMARK  8 active torsions:
REMARK  status: ('A' for Active; 'I' for Inactive)
REMARK    1  A    between atoms: C_2  and  C_3 
REMARK    2  A    between atoms: C_6  and  N_7 
REMARK       I    between atoms: N_7  and  C_8 
REMARK    3  A    between atoms: C_8  and  C_9 
REMARK    4  A    between atoms: C_9  and  S_10 
REMARK    5  A    between atoms: S_10  and  C_11 
REMARK    6  A    between atoms: C_23  and  C_24 
REMARK    7  A    between atoms: C_24  and  C_25 
REMARK       I    between atoms: C_25  and  N_26 
REMARK    8  A    between atoms: N_26  and  C_27 
ROOT
HETATM    1  C   UNL     1      40.677 -11.521   1.574  1.00  0.00     0.178 C 
HETATM    2  N   UNL     1      40.975 -10.438   0.764  1.00  0.00    -0.241 N 
HETATM    3  C   UNL     1      41.163 -10.585  -0.572  1.00  0.00     0.147 C 
HETATM    4  N   UNL     1      41.586  -9.555  -1.239  1.00  0.00    -0.256 NA
HETATM    5  C   UNL     1      40.855 -11.891  -1.157  1.00  0.00     0.039 A 
HETATM    6  C   UNL     1      40.451 -12.899  -0.273  1.00  0.00     0.073 A 
HETATM    7  C   UNL     1      40.897 -12.099  -2.538  1.00  0.00     0.018 A 
HETATM    8  C   UNL     1      40.525 -13.342  -3.050  1.00  0.00     0.001 A 
HETATM    9  C   UNL     1      40.113 -14.356  -2.184  1.00  0.00     0.002 A 
HETATM   10  C   UNL     1      40.077 -14.134  -0.805  1.00  0.00     0.032 A 
HETATM   11  C   UNL     1      41.144  -9.106   1.061  1.00  0.00     0.257 C 
HETATM   12  O   UNL     1      40.867  -8.504   2.087  1.00  0.00    -0.270 OA
HETATM   13  C   UNL     1      41.658  -8.469  -0.217  1.00  0.00     0.211 C 
HETATM   14  N   UNL     1      40.423 -12.710   1.122  1.00  0.00    -0.223 NA
ENDROOT
BRANCH   1  15
HETATM   15  S   UNL     1      40.743 -11.328   3.307  1.00  0.00    -0.082 SA
BRANCH  15  16
HETATM   16  C   UNL     1      39.810 -12.795   3.807  1.00  0.00     0.185 C 
BRANCH  16  17
HETATM   17  C   UNL     1      40.677 -13.974   4.232  1.00  0.00     0.231 C 
HETATM   18  N   UNL     1      41.640 -14.350   3.318  1.00  0.00    -0.327 N 
HETATM   19  H   UNL     1      41.789 -13.719   2.533  1.00  0.00     0.169 HD
HETATM   20  O   UNL     1      40.420 -14.562   5.282  1.00  0.00    -0.272 OA
BRANCH  18  21
HETATM   21  C   UNL     1      42.392 -15.541   3.293  1.00  0.00     0.034 A 
HETATM   22  C   UNL     1      43.195 -15.978   4.344  1.00  0.00     0.030 A 
HETATM   23  C   UNL     1      43.795 -17.242   4.299  1.00  0.00     0.010 A 
HETATM   24  C   UNL     1      43.612 -18.089   3.198  1.00  0.00    -0.055 A 
HETATM   25  C   UNL     1      42.850 -17.622   2.122  1.00  0.00     0.010 A 
HETATM   26  C   UNL     1      42.252 -16.359   2.168  1.00  0.00     0.030 A 
BRANCH  24  27
HETATM   27  C   UNL     1      44.156 -19.506   3.179  1.00  0.00     0.010 C 
HETATM   28  C   UNL     1      43.458 -20.325   2.088  1.00  0.00     0.015 C 
HETATM   29  C   UNL     1      44.050 -20.207   4.535  1.00  0.00     0.015 C 
ENDBRANCH  24  27
ENDBRANCH  18  21
ENDBRANCH  16  17
ENDBRANCH  15  16
ENDBRANCH   1  15
BRANCH  13  30
HETATM   30  C   UNL     1      40.812  -7.293  -0.683  1.00  0.00     0.140 C 
BRANCH  30  31
HETATM   31  C   UNL     1      39.307  -7.501  -0.620  1.00  0.00     0.220 C 
HETATM   32  N   UNL     1      38.784  -8.422  -1.495  1.00  0.00    -0.356 N 
HETATM   33  H   UNL     1      39.392  -9.212  -1.685  1.00  0.00     0.162 HD
HETATM   34  O   UNL     1      38.625  -6.852   0.170  1.00  0.00    -0.274 OA
BRANCH  32  35
HETATM   35  C   UNL     1      37.353  -8.699  -1.649  1.00  0.00     0.084 C 
HETATM   36  C   UNL     1      36.988  -9.416  -2.961  1.00  0.00     0.025 C 
HETATM   37  C   UNL     1      37.584 -10.820  -3.042  1.00  0.00     0.002 C 
HETATM   38  C   UNL     1      37.171 -11.672  -1.847  1.00  0.00     0.000 C 
HETATM   39  C   UNL     1      37.470 -10.981  -0.519  1.00  0.00     0.002 C 
HETATM   40  C   UNL     1      36.885  -9.565  -0.464  1.00  0.00     0.025 C 
ENDBRANCH  32  35
ENDBRANCH  30  31
ENDBRANCH  13  30
TORSDOF 8
ENDMDL
MODEL 10
REMARK VINA RESULT:      -8.7      2.192      3.959
REMARK  8 active torsions:
REMARK  status: ('A' for Active; 'I' for Inactive)
REMARK    1  A    between atoms: C_2  and  C_3 
REMARK    2  A    between atoms: C_6  and  N_7 
REMARK       I    between atoms: N_7  and  C_8 
REMARK    3  A    between atoms: C_8  and  C_9 
REMARK    4  A    between atoms: C_9  and  S_10 
REMARK    5  A    between atoms: S_10  and  C_11 
REMARK    6  A    between atoms: C_23  and  C_24 
REMARK    7  A    between atoms: C_24  and  C_25 
REMARK       I    between atoms: C_25  and  N_26 
REMARK    8  A    between atoms: N_26  and  C_27 
ROOT
HETATM    1  C   UNL     1      43.028 -10.805   6.324  1.00  0.00     0.178 C 
HETATM    2  N   UNL     1      42.073  -9.848   6.624  1.00  0.00    -0.241 N 
HETATM    3  C   UNL     1      42.054  -9.223   7.829  1.00  0.00     0.147 C 
HETATM    4  N   UNL     1      41.044  -8.451   8.092  1.00  0.00    -0.256 NA
HETATM    5  C   UNL     1      43.185  -9.455   8.728  1.00  0.00     0.039 A 
HETATM    6  C   UNL     1      44.163 -10.356   8.291  1.00  0.00     0.073 A 
HETATM    7  C   UNL     1      43.315  -8.759   9.932  1.00  0.00     0.018 A 
HETATM    8  C   UNL     1      44.447  -8.964  10.719  1.00  0.00     0.001 A 
HETATM    9  C   UNL     1      45.436  -9.854  10.296  1.00  0.00     0.002 A 
HETATM   10  C   UNL     1      45.293 -10.545   9.089  1.00  0.00     0.032 A 
HETATM   11  C   UNL     1      41.027  -9.349   5.883  1.00  0.00     0.257 C 
HETATM   12  O   UNL     1      40.801  -9.474   4.690  1.00  0.00    -0.270 OA
HETATM   13  C   UNL     1      40.231  -8.483   6.841  1.00  0.00     0.211 C 
HETATM   14  N   UNL     1      44.038 -11.080   7.089  1.00  0.00    -0.223 NA
ENDROOT
BRANCH   1  15
HETATM   15  S   UNL     1      42.827 -11.783   4.893  1.00  0.00    -0.082 SA
BRANCH  15  16
HETATM   16  C   UNL     1      41.377 -12.744   5.389  1.00  0.00     0.185 C 
BRANCH  16  17
HETATM   17  C   UNL     1      41.502 -14.242   5.137  1.00  0.00     0.231 C 
HETATM   18  N   UNL     1      42.797 -14.712   5.041  1.00  0.00    -0.327 N 
HETATM   19  H   UNL     1      43.535 -14.060   5.303  1.00  0.00     0.169 HD
HETATM   20  O   UNL     1      40.485 -14.907   4.947  1.00  0.00    -0.272 OA
BRANCH  18  21
HETATM   21  C   UNL     1      43.232 -15.958   4.550  1.00  0.00     0.034 A 
HETATM   22  C   UNL     1      43.689 -16.998   5.357  1.00  0.00     0.030 A 
HETATM   23  C   UNL     1      43.965 -18.254   4.804  1.00  0.00     0.010 A 
HETATM   24  C   UNL     1      43.799 -18.492   3.433  1.00  0.00    -0.055 A 
HETATM   25  C   UNL     1      43.394 -17.428   2.620  1.00  0.00     0.010 A 
HETATM   26  C   UNL     1      43.119 -16.174   3.174  1.00  0.00     0.030 A 
BRANCH  24  27
HETATM   27  C   UNL     1      43.981 -19.874   2.833  1.00  0.00     0.010 C 
HETATM   28  C   UNL     1      42.915 -20.129   1.762  1.00  0.00     0.015 C 
HETATM   29  C   UNL     1      43.974 -20.988   3.882  1.00  0.00     0.015 C 
ENDBRANCH  24  27
ENDBRANCH  18  21
ENDBRANCH  16  17
ENDBRANCH  15  16
ENDBRANCH   1  15
BRANCH  13  30
HETATM   30  C   UNL     1      40.036  -7.059   6.340  1.00  0.00     0.140 C 
BRANCH  30  31
HETATM   31  C   UNL     1      39.586  -6.051   7.387  1.00  0.00     0.220 C 
HETATM   32  N   UNL     1      40.567  -5.548   8.207  1.00  0.00    -0.356 N 
HETATM   33  H   UNL     1      41.470  -5.437   7.758  1.00  0.00     0.162 HD
HETATM   34  O   UNL     1      38.400  -5.741   7.477  1.00  0.00    -0.274 OA
BRANCH  32  35
HETATM   35  C   UNL     1      40.322  -4.637   9.328  1.00  0.00     0.084 C 
HETATM   36  C   UNL     1      39.790  -5.329  10.596  1.00  0.00     0.025 C 
HETATM   37  C   UNL     1      40.805  -6.297  11.200  1.00  0.00     0.002 C 
HETATM   38  C   UNL     1      42.129  -5.602  11.499  1.00  0.00     0.000 C 
HETATM   39  C   UNL     1      42.675  -4.860  10.281  1.00  0.00     0.002 C 
HETATM   40  C   UNL     1      41.635  -3.912   9.674  1.00  0.00     0.025 C 
ENDBRANCH  32  35
ENDBRANCH  30  31
ENDBRANCH  13  30
TORSDOF 8
ENDMDL
