MODEL 1
REMARK VINA RESULT:      -9.9      0.000      0.000
REMARK  7 active torsions:
REMARK  status: ('A' for Active; 'I' for Inactive)
REMARK    1  A    between atoms: C_7  and  C_8 
REMARK    2  A    between atoms: C_11  and  N_12 
REMARK       I    between atoms: N_12  and  C_13 
REMARK    3  A    between atoms: C_13  and  C_14 
REMARK    4  A    between atoms: C_14  and  N_15 
REMARK    5  A    between atoms: N_15  and  C_16 
REMARK    6  A    between atoms: C_17  and  O_18 
REMARK    7  A    between atoms: C_22  and  N_23 
REMARK       I    between atoms: N_23  and  C_24 
ROOT
HETATM    1  N   UNL     1      41.821  -9.897   6.708  1.00  0.00    -0.326 N 
HETATM    2  C   UNL     1      41.771  -8.676   6.066  1.00  0.00     0.239 C 
HETATM    3  O   UNL     1      41.682  -8.518   4.849  1.00  0.00    -0.271 OA
HETATM    4  H   UNL     1      41.710  -9.863   7.707  1.00  0.00     0.169 HD
ENDROOT
BRANCH   2   5
HETATM    5  C   UNL     1      41.900  -7.456   7.019  1.00  0.00     0.148 C 
HETATM    6  C   UNL     1      41.697  -6.124   6.307  1.00  0.00     0.036 C 
BRANCH   5   7
HETATM    7  N   UNL     1      43.093  -7.455   7.905  1.00  0.00    -0.278 NA
HETATM    8  H   UNL     1      43.166  -6.532   8.351  1.00  0.00     0.128 HD
BRANCH   7   9
HETATM    9  C   UNL     1      43.325  -8.397   8.919  1.00  0.00     0.044 C 
HETATM   10  C   UNL     1      44.648  -8.833   9.152  1.00  0.00     0.089 C 
HETATM   11  C   UNL     1      44.930  -9.707  10.200  1.00  0.00     0.041 C 
HETATM   12  C   UNL     1      43.898 -10.176  11.019  1.00  0.00     0.032 C 
HETATM   13  C   UNL     1      42.577  -9.813  10.769  1.00  0.00     0.036 C 
HETATM   14  C   UNL     1      42.299  -8.971   9.680  1.00  0.00     0.055 C 
BRANCH  10  15
HETATM   15  O   UNL     1      45.603  -8.293   8.319  1.00  0.00    -0.354 OA
HETATM   16  C   UNL     1      46.626  -9.190   7.899  1.00  0.00     0.210 C 
ENDBRANCH  10  15
BRANCH  13  17
HETATM   17  N   UNL     1      41.487 -10.200  11.579  1.00  0.00    -0.327 N 
HETATM   18  C   UNL     1      41.256  -9.840  12.897  1.00  0.00     0.218 C 
HETATM   19  C   UNL     1      39.918 -10.321  13.397  1.00  0.00     0.117 C 
HETATM   20  O   UNL     1      41.982  -9.158  13.611  1.00  0.00    -0.274 OA
HETATM   21  H   UNL     1      40.768 -10.751  11.129  1.00  0.00     0.169 HD
ENDBRANCH  13  17
ENDBRANCH   7   9
ENDBRANCH   5   7
ENDBRANCH   2   5
BRANCH   1  22
HETATM   22  C   UNL     1      41.921 -11.188   6.167  1.00  0.00     0.034 A 
HETATM   23  C   UNL     1      40.922 -11.816   5.427  1.00  0.00     0.030 A 
HETATM   24  C   UNL     1      41.145 -13.087   4.871  1.00  0.00     0.016 A 
HETATM   25  C   UNL     1      42.368 -13.754   5.045  1.00  0.00    -0.000 A 
HETATM   26  C   UNL     1      43.357 -13.111   5.803  1.00  0.00     0.016 A 
HETATM   27  C   UNL     1      43.138 -11.849   6.358  1.00  0.00     0.030 A 
BRANCH  25  28
HETATM   28  C   UNL     1      42.686 -15.076   4.465  1.00  0.00     0.109 A 
HETATM   29  N   UNL     1      43.455 -15.960   5.072  1.00  0.00    -0.240 NA
HETATM   30  C   UNL     1      43.560 -17.116   4.323  1.00  0.00     0.075 A 
HETATM   31  C   UNL     1      42.856 -17.111   3.121  1.00  0.00     0.036 A 
HETATM   32  C   UNL     1      44.299 -18.261   4.675  1.00  0.00     0.033 A 
HETATM   33  C   UNL     1      42.860 -18.218   2.254  1.00  0.00     0.028 A 
HETATM   34  S   UNL     1      42.053 -15.598   2.953  1.00  0.00    -0.067 SA
HETATM   35  C   UNL     1      43.596 -19.357   2.621  1.00  0.00    -0.061 A 
HETATM   36  C   UNL     1      43.626 -20.566   1.729  1.00  0.00     0.048 C 
HETATM   37  C   UNL     1      44.310 -19.370   3.821  1.00  0.00     0.009 A 
ENDBRANCH  25  28
ENDBRANCH   1  22
TORSDOF 7
ENDMDL
MODEL 2
REMARK VINA RESULT:      -9.4      1.872      2.156
REMARK  7 active torsions:
REMARK  status: ('A' for Active; 'I' for Inactive)
REMARK    1  A    between atoms: C_7  and  C_8 
REMARK    2  A    between atoms: C_11  and  N_12 
REMARK       I    between atoms: N_12  and  C_13 
REMARK    3  A    between atoms: C_13  and  C_14 
REMARK    4  A    between atoms: C_14  and  N_15 
REMARK    5  A    between atoms: N_15  and  C_16 
REMARK    6  A    between atoms: C_17  and  O_18 
REMARK    7  A    between atoms: C_22  and  N_23 
REMARK       I    between atoms: N_23  and  C_24 
ROOT
HETATM    1  N   UNL     1      42.751  -9.635   7.091  1.00  0.00    -0.326 N 
HETATM    2  C   UNL     1      41.574  -9.094   7.571  1.00  0.00     0.239 C 
HETATM    3  O   UNL     1      40.531  -9.719   7.758  1.00  0.00    -0.271 OA
HETATM    4  H   UNL     1      43.559  -9.042   7.166  1.00  0.00     0.169 HD
ENDROOT
BRANCH   2   5
HETATM    5  C   UNL     1      41.639  -7.561   7.816  1.00  0.00     0.148 C 
HETATM    6  C   UNL     1      41.668  -6.757   6.521  1.00  0.00     0.036 C 
BRANCH   5   7
HETATM    7  N   UNL     1      42.659  -7.108   8.795  1.00  0.00    -0.278 NA
HETATM    8  H   UNL     1      42.706  -6.081   8.764  1.00  0.00     0.128 HD
BRANCH   7   9
HETATM    9  C   UNL     1      42.661  -7.457  10.154  1.00  0.00     0.044 C 
HETATM   10  C   UNL     1      43.600  -8.408  10.610  1.00  0.00     0.089 C 
HETATM   11  C   UNL     1      43.686  -8.723  11.965  1.00  0.00     0.041 C 
HETATM   12  C   UNL     1      42.826  -8.112  12.882  1.00  0.00     0.032 C 
HETATM   13  C   UNL     1      41.848  -7.220  12.449  1.00  0.00     0.036 C 
HETATM   14  C   UNL     1      41.738  -6.948  11.077  1.00  0.00     0.055 C 
BRANCH  10  15
HETATM   15  O   UNL     1      44.427  -8.932   9.641  1.00  0.00    -0.354 OA
HETATM   16  C   UNL     1      45.275  -9.993  10.070  1.00  0.00     0.210 C 
ENDBRANCH  10  15
BRANCH  13  17
HETATM   17  N   UNL     1      40.979  -6.523  13.316  1.00  0.00    -0.327 N 
HETATM   18  C   UNL     1      39.663  -6.839  13.613  1.00  0.00     0.218 C 
HETATM   19  C   UNL     1      39.090  -5.956  14.692  1.00  0.00     0.117 C 
HETATM   20  O   UNL     1      39.001  -7.754  13.138  1.00  0.00    -0.274 OA
HETATM   21  H   UNL     1      41.381  -5.744  13.821  1.00  0.00     0.169 HD
ENDBRANCH  13  17
ENDBRANCH   7   9
ENDBRANCH   5   7
ENDBRANCH   2   5
BRANCH   1  22
HETATM   22  C   UNL     1      43.004 -10.920   6.590  1.00  0.00     0.034 A 
HETATM   23  C   UNL     1      43.745 -11.897   7.252  1.00  0.00     0.030 A 
HETATM   24  C   UNL     1      43.886 -13.179   6.695  1.00  0.00     0.016 A 
HETATM   25  C   UNL     1      43.292 -13.509   5.466  1.00  0.00    -0.000 A 
HETATM   26  C   UNL     1      42.560 -12.509   4.809  1.00  0.00     0.016 A 
HETATM   27  C   UNL     1      42.419 -11.235   5.360  1.00  0.00     0.030 A 
BRANCH  25  28
HETATM   28  C   UNL     1      43.371 -14.843   4.834  1.00  0.00     0.109 A 
HETATM   29  N   UNL     1      43.811 -15.913   5.468  1.00  0.00    -0.240 NA
HETATM   30  C   UNL     1      43.750 -17.026   4.652  1.00  0.00     0.075 A 
HETATM   31  C   UNL     1      43.254 -16.798   3.371  1.00  0.00     0.036 A 
HETATM   32  C   UNL     1      44.136 -18.332   5.010  1.00  0.00     0.033 A 
HETATM   33  C   UNL     1      43.126 -17.834   2.429  1.00  0.00     0.028 A 
HETATM   34  S   UNL     1      42.866 -15.128   3.214  1.00  0.00    -0.067 SA
HETATM   35  C   UNL     1      43.510 -19.132   2.801  1.00  0.00    -0.061 A 
HETATM   36  C   UNL     1      43.386 -20.273   1.830  1.00  0.00     0.048 C 
HETATM   37  C   UNL     1      44.012 -19.372   4.082  1.00  0.00     0.009 A 
ENDBRANCH  25  28
ENDBRANCH   1  22
TORSDOF 7
ENDMDL
MODEL 3
REMARK VINA RESULT:      -9.3      1.697      3.332
REMARK  7 active torsions:
REMARK  status: ('A' for Active; 'I' for Inactive)
REMARK    1  A    between atoms: C_7  and  C_8 
REMARK    2  A    between atoms: C_11  and  N_12 
REMARK       I    between atoms: N_12  and  C_13 
REMARK    3  A    between atoms: C_13  and  C_14 
REMARK    4  A    between atoms: C_14  and  N_15 
REMARK    5  A    between atoms: N_15  and  C_16 
REMARK    6  A    between atoms: C_17  and  O_18 
REMARK    7  A    between atoms: C_22  and  N_23 
REMARK       I    between atoms: N_23  and  C_24 
ROOT
HETATM    1  N   UNL     1      40.756  -9.812   6.806  1.00  0.00    -0.326 N 
HETATM    2  C   UNL     1      39.811  -9.403   7.726  1.00  0.00     0.239 C 
HETATM    3  O   UNL     1      39.073 -10.152   8.365  1.00  0.00    -0.271 OA
HETATM    4  H   UNL     1      41.399  -9.100   6.504  1.00  0.00     0.169 HD
ENDROOT
BRANCH   2   5
HETATM    5  C   UNL     1      39.690  -7.860   7.863  1.00  0.00     0.148 C 
HETATM    6  C   UNL     1      40.192  -7.116   6.631  1.00  0.00     0.036 C 
BRANCH   5   7
HETATM    7  N   UNL     1      40.208  -7.284   9.130  1.00  0.00    -0.278 NA
HETATM    8  H   UNL     1      39.448  -7.283   9.822  1.00  0.00     0.128 HD
BRANCH   7   9
HETATM    9  C   UNL     1      41.347  -7.752   9.803  1.00  0.00     0.044 C 
HETATM   10  C   UNL     1      41.237  -8.091  11.170  1.00  0.00     0.089 C 
HETATM   11  C   UNL     1      42.325  -8.633  11.853  1.00  0.00     0.041 C 
HETATM   12  C   UNL     1      43.541  -8.828  11.193  1.00  0.00     0.032 C 
HETATM   13  C   UNL     1      43.694  -8.441   9.864  1.00  0.00     0.036 C 
HETATM   14  C   UNL     1      42.607  -7.850   9.200  1.00  0.00     0.055 C 
BRANCH  10  15
HETATM   15  O   UNL     1      39.993  -7.897  11.728  1.00  0.00    -0.354 OA
HETATM   16  C   UNL     1      39.816  -8.445  13.031  1.00  0.00     0.210 C 
ENDBRANCH  10  15
BRANCH  13  17
HETATM   17  N   UNL     1      44.871  -8.652   9.112  1.00  0.00    -0.327 N 
HETATM   18  C   UNL     1      45.339  -9.857   8.614  1.00  0.00     0.218 C 
HETATM   19  C   UNL     1      46.552  -9.682   7.734  1.00  0.00     0.117 C 
HETATM   20  O   UNL     1      44.841 -10.964   8.776  1.00  0.00    -0.274 OA
HETATM   21  H   UNL     1      45.395  -7.825   8.861  1.00  0.00     0.169 HD
ENDBRANCH  13  17
ENDBRANCH   7   9
ENDBRANCH   5   7
ENDBRANCH   2   5
BRANCH   1  22
HETATM   22  C   UNL     1      41.007 -11.093   6.292  1.00  0.00     0.034 A 
HETATM   23  C   UNL     1      40.045 -11.914   5.707  1.00  0.00     0.030 A 
HETATM   24  C   UNL     1      40.411 -13.156   5.161  1.00  0.00     0.016 A 
HETATM   25  C   UNL     1      41.742 -13.602   5.191  1.00  0.00    -0.000 A 
HETATM   26  C   UNL     1      42.693 -12.767   5.796  1.00  0.00     0.016 A 
HETATM   27  C   UNL     1      42.333 -11.533   6.339  1.00  0.00     0.030 A 
BRANCH  25  28
HETATM   28  C   UNL     1      42.205 -14.879   4.611  1.00  0.00     0.109 A 
HETATM   29  N   UNL     1      43.128 -15.633   5.180  1.00  0.00    -0.240 NA
HETATM   30  C   UNL     1      43.348 -16.780   4.441  1.00  0.00     0.075 A 
HETATM   31  C   UNL     1      42.577 -16.901   3.288  1.00  0.00     0.036 A 
HETATM   32  C   UNL     1      44.260 -17.803   4.761  1.00  0.00     0.033 A 
HETATM   33  C   UNL     1      42.682 -18.017   2.438  1.00  0.00     0.028 A 
HETATM   34  S   UNL     1      41.560 -15.519   3.150  1.00  0.00    -0.067 SA
HETATM   35  C   UNL     1      43.593 -19.032   2.772  1.00  0.00    -0.061 A 
HETATM   36  C   UNL     1      43.737 -20.246   1.898  1.00  0.00     0.048 C 
HETATM   37  C   UNL     1      44.374 -18.919   3.924  1.00  0.00     0.009 A 
ENDBRANCH  25  28
ENDBRANCH   1  22
TORSDOF 7
ENDMDL
MODEL 4
REMARK VINA RESULT:      -9.1      2.105      3.281
REMARK  7 active torsions:
REMARK  status: ('A' for Active; 'I' for Inactive)
REMARK    1  A    between atoms: C_7  and  C_8 
REMARK    2  A    between atoms: C_11  and  N_12 
REMARK       I    between atoms: N_12  and  C_13 
REMARK    3  A    between atoms: C_13  and  C_14 
REMARK    4  A    between atoms: C_14  and  N_15 
REMARK    5  A    between atoms: N_15  and  C_16 
REMARK    6  A    between atoms: C_17  and  O_18 
REMARK    7  A    between atoms: C_22  and  N_23 
REMARK       I    between atoms: N_23  and  C_24 
ROOT
HETATM    1  N   UNL     1      43.014 -10.172   7.766  1.00  0.00    -0.326 N 
HETATM    2  C   UNL     1      43.392  -9.935   9.073  1.00  0.00     0.239 C 
HETATM    3  O   UNL     1      43.864 -10.775   9.837  1.00  0.00    -0.271 OA
HETATM    4  H   UNL     1      42.818  -9.351   7.219  1.00  0.00     0.169 HD
ENDROOT
BRANCH   2   5
HETATM    5  C   UNL     1      43.114  -8.485   9.556  1.00  0.00     0.148 C 
HETATM    6  C   UNL     1      44.088  -7.469   8.971  1.00  0.00     0.036 C 
BRANCH   5   7
HETATM    7  N   UNL     1      42.925  -8.320  11.020  1.00  0.00    -0.278 NA
HETATM    8  H   UNL     1      43.408  -7.462  11.316  1.00  0.00     0.128 HD
BRANCH   7   9
HETATM    9  C   UNL     1      41.676  -8.304  11.659  1.00  0.00     0.044 C 
HETATM   10  C   UNL     1      41.055  -7.059  11.905  1.00  0.00     0.089 C 
HETATM   11  C   UNL     1      39.779  -7.004  12.466  1.00  0.00     0.041 C 
HETATM   12  C   UNL     1      39.112  -8.184  12.806  1.00  0.00     0.032 C 
HETATM   13  C   UNL     1      39.730  -9.421  12.634  1.00  0.00     0.036 C 
HETATM   14  C   UNL     1      41.033  -9.462  12.115  1.00  0.00     0.055 C 
BRANCH  10  15
HETATM   15  O   UNL     1      41.771  -5.953  11.506  1.00  0.00    -0.354 OA
HETATM   16  C   UNL     1      41.531  -4.766  12.256  1.00  0.00     0.210 C 
ENDBRANCH  10  15
BRANCH  13  17
HETATM   17  N   UNL     1      39.104 -10.658  12.903  1.00  0.00    -0.327 N 
HETATM   18  C   UNL     1      38.570 -11.542  11.980  1.00  0.00     0.218 C 
HETATM   19  C   UNL     1      38.114 -12.831  12.618  1.00  0.00     0.117 C 
HETATM   20  O   UNL     1      38.502 -11.388  10.767  1.00  0.00    -0.274 OA
HETATM   21  H   UNL     1      39.100 -10.956  13.869  1.00  0.00     0.169 HD
ENDBRANCH  13  17
ENDBRANCH   7   9
ENDBRANCH   5   7
ENDBRANCH   2   5
BRANCH   1  22
HETATM   22  C   UNL     1      42.941 -11.384   7.063  1.00  0.00     0.034 A 
HETATM   23  C   UNL     1      41.945 -11.708   6.145  1.00  0.00     0.030 A 
HETATM   24  C   UNL     1      41.998 -12.924   5.441  1.00  0.00     0.016 A 
HETATM   25  C   UNL     1      43.044 -13.838   5.644  1.00  0.00    -0.000 A 
HETATM   26  C   UNL     1      44.031 -13.499   6.582  1.00  0.00     0.016 A 
HETATM   27  C   UNL     1      43.980 -12.293   7.282  1.00  0.00     0.030 A 
BRANCH  25  28
HETATM   28  C   UNL     1      43.183 -15.119   4.921  1.00  0.00     0.109 A 
HETATM   29  N   UNL     1      43.743 -16.188   5.455  1.00  0.00    -0.240 NA
HETATM   30  C   UNL     1      43.714 -17.250   4.572  1.00  0.00     0.075 A 
HETATM   31  C   UNL     1      43.119 -16.984   3.341  1.00  0.00     0.036 A 
HETATM   32  C   UNL     1      44.220 -18.540   4.818  1.00  0.00     0.033 A 
HETATM   33  C   UNL     1      43.008 -17.967   2.342  1.00  0.00     0.028 A 
HETATM   34  S   UNL     1      42.596 -15.344   3.319  1.00  0.00    -0.067 SA
HETATM   35  C   UNL     1      43.513 -19.251   2.603  1.00  0.00    -0.061 A 
HETATM   36  C   UNL     1      43.413 -20.336   1.568  1.00  0.00     0.048 C 
HETATM   37  C   UNL     1      44.115 -19.528   3.832  1.00  0.00     0.009 A 
ENDBRANCH  25  28
ENDBRANCH   1  22
TORSDOF 7
ENDMDL
MODEL 5
REMARK VINA RESULT:      -8.8      2.250      3.563
REMARK  7 active torsions:
REMARK  status: ('A' for Active; 'I' for Inactive)
REMARK    1  A    between atoms: C_7  and  C_8 
REMARK    2  A    between atoms: C_11  and  N_12 
REMARK       I    between atoms: N_12  and  C_13 
REMARK    3  A    between atoms: C_13  and  C_14 
REMARK    4  A    between atoms: C_14  and  N_15 
REMARK    5  A    between atoms: N_15  and  C_16 
REMARK    6  A    between atoms: C_17  and  O_18 
REMARK    7  A    between atoms: C_22  and  N_23 
REMARK       I    between atoms: N_23  and  C_24 
ROOT
HETATM    1  N   UNL     1      42.817  -9.550   7.481  1.00  0.00    -0.326 N 
HETATM    2  C   UNL     1      42.882  -9.144   8.800  1.00  0.00     0.239 C 
HETATM    3  O   UNL     1      43.298  -9.830   9.733  1.00  0.00    -0.271 OA
HETATM    4  H   UNL     1      42.628  -8.820   6.815  1.00  0.00     0.169 HD
ENDROOT
BRANCH   2   5
HETATM    5  C   UNL     1      42.313  -7.720   9.050  1.00  0.00     0.148 C 
HETATM    6  C   UNL     1      43.347  -6.765   9.634  1.00  0.00     0.036 C 
BRANCH   5   7
HETATM    7  N   UNL     1      41.012  -7.664   9.765  1.00  0.00    -0.278 NA
HETATM    8  H   UNL     1      40.274  -7.979   9.123  1.00  0.00     0.128 HD
BRANCH   7   9
HETATM    9  C   UNL     1      40.757  -8.295  10.992  1.00  0.00     0.044 C 
HETATM   10  C   UNL     1      39.961  -9.461  11.003  1.00  0.00     0.089 C 
HETATM   11  C   UNL     1      39.750 -10.161  12.190  1.00  0.00     0.041 C 
HETATM   12  C   UNL     1      40.310  -9.701  13.385  1.00  0.00     0.032 C 
HETATM   13  C   UNL     1      41.044  -8.518  13.411  1.00  0.00     0.036 C 
HETATM   14  C   UNL     1      41.210  -7.795  12.220  1.00  0.00     0.055 C 
BRANCH  10  15
HETATM   15  O   UNL     1      39.479  -9.859   9.776  1.00  0.00    -0.354 OA
HETATM   16  C   UNL     1      38.505 -10.898   9.809  1.00  0.00     0.210 C 
ENDBRANCH  10  15
BRANCH  13  17
HETATM   17  N   UNL     1      41.686  -8.015  14.564  1.00  0.00    -0.327 N 
HETATM   18  C   UNL     1      41.115  -7.265  15.579  1.00  0.00     0.218 C 
HETATM   19  C   UNL     1      42.067  -7.028  16.724  1.00  0.00     0.117 C 
HETATM   20  O   UNL     1      39.959  -6.861  15.634  1.00  0.00    -0.274 OA
HETATM   21  H   UNL     1      42.653  -8.284  14.691  1.00  0.00     0.169 HD
ENDBRANCH  13  17
ENDBRANCH   7   9
ENDBRANCH   5   7
ENDBRANCH   2   5
BRANCH   1  22
HETATM   22  C   UNL     1      43.059 -10.814   6.923  1.00  0.00     0.034 A 
HETATM   23  C   UNL     1      44.217 -11.561   7.125  1.00  0.00     0.030 A 
HETATM   24  C   UNL     1      44.335 -12.849   6.574  1.00  0.00     0.016 A 
HETATM   25  C   UNL     1      43.302 -13.412   5.809  1.00  0.00    -0.000 A 
HETATM   26  C   UNL     1      42.149 -12.638   5.605  1.00  0.00     0.016 A 
HETATM   27  C   UNL     1      42.029 -11.360   6.151  1.00  0.00     0.030 A 
BRANCH  25  28
HETATM   28  C   UNL     1      43.342 -14.768   5.223  1.00  0.00     0.109 A 
HETATM   29  N   UNL     1      42.929 -15.034   3.999  1.00  0.00    -0.240 NA
HETATM   30  C   UNL     1      43.107 -16.371   3.701  1.00  0.00     0.075 A 
HETATM   31  C   UNL     1      43.666 -17.138   4.720  1.00  0.00     0.036 A 
HETATM   32  C   UNL     1      42.779 -16.994   2.482  1.00  0.00     0.033 A 
HETATM   33  C   UNL     1      43.914 -18.513   4.563  1.00  0.00     0.028 A 
HETATM   34  S   UNL     1      43.961 -16.125   6.080  1.00  0.00    -0.067 SA
HETATM   35  C   UNL     1      43.587 -19.121   3.340  1.00  0.00    -0.061 A 
HETATM   36  C   UNL     1      43.838 -20.587   3.124  1.00  0.00     0.048 C 
HETATM   37  C   UNL     1      43.022 -18.362   2.313  1.00  0.00     0.009 A 
ENDBRANCH  25  28
ENDBRANCH   1  22
TORSDOF 7
ENDMDL
MODEL 6
REMARK VINA RESULT:      -8.6      3.950     10.392
REMARK  7 active torsions:
REMARK  status: ('A' for Active; 'I' for Inactive)
REMARK    1  A    between atoms: C_7  and  C_8 
REMARK    2  A    between atoms: C_11  and  N_12 
REMARK       I    between atoms: N_12  and  C_13 
REMARK    3  A    between atoms: C_13  and  C_14 
REMARK    4  A    between atoms: C_14  and  N_15 
REMARK    5  A    between atoms: N_15  and  C_16 
REMARK    6  A    between atoms: C_17  and  O_18 
REMARK    7  A    between atoms: C_22  and  N_23 
REMARK       I    between atoms: N_23  and  C_24 
ROOT
HETATM    1  N   UNL     1      39.776 -10.800   5.604  1.00  0.00    -0.326 N 
HETATM    2  C   UNL     1      39.535 -12.100   5.207  1.00  0.00     0.239 C 
HETATM    3  O   UNL     1      39.294 -13.040   5.964  1.00  0.00    -0.271 OA
HETATM    4  H   UNL     1      39.776 -10.117   4.866  1.00  0.00     0.169 HD
ENDROOT
BRANCH   2   5
HETATM    5  C   UNL     1      39.653 -12.323   3.674  1.00  0.00     0.148 C 
HETATM    6  C   UNL     1      38.840 -11.319   2.866  1.00  0.00     0.036 C 
BRANCH   5   7
HETATM    7  N   UNL     1      39.461 -13.722   3.210  1.00  0.00    -0.278 NA
HETATM    8  H   UNL     1      38.916 -13.703   2.338  1.00  0.00     0.128 HD
BRANCH   7   9
HETATM    9  C   UNL     1      40.505 -14.635   2.999  1.00  0.00     0.044 C 
HETATM   10  C   UNL     1      41.095 -14.707   1.718  1.00  0.00     0.089 C 
HETATM   11  C   UNL     1      42.186 -15.544   1.489  1.00  0.00     0.041 C 
HETATM   12  C   UNL     1      42.693 -16.334   2.524  1.00  0.00     0.032 C 
HETATM   13  C   UNL     1      42.088 -16.329   3.779  1.00  0.00     0.036 C 
HETATM   14  C   UNL     1      40.959 -15.520   3.984  1.00  0.00     0.055 C 
BRANCH  10  15
HETATM   15  O   UNL     1      40.553 -13.868   0.770  1.00  0.00    -0.354 OA
HETATM   16  C   UNL     1      39.897 -14.516  -0.316  1.00  0.00     0.210 C 
ENDBRANCH  10  15
BRANCH  13  17
HETATM   17  N   UNL     1      42.570 -17.057   4.888  1.00  0.00    -0.327 N 
HETATM   18  C   UNL     1      43.325 -16.569   5.943  1.00  0.00     0.218 C 
HETATM   19  C   UNL     1      43.537 -17.600   7.023  1.00  0.00     0.117 C 
HETATM   20  O   UNL     1      43.751 -15.428   6.077  1.00  0.00    -0.274 OA
HETATM   21  H   UNL     1      42.282 -18.024   4.949  1.00  0.00     0.169 HD
ENDBRANCH  13  17
ENDBRANCH   7   9
ENDBRANCH   5   7
ENDBRANCH   2   5
BRANCH   1  22
HETATM   22  C   UNL     1      39.939 -10.276   6.895  1.00  0.00     0.034 A 
HETATM   23  C   UNL     1      38.944 -10.249   7.870  1.00  0.00     0.030 A 
HETATM   24  C   UNL     1      39.227  -9.762   9.158  1.00  0.00     0.016 A 
HETATM   25  C   UNL     1      40.506  -9.291   9.495  1.00  0.00    -0.000 A 
HETATM   26  C   UNL     1      41.491  -9.314   8.496  1.00  0.00     0.016 A 
HETATM   27  C   UNL     1      41.212  -9.797   7.216  1.00  0.00     0.030 A 
BRANCH  25  28
HETATM   28  C   UNL     1      40.885  -8.793  10.833  1.00  0.00     0.109 A 
HETATM   29  N   UNL     1      42.123  -8.471  11.155  1.00  0.00    -0.240 NA
HETATM   30  C   UNL     1      42.187  -8.010  12.456  1.00  0.00     0.075 A 
HETATM   31  C   UNL     1      40.973  -7.980  13.137  1.00  0.00     0.036 A 
HETATM   32  C   UNL     1      43.351  -7.577  13.120  1.00  0.00     0.033 A 
HETATM   33  C   UNL     1      40.877  -7.529  14.466  1.00  0.00     0.028 A 
HETATM   34  S   UNL     1      39.734  -8.559  12.091  1.00  0.00    -0.067 SA
HETATM   35  C   UNL     1      42.045  -7.095  15.114  1.00  0.00    -0.061 A 
HETATM   36  C   UNL     1      41.991  -6.599  16.532  1.00  0.00     0.048 C 
HETATM   37  C   UNL     1      43.269  -7.124  14.442  1.00  0.00     0.009 A 
ENDBRANCH  25  28
ENDBRANCH   1  22
TORSDOF 7
ENDMDL
MODEL 7
REMARK VINA RESULT:      -8.6      5.827      9.093
REMARK  7 active torsions:
REMARK  status: ('A' for Active; 'I' for Inactive)
REMARK    1  A    between atoms: C_7  and  C_8 
REMARK    2  A    between atoms: C_11  and  N_12 
REMARK       I    between atoms: N_12  and  C_13 
REMARK    3  A    between atoms: C_13  and  C_14 
REMARK    4  A    between atoms: C_14  and  N_15 
REMARK    5  A    between atoms: N_15  and  C_16 
REMARK    6  A    between atoms: C_17  and  O_18 
REMARK    7  A    between atoms: C_22  and  N_23 
REMARK       I    between atoms: N_23  and  C_24 
ROOT
HETATM    1  N   UNL     1      41.633 -10.031   1.465  1.00  0.00    -0.326 N 
HETATM    2  C   UNL     1      40.548  -9.276   1.862  1.00  0.00     0.239 C 
HETATM    3  O   UNL     1      39.815  -9.535   2.817  1.00  0.00    -0.271 OA
HETATM    4  H   UNL     1      42.235  -9.596   0.786  1.00  0.00     0.169 HD
ENDROOT
BRANCH   2   5
HETATM    5  C   UNL     1      40.260  -8.053   0.948  1.00  0.00     0.148 C 
HETATM    6  C   UNL     1      38.799  -7.622   0.978  1.00  0.00     0.036 C 
BRANCH   5   7
HETATM    7  N   UNL     1      40.804  -8.140  -0.432  1.00  0.00    -0.278 NA
HETATM    8  H   UNL     1      41.720  -8.604  -0.392  1.00  0.00     0.128 HD
BRANCH   7   9
HETATM    9  C   UNL     1      40.122  -8.716  -1.515  1.00  0.00     0.044 C 
HETATM   10  C   UNL     1      39.789  -7.900  -2.619  1.00  0.00     0.089 C 
HETATM   11  C   UNL     1      39.182  -8.451  -3.747  1.00  0.00     0.041 C 
HETATM   12  C   UNL     1      38.881  -9.816  -3.785  1.00  0.00     0.032 C 
HETATM   13  C   UNL     1      39.139 -10.628  -2.683  1.00  0.00     0.036 C 
HETATM   14  C   UNL     1      39.705 -10.053  -1.534  1.00  0.00     0.055 C 
BRANCH  10  15
HETATM   15  O   UNL     1      40.154  -6.577  -2.507  1.00  0.00    -0.354 OA
HETATM   16  C   UNL     1      41.031  -6.098  -3.522  1.00  0.00     0.210 C 
ENDBRANCH  10  15
BRANCH  13  17
HETATM   17  N   UNL     1      38.914 -12.021  -2.662  1.00  0.00    -0.327 N 
HETATM   18  C   UNL     1      39.822 -13.020  -2.976  1.00  0.00     0.218 C 
HETATM   19  C   UNL     1      39.276 -14.399  -2.701  1.00  0.00     0.117 C 
HETATM   20  O   UNL     1      40.971 -12.871  -3.374  1.00  0.00    -0.274 OA
HETATM   21  H   UNL     1      38.010 -12.323  -2.324  1.00  0.00     0.169 HD
ENDBRANCH  13  17
ENDBRANCH   7   9
ENDBRANCH   5   7
ENDBRANCH   2   5
BRANCH   1  22
HETATM   22  C   UNL     1      42.069 -11.282   1.926  1.00  0.00     0.034 A 
HETATM   23  C   UNL     1      42.908 -11.473   3.022  1.00  0.00     0.030 A 
HETATM   24  C   UNL     1      43.235 -12.773   3.446  1.00  0.00     0.016 A 
HETATM   25  C   UNL     1      42.731 -13.903   2.784  1.00  0.00    -0.000 A 
HETATM   26  C   UNL     1      41.898 -13.690   1.676  1.00  0.00     0.016 A 
HETATM   27  C   UNL     1      41.573 -12.401   1.252  1.00  0.00     0.030 A 
BRANCH  25  28
HETATM   28  C   UNL     1      43.006 -15.297   3.190  1.00  0.00     0.109 A 
HETATM   29  N   UNL     1      43.026 -16.303   2.336  1.00  0.00    -0.240 NA
HETATM   30  C   UNL     1      43.335 -17.486   2.979  1.00  0.00     0.075 A 
HETATM   31  C   UNL     1      43.554 -17.378   4.350  1.00  0.00     0.036 A 
HETATM   32  C   UNL     1      43.445 -18.751   2.370  1.00  0.00     0.033 A 
HETATM   33  C   UNL     1      43.885 -18.494   5.139  1.00  0.00     0.028 A 
HETATM   34  S   UNL     1      43.355 -15.734   4.817  1.00  0.00    -0.067 SA
HETATM   35  C   UNL     1      43.997 -19.749   4.517  1.00  0.00    -0.061 A 
HETATM   36  C   UNL     1      44.353 -20.969   5.319  1.00  0.00     0.048 C 
HETATM   37  C   UNL     1      43.775 -19.869   3.144  1.00  0.00     0.009 A 
ENDBRANCH  25  28
ENDBRANCH   1  22
TORSDOF 7
ENDMDL
MODEL 8
REMARK VINA RESULT:      -8.5      4.232     11.329
REMARK  7 active torsions:
REMARK  status: ('A' for Active; 'I' for Inactive)
REMARK    1  A    between atoms: C_7  and  C_8 
REMARK    2  A    between atoms: C_11  and  N_12 
REMARK       I    between atoms: N_12  and  C_13 
REMARK    3  A    between atoms: C_13  and  C_14 
REMARK    4  A    between atoms: C_14  and  N_15 
REMARK    5  A    between atoms: N_15  and  C_16 
REMARK    6  A    between atoms: C_17  and  O_18 
REMARK    7  A    between atoms: C_22  and  N_23 
REMARK       I    between atoms: N_23  and  C_24 
ROOT
HETATM    1  N   UNL     1      44.277 -10.608   9.104  1.00  0.00    -0.326 N 
HETATM    2  C   UNL     1      43.724 -10.767   7.849  1.00  0.00     0.239 C 
HETATM    3  O   UNL     1      42.636 -10.316   7.492  1.00  0.00    -0.271 OA
HETATM    4  H   UNL     1      45.243 -10.876   9.186  1.00  0.00     0.169 HD
ENDROOT
BRANCH   2   5
HETATM    5  C   UNL     1      44.575 -11.645   6.891  1.00  0.00     0.148 C 
HETATM    6  C   UNL     1      46.017 -11.165   6.773  1.00  0.00     0.036 C 
BRANCH   5   7
HETATM    7  N   UNL     1      43.960 -11.941   5.572  1.00  0.00    -0.278 NA
HETATM    8  H   UNL     1      44.713 -12.058   4.881  1.00  0.00     0.128 HD
BRANCH   7   9
HETATM    9  C   UNL     1      43.052 -12.985   5.340  1.00  0.00     0.044 C 
HETATM   10  C   UNL     1      41.790 -12.677   4.783  1.00  0.00     0.089 C 
HETATM   11  C   UNL     1      40.892 -13.694   4.464  1.00  0.00     0.041 C 
HETATM   12  C   UNL     1      41.225 -15.028   4.713  1.00  0.00     0.032 C 
HETATM   13  C   UNL     1      42.435 -15.352   5.321  1.00  0.00     0.036 C 
HETATM   14  C   UNL     1      43.312 -14.318   5.683  1.00  0.00     0.055 C 
BRANCH  10  15
HETATM   15  O   UNL     1      41.563 -11.340   4.541  1.00  0.00    -0.354 OA
HETATM   16  C   UNL     1      40.570 -11.058   3.559  1.00  0.00     0.210 C 
ENDBRANCH  10  15
BRANCH  13  17
HETATM   17  N   UNL     1      42.868 -16.676   5.557  1.00  0.00    -0.327 N 
HETATM   18  C   UNL     1      43.475 -17.530   4.651  1.00  0.00     0.218 C 
HETATM   19  C   UNL     1      43.933 -18.816   5.292  1.00  0.00     0.117 C 
HETATM   20  O   UNL     1      43.703 -17.307   3.468  1.00  0.00    -0.274 OA
HETATM   21  H   UNL     1      42.779 -17.013   6.506  1.00  0.00     0.169 HD
ENDBRANCH  13  17
ENDBRANCH   7   9
ENDBRANCH   5   7
ENDBRANCH   2   5
BRANCH   1  22
HETATM   22  C   UNL     1      43.718 -10.049  10.263  1.00  0.00     0.034 A 
HETATM   23  C   UNL     1      43.304 -10.780  11.374  1.00  0.00     0.030 A 
HETATM   24  C   UNL     1      42.816 -10.121  12.516  1.00  0.00     0.016 A 
HETATM   25  C   UNL     1      42.731  -8.720  12.567  1.00  0.00    -0.000 A 
HETATM   26  C   UNL     1      43.141  -8.002  11.433  1.00  0.00     0.016 A 
HETATM   27  C   UNL     1      43.625  -8.655  10.299  1.00  0.00     0.030 A 
BRANCH  25  28
HETATM   28  C   UNL     1      42.259  -7.957  13.740  1.00  0.00     0.109 A 
HETATM   29  N   UNL     1      41.783  -8.533  14.828  1.00  0.00    -0.240 NA
HETATM   30  C   UNL     1      41.443  -7.587  15.776  1.00  0.00     0.075 A 
HETATM   31  C   UNL     1      41.665  -6.264  15.402  1.00  0.00     0.036 A 
HETATM   32  C   UNL     1      40.911  -7.854  17.052  1.00  0.00     0.033 A 
HETATM   33  C   UNL     1      41.375  -5.191  16.262  1.00  0.00     0.028 A 
HETATM   34  S   UNL     1      42.314  -6.238  13.808  1.00  0.00    -0.067 SA
HETATM   35  C   UNL     1      40.849  -5.471  17.534  1.00  0.00    -0.061 A 
HETATM   36  C   UNL     1      40.529  -4.357  18.491  1.00  0.00     0.048 C 
HETATM   37  C   UNL     1      40.619  -6.794  17.918  1.00  0.00     0.009 A 
ENDBRANCH  25  28
ENDBRANCH   1  22
TORSDOF 7
ENDMDL
MODEL 9
REMARK VINA RESULT:      -8.4     18.856     22.319
REMARK  7 active torsions:
REMARK  status: ('A' for Active; 'I' for Inactive)
REMARK    1  A    between atoms: C_7  and  C_8 
REMARK    2  A    between atoms: C_11  and  N_12 
REMARK       I    between atoms: N_12  and  C_13 
REMARK    3  A    between atoms: C_13  and  C_14 
REMARK    4  A    between atoms: C_14  and  N_15 
REMARK    5  A    between atoms: N_15  and  C_16 
REMARK    6  A    between atoms: C_17  and  O_18 
REMARK    7  A    between atoms: C_22  and  N_23 
REMARK       I    between atoms: N_23  and  C_24 
ROOT
HETATM    1  N   UNL     1      50.130 -31.129   1.344  1.00  0.00    -0.326 N 
HETATM    2  C   UNL     1      50.826 -31.238   0.156  1.00  0.00     0.239 C 
HETATM    3  O   UNL     1      51.909 -31.807   0.019  1.00  0.00    -0.271 OA
HETATM    4  H   UNL     1      49.184 -30.797   1.259  1.00  0.00     0.169 HD
ENDROOT
BRANCH   2   5
HETATM    5  C   UNL     1      50.152 -30.510  -1.040  1.00  0.00     0.148 C 
HETATM    6  C   UNL     1      51.073 -30.379  -2.247  1.00  0.00     0.036 C 
BRANCH   5   7
HETATM    7  N   UNL     1      49.456 -29.240  -0.710  1.00  0.00    -0.278 NA
HETATM    8  H   UNL     1      49.963 -28.466  -1.157  1.00  0.00     0.128 HD
BRANCH   7   9
HETATM    9  C   UNL     1      48.093 -29.002  -0.946  1.00  0.00     0.044 C 
HETATM   10  C   UNL     1      47.324 -28.396   0.072  1.00  0.00     0.089 C 
HETATM   11  C   UNL     1      45.987 -28.071  -0.152  1.00  0.00     0.041 C 
HETATM   12  C   UNL     1      45.391 -28.362  -1.383  1.00  0.00     0.032 C 
HETATM   13  C   UNL     1      46.111 -29.019  -2.378  1.00  0.00     0.036 C 
HETATM   14  C   UNL     1      47.441 -29.385  -2.125  1.00  0.00     0.055 C 
BRANCH  10  15
HETATM   15  O   UNL     1      48.002 -28.115   1.237  1.00  0.00    -0.354 OA
HETATM   16  C   UNL     1      47.468 -28.713   2.414  1.00  0.00     0.210 C 
ENDBRANCH  10  15
BRANCH  13  17
HETATM   17  N   UNL     1      45.599 -29.300  -3.664  1.00  0.00    -0.327 N 
HETATM   18  C   UNL     1      44.654 -30.257  -3.997  1.00  0.00     0.218 C 
HETATM   19  C   UNL     1      44.239 -30.175  -5.444  1.00  0.00     0.117 C 
HETATM   20  O   UNL     1      44.127 -31.064  -3.241  1.00  0.00    -0.274 OA
HETATM   21  H   UNL     1      45.912 -28.696  -4.412  1.00  0.00     0.169 HD
ENDBRANCH  13  17
ENDBRANCH   7   9
ENDBRANCH   5   7
ENDBRANCH   2   5
BRANCH   1  22
HETATM   22  C   UNL     1      50.518 -31.490   2.643  1.00  0.00     0.034 A 
HETATM   23  C   UNL     1      50.711 -32.799   3.077  1.00  0.00     0.030 A 
HETATM   24  C   UNL     1      51.165 -33.054   4.382  1.00  0.00     0.016 A 
HETATM   25  C   UNL     1      51.431 -32.006   5.278  1.00  0.00    -0.000 A 
HETATM   26  C   UNL     1      51.218 -30.695   4.827  1.00  0.00     0.016 A 
HETATM   27  C   UNL     1      50.767 -30.440   3.531  1.00  0.00     0.030 A 
BRANCH  25  28
HETATM   28  C   UNL     1      51.938 -32.195   6.653  1.00  0.00     0.109 A 
HETATM   29  N   UNL     1      52.920 -31.475   7.162  1.00  0.00    -0.240 NA
HETATM   30  C   UNL     1      53.171 -31.841   8.470  1.00  0.00     0.075 A 
HETATM   31  C   UNL     1      52.362 -32.860   8.967  1.00  0.00     0.036 A 
HETATM   32  C   UNL     1      54.148 -31.275   9.311  1.00  0.00     0.033 A 
HETATM   33  C   UNL     1      52.493 -33.336  10.284  1.00  0.00     0.028 A 
HETATM   34  S   UNL     1      51.270 -33.356   7.733  1.00  0.00    -0.067 SA
HETATM   35  C   UNL     1      53.468 -32.759  11.114  1.00  0.00    -0.061 A 
HETATM   36  C   UNL     1      53.641 -33.231  12.530  1.00  0.00     0.048 C 
HETATM   37  C   UNL     1      54.287 -31.739  10.624  1.00  0.00     0.009 A 
ENDBRANCH  25  28
ENDBRANCH   1  22
TORSDOF 7
ENDMDL
MODEL 10
REMARK VINA RESULT:      -8.2      3.235      4.468
REMARK  7 active torsions:
REMARK  status: ('A' for Active; 'I' for Inactive)
REMARK    1  A    between atoms: C_7  and  C_8 
REMARK    2  A    between atoms: C_11  and  N_12 
REMARK       I    between atoms: N_12  and  C_13 
REMARK    3  A    between atoms: C_13  and  C_14 
REMARK    4  A    between atoms: C_14  and  N_15 
REMARK    5  A    between atoms: N_15  and  C_16 
REMARK    6  A    between atoms: C_17  and  O_18 
REMARK    7  A    between atoms: C_22  and  N_23 
REMARK       I    between atoms: N_23  and  C_24 
ROOT
HETATM    1  N   UNL     1      42.369  -8.806   8.598  1.00  0.00    -0.326 N 
HETATM    2  C   UNL     1      43.197  -7.738   8.883  1.00  0.00     0.239 C 
HETATM    3  O   UNL     1      44.292  -7.531   8.361  1.00  0.00    -0.271 OA
HETATM    4  H   UNL     1      41.436  -8.739   8.968  1.00  0.00     0.169 HD
ENDROOT
BRANCH   2   5
HETATM    5  C   UNL     1      42.657  -6.802   9.999  1.00  0.00     0.148 C 
HETATM    6  C   UNL     1      43.037  -5.342   9.783  1.00  0.00     0.036 C 
BRANCH   5   7
HETATM    7  N   UNL     1      42.900  -7.257  11.393  1.00  0.00    -0.278 NA
HETATM    8  H   UNL     1      43.834  -6.938  11.680  1.00  0.00     0.128 HD
BRANCH   7   9
HETATM    9  C   UNL     1      42.046  -6.985  12.472  1.00  0.00     0.044 C 
HETATM   10  C   UNL     1      41.007  -7.897  12.763  1.00  0.00     0.089 C 
HETATM   11  C   UNL     1      40.188  -7.704  13.875  1.00  0.00     0.041 C 
HETATM   12  C   UNL     1      40.377  -6.591  14.700  1.00  0.00     0.032 C 
HETATM   13  C   UNL     1      41.351  -5.644  14.397  1.00  0.00     0.036 C 
HETATM   14  C   UNL     1      42.138  -5.822  13.248  1.00  0.00     0.055 C 
BRANCH  10  15
HETATM   15  O   UNL     1      40.918  -8.980  11.917  1.00  0.00    -0.354 OA
HETATM   16  C   UNL     1      39.726  -9.053  11.142  1.00  0.00     0.210 C 
ENDBRANCH  10  15
BRANCH  13  17
HETATM   17  N   UNL     1      41.639  -4.524  15.207  1.00  0.00    -0.327 N 
HETATM   18  C   UNL     1      41.003  -3.293  15.188  1.00  0.00     0.218 C 
HETATM   19  C   UNL     1      41.478  -2.384  16.294  1.00  0.00     0.117 C 
HETATM   20  O   UNL     1      40.108  -2.939  14.430  1.00  0.00    -0.274 OA
HETATM   21  H   UNL     1      42.345  -4.656  15.919  1.00  0.00     0.169 HD
ENDBRANCH  13  17
ENDBRANCH   7   9
ENDBRANCH   5   7
ENDBRANCH   2   5
BRANCH   1  22
HETATM   22  C   UNL     1      42.609  -9.934   7.799  1.00  0.00     0.034 A 
HETATM   23  C   UNL     1      43.741 -10.741   7.887  1.00  0.00     0.030 A 
HETATM   24  C   UNL     1      43.857 -11.890   7.086  1.00  0.00     0.016 A 
HETATM   25  C   UNL     1      42.847 -12.252   6.181  1.00  0.00    -0.000 A 
HETATM   26  C   UNL     1      41.720 -11.420   6.098  1.00  0.00     0.016 A 
HETATM   27  C   UNL     1      41.603 -10.279   6.892  1.00  0.00     0.030 A 
BRANCH  25  28
HETATM   28  C   UNL     1      42.885 -13.459   5.330  1.00  0.00     0.109 A 
HETATM   29  N   UNL     1      43.007 -13.408   4.017  1.00  0.00    -0.240 NA
HETATM   30  C   UNL     1      43.044 -14.680   3.478  1.00  0.00     0.075 A 
HETATM   31  C   UNL     1      42.947 -15.719   4.400  1.00  0.00     0.036 A 
HETATM   32  C   UNL     1      43.172 -14.991   2.111  1.00  0.00     0.033 A 
HETATM   33  C   UNL     1      42.977 -17.068   4.003  1.00  0.00     0.028 A 
HETATM   34  S   UNL     1      42.802 -15.050   5.979  1.00  0.00    -0.067 SA
HETATM   35  C   UNL     1      43.110 -17.365   2.637  1.00  0.00    -0.061 A 
HETATM   36  C   UNL     1      43.152 -18.791   2.166  1.00  0.00     0.048 C 
HETATM   37  C   UNL     1      43.204 -16.330   1.704  1.00  0.00     0.009 A 
ENDBRANCH  25  28
ENDBRANCH   1  22
TORSDOF 7
ENDMDL
