MODEL 1
REMARK VINA RESULT:      -9.3      0.000      0.000
REMARK  7 active torsions:
REMARK  status: ('A' for Active; 'I' for Inactive)
REMARK    1  A    between atoms: O_2  and  C_3 
REMARK    2  A    between atoms: C_6  and  C_7 
REMARK    3  A    between atoms: N_9  and  C_10 
REMARK    4  A    between atoms: C_10  and  C_11 
REMARK    5  A    between atoms: C_18  and  C_19 
REMARK       I    between atoms: C_19  and  N_20 
REMARK    6  A    between atoms: N_20  and  N_21 
REMARK       I    between atoms: N_21  and  C_22 
REMARK    7  A    between atoms: C_22  and  C_23 
ROOT
HETATM    1  C   UNL     1      42.535 -14.845   4.607  1.00  0.00     0.104 A 
HETATM    2  N   UNL     1      42.851 -14.042   5.642  1.00  0.00    -0.171 NA
HETATM    3  N   UNL     1      42.242 -12.877   5.381  1.00  0.00    -0.275 N 
HETATM    4  C   UNL     1      41.623 -12.856   4.168  1.00  0.00     0.132 A 
HETATM    5  C   UNL     1      41.755 -14.129   3.635  1.00  0.00     0.082 A 
ENDROOT
BRANCH   5   6
HETATM    6  C   UNL     1      41.150 -14.592   2.394  1.00  0.00     0.274 C 
HETATM    7  N   UNL     1      41.555 -13.902   1.268  1.00  0.00    -0.263 N 
HETATM    8  H   UNL     1      42.180 -13.101   1.296  1.00  0.00     0.190 HD
HETATM    9  O   UNL     1      40.340 -15.514   2.328  1.00  0.00    -0.266 OA
BRANCH   7  10
HETATM   10  N   UNL     1      40.915 -14.148   0.046  1.00  0.00    -0.262 N 
HETATM   11  C   UNL     1      39.842 -13.352  -0.295  1.00  0.00     0.286 C 
HETATM   12  O   UNL     1      39.533 -12.365   0.376  1.00  0.00    -0.264 OA
HETATM   13  H   UNL     1      41.093 -15.051  -0.388  1.00  0.00     0.190 HD
BRANCH  11  14
HETATM   14  C   UNL     1      39.104 -13.754  -1.470  1.00  0.00     0.102 A 
HETATM   15  N   UNL     1      37.819 -13.306  -1.698  1.00  0.00    -0.361 N 
HETATM   16  H   UNL     1      37.323 -12.680  -1.073  1.00  0.00     0.165 HD
HETATM   17  C   UNL     1      37.334 -13.825  -2.866  1.00  0.00     0.088 A 
HETATM   18  C   UNL     1      38.313 -14.619  -3.414  1.00  0.00     0.019 A 
HETATM   19  C   UNL     1      39.428 -14.576  -2.540  1.00  0.00     0.036 A 
ENDBRANCH  11  14
ENDBRANCH   7  10
ENDBRANCH   5   6
BRANCH   1  20
HETATM   20  C   UNL     1      43.002 -16.237   4.625  1.00  0.00    -0.004 A 
HETATM   21  C   UNL     1      43.108 -16.912   5.854  1.00  0.00     0.016 A 
HETATM   22  C   UNL     1      43.562 -18.235   5.924  1.00  0.00     0.037 A 
HETATM   23  C   UNL     1      43.918 -18.910   4.758  1.00  0.00     0.068 A 
HETATM   24  C   UNL     1      43.829 -18.244   3.535  1.00  0.00     0.037 A 
HETATM   25  C   UNL     1      43.384 -16.917   3.466  1.00  0.00     0.016 A 
BRANCH  23  26
HETATM   26  O   UNL     1      44.367 -20.199   4.683  1.00  0.00    -0.356 OA
HETATM   27  C   UNL     1      43.896 -20.978   3.589  1.00  0.00     0.210 C 
ENDBRANCH  23  26
ENDBRANCH   1  20
BRANCH   3  28
HETATM   28  C   UNL     1      42.266 -11.805   6.368  1.00  0.00     0.189 C 
BRANCH  28  29
HETATM   29  C   UNL     1      43.683 -11.451   6.752  1.00  0.00    -0.038 A 
HETATM   30  C   UNL     1      43.976 -11.019   8.056  1.00  0.00     0.009 A 
HETATM   31  C   UNL     1      45.278 -10.669   8.413  1.00  0.00     0.001 A 
HETATM   32  C   UNL     1      46.303 -10.753   7.474  1.00  0.00     0.000 A 
HETATM   33  C   UNL     1      46.027 -11.186   6.178  1.00  0.00     0.001 A 
HETATM   34  C   UNL     1      44.724 -11.535   5.817  1.00  0.00     0.009 A 
ENDBRANCH  28  29
ENDBRANCH   3  28
TORSDOF 7
ENDMDL
MODEL 2
REMARK VINA RESULT:      -8.8      1.942      7.412
REMARK  7 active torsions:
REMARK  status: ('A' for Active; 'I' for Inactive)
REMARK    1  A    between atoms: O_2  and  C_3 
REMARK    2  A    between atoms: C_6  and  C_7 
REMARK    3  A    between atoms: N_9  and  C_10 
REMARK    4  A    between atoms: C_10  and  C_11 
REMARK    5  A    between atoms: C_18  and  C_19 
REMARK       I    between atoms: C_19  and  N_20 
REMARK    6  A    between atoms: N_20  and  N_21 
REMARK       I    between atoms: N_21  and  C_22 
REMARK    7  A    between atoms: C_22  and  C_23 
ROOT
HETATM    1  C   UNL     1      41.328 -15.619   2.391  1.00  0.00     0.104 A 
HETATM    2  N   UNL     1      40.874 -15.848   1.143  1.00  0.00    -0.171 NA
HETATM    3  N   UNL     1      40.172 -14.754   0.820  1.00  0.00    -0.275 N 
HETATM    4  C   UNL     1      40.066 -13.863   1.844  1.00  0.00     0.132 A 
HETATM    5  C   UNL     1      40.832 -14.365   2.885  1.00  0.00     0.082 A 
ENDROOT
BRANCH   5   6
HETATM    6  C   UNL     1      41.094 -13.684   4.145  1.00  0.00     0.274 C 
HETATM    7  N   UNL     1      42.319 -13.048   4.208  1.00  0.00    -0.263 N 
HETATM    8  H   UNL     1      43.011 -13.090   3.464  1.00  0.00     0.190 HD
HETATM    9  O   UNL     1      40.311 -13.667   5.092  1.00  0.00    -0.266 OA
BRANCH   7  10
HETATM   10  N   UNL     1      42.749 -12.505   5.425  1.00  0.00    -0.262 N 
HETATM   11  C   UNL     1      43.801 -11.614   5.402  1.00  0.00     0.286 C 
HETATM   12  O   UNL     1      44.264 -11.193   4.340  1.00  0.00    -0.264 OA
HETATM   13  H   UNL     1      42.455 -12.990   6.270  1.00  0.00     0.190 HD
BRANCH  11  14
HETATM   14  C   UNL     1      44.326 -11.220   6.689  1.00  0.00     0.102 A 
HETATM   15  N   UNL     1      43.501 -11.075   7.786  1.00  0.00    -0.361 N 
HETATM   16  H   UNL     1      42.500 -11.233   7.760  1.00  0.00     0.165 HD
HETATM   17  C   UNL     1      44.227 -10.694   8.880  1.00  0.00     0.088 A 
HETATM   18  C   UNL     1      45.544 -10.594   8.498  1.00  0.00     0.019 A 
HETATM   19  C   UNL     1      45.610 -10.925   7.122  1.00  0.00     0.036 A 
ENDBRANCH  11  14
ENDBRANCH   7  10
ENDBRANCH   5   6
BRANCH   1  20
HETATM   20  C   UNL     1      42.203 -16.619   3.018  1.00  0.00    -0.004 A 
HETATM   21  C   UNL     1      42.381 -16.602   4.413  1.00  0.00     0.016 A 
HETATM   22  C   UNL     1      43.216 -17.525   5.053  1.00  0.00     0.037 A 
HETATM   23  C   UNL     1      43.891 -18.488   4.305  1.00  0.00     0.068 A 
HETATM   24  C   UNL     1      43.733 -18.503   2.918  1.00  0.00     0.037 A 
HETATM   25  C   UNL     1      42.904 -17.573   2.277  1.00  0.00     0.016 A 
BRANCH  23  26
HETATM   26  O   UNL     1      44.727 -19.449   4.802  1.00  0.00    -0.356 OA
HETATM   27  C   UNL     1      44.123 -20.665   5.228  1.00  0.00     0.210 C 
ENDBRANCH  23  26
ENDBRANCH   1  20
BRANCH   3  28
HETATM   28  C   UNL     1      39.636 -14.603  -0.527  1.00  0.00     0.189 C 
BRANCH  28  29
HETATM   29  C   UNL     1      39.644 -13.156  -0.958  1.00  0.00    -0.038 A 
HETATM   30  C   UNL     1      38.437 -12.458  -1.119  1.00  0.00     0.009 A 
HETATM   31  C   UNL     1      38.435 -11.127  -1.538  1.00  0.00     0.001 A 
HETATM   32  C   UNL     1      39.639 -10.477  -1.794  1.00  0.00     0.000 A 
HETATM   33  C   UNL     1      40.846 -11.156  -1.631  1.00  0.00     0.001 A 
HETATM   34  C   UNL     1      40.851 -12.489  -1.215  1.00  0.00     0.009 A 
ENDBRANCH  28  29
ENDBRANCH   3  28
TORSDOF 7
ENDMDL
MODEL 3
REMARK VINA RESULT:      -8.6      2.929      8.741
REMARK  7 active torsions:
REMARK  status: ('A' for Active; 'I' for Inactive)
REMARK    1  A    between atoms: O_2  and  C_3 
REMARK    2  A    between atoms: C_6  and  C_7 
REMARK    3  A    between atoms: N_9  and  C_10 
REMARK    4  A    between atoms: C_10  and  C_11 
REMARK    5  A    between atoms: C_18  and  C_19 
REMARK       I    between atoms: C_19  and  N_20 
REMARK    6  A    between atoms: N_20  and  N_21 
REMARK       I    between atoms: N_21  and  C_22 
REMARK    7  A    between atoms: C_22  and  C_23 
ROOT
HETATM    1  C   UNL     1      42.581 -15.014   4.354  1.00  0.00     0.104 A 
HETATM    2  N   UNL     1      43.161 -16.228   4.265  1.00  0.00    -0.171 NA
HETATM    3  N   UNL     1      43.763 -16.417   5.446  1.00  0.00    -0.275 N 
HETATM    4  C   UNL     1      43.684 -15.333   6.267  1.00  0.00     0.132 A 
HETATM    5  C   UNL     1      42.893 -14.400   5.614  1.00  0.00     0.082 A 
ENDROOT
BRANCH   5   6
HETATM    6  C   UNL     1      42.453 -13.129   6.171  1.00  0.00     0.274 C 
HETATM    7  N   UNL     1      43.415 -12.462   6.904  1.00  0.00    -0.263 N 
HETATM    8  H   UNL     1      44.339 -12.840   7.092  1.00  0.00     0.190 HD
HETATM    9  O   UNL     1      41.323 -12.668   6.022  1.00  0.00    -0.266 OA
BRANCH   7  10
HETATM   10  N   UNL     1      43.056 -11.315   7.624  1.00  0.00    -0.262 N 
HETATM   11  C   UNL     1      43.978 -10.788   8.505  1.00  0.00     0.286 C 
HETATM   12  O   UNL     1      45.131 -11.218   8.564  1.00  0.00    -0.264 OA
HETATM   13  H   UNL     1      42.064 -11.094   7.666  1.00  0.00     0.190 HD
BRANCH  11  14
HETATM   14  C   UNL     1      43.503  -9.720   9.354  1.00  0.00     0.102 A 
HETATM   15  N   UNL     1      42.399  -9.886  10.166  1.00  0.00    -0.361 N 
HETATM   16  H   UNL     1      41.866 -10.746  10.219  1.00  0.00     0.165 HD
HETATM   17  C   UNL     1      42.147  -8.739  10.866  1.00  0.00     0.088 A 
HETATM   18  C   UNL     1      43.099  -7.812  10.514  1.00  0.00     0.019 A 
HETATM   19  C   UNL     1      43.954  -8.425   9.565  1.00  0.00     0.036 A 
ENDBRANCH  11  14
ENDBRANCH   7  10
ENDBRANCH   5   6
BRANCH   1  20
HETATM   20  C   UNL     1      41.772 -14.534   3.226  1.00  0.00    -0.004 A 
HETATM   21  C   UNL     1      40.709 -15.324   2.755  1.00  0.00     0.016 A 
HETATM   22  C   UNL     1      39.919 -14.915   1.674  1.00  0.00     0.037 A 
HETATM   23  C   UNL     1      40.179 -13.701   1.042  1.00  0.00     0.068 A 
HETATM   24  C   UNL     1      41.242 -12.916   1.494  1.00  0.00     0.037 A 
HETATM   25  C   UNL     1      42.038 -13.330   2.569  1.00  0.00     0.016 A 
BRANCH  23  26
HETATM   26  O   UNL     1      39.484 -13.180  -0.014  1.00  0.00    -0.356 OA
HETATM   27  C   UNL     1      39.394 -13.988  -1.181  1.00  0.00     0.210 C 
ENDBRANCH  23  26
ENDBRANCH   1  20
BRANCH   3  28
HETATM   28  C   UNL     1      44.390 -17.697   5.748  1.00  0.00     0.189 C 
BRANCH  28  29
HETATM   29  C   UNL     1      44.116 -18.708   4.660  1.00  0.00    -0.038 A 
HETATM   30  C   UNL     1      44.080 -20.079   4.959  1.00  0.00     0.009 A 
HETATM   31  C   UNL     1      43.850 -21.020   3.955  1.00  0.00     0.001 A 
HETATM   32  C   UNL     1      43.648 -20.602   2.642  1.00  0.00     0.000 A 
HETATM   33  C   UNL     1      43.675 -19.242   2.333  1.00  0.00     0.001 A 
HETATM   34  C   UNL     1      43.907 -18.299   3.335  1.00  0.00     0.009 A 
ENDBRANCH  28  29
ENDBRANCH   3  28
TORSDOF 7
ENDMDL
MODEL 4
REMARK VINA RESULT:      -8.6      2.143      6.316
REMARK  7 active torsions:
REMARK  status: ('A' for Active; 'I' for Inactive)
REMARK    1  A    between atoms: O_2  and  C_3 
REMARK    2  A    between atoms: C_6  and  C_7 
REMARK    3  A    between atoms: N_9  and  C_10 
REMARK    4  A    between atoms: C_10  and  C_11 
REMARK    5  A    between atoms: C_18  and  C_19 
REMARK       I    between atoms: C_19  and  N_20 
REMARK    6  A    between atoms: N_20  and  N_21 
REMARK       I    between atoms: N_21  and  C_22 
REMARK    7  A    between atoms: C_22  and  C_23 
ROOT
HETATM    1  C   UNL     1      43.297 -14.251   5.707  1.00  0.00     0.104 A 
HETATM    2  N   UNL     1      43.656 -15.281   6.499  1.00  0.00    -0.171 NA
HETATM    3  N   UNL     1      43.521 -16.374   5.737  1.00  0.00    -0.275 N 
HETATM    4  C   UNL     1      42.993 -16.109   4.510  1.00  0.00     0.132 A 
HETATM    5  C   UNL     1      42.859 -14.732   4.426  1.00  0.00     0.082 A 
ENDROOT
BRANCH   5   6
HETATM    6  C   UNL     1      42.432 -13.995   3.245  1.00  0.00     0.274 C 
HETATM    7  N   UNL     1      41.232 -14.420   2.708  1.00  0.00    -0.263 N 
HETATM    8  H   UNL     1      40.709 -15.214   3.066  1.00  0.00     0.190 HD
HETATM    9  O   UNL     1      43.071 -13.072   2.744  1.00  0.00    -0.266 OA
BRANCH   7  10
HETATM   10  N   UNL     1      40.808 -13.899   1.480  1.00  0.00    -0.262 N 
HETATM   11  C   UNL     1      40.126 -14.736   0.622  1.00  0.00     0.286 C 
HETATM   12  O   UNL     1      39.772 -15.865   0.969  1.00  0.00    -0.264 OA
HETATM   13  H   UNL     1      41.250 -13.036   1.173  1.00  0.00     0.190 HD
BRANCH  11  14
HETATM   14  C   UNL     1      39.867 -14.214  -0.700  1.00  0.00     0.102 A 
HETATM   15  N   UNL     1      38.823 -14.690  -1.467  1.00  0.00    -0.361 N 
HETATM   16  H   UNL     1      38.186 -15.416  -1.161  1.00  0.00     0.165 HD
HETATM   17  C   UNL     1      38.787 -14.045  -2.673  1.00  0.00     0.088 A 
HETATM   18  C   UNL     1      39.814 -13.132  -2.695  1.00  0.00     0.019 A 
HETATM   19  C   UNL     1      40.495 -13.234  -1.456  1.00  0.00     0.036 A 
ENDBRANCH  11  14
ENDBRANCH   7  10
ENDBRANCH   5   6
BRANCH   1  20
HETATM   20  C   UNL     1      43.401 -12.885   6.235  1.00  0.00    -0.004 A 
HETATM   21  C   UNL     1      42.276 -12.042   6.193  1.00  0.00     0.016 A 
HETATM   22  C   UNL     1      42.331 -10.727   6.671  1.00  0.00     0.037 A 
HETATM   23  C   UNL     1      43.518 -10.230   7.205  1.00  0.00     0.068 A 
HETATM   24  C   UNL     1      44.644 -11.055   7.239  1.00  0.00     0.037 A 
HETATM   25  C   UNL     1      44.591 -12.367   6.752  1.00  0.00     0.016 A 
BRANCH  23  26
HETATM   26  O   UNL     1      43.706  -8.974   7.712  1.00  0.00    -0.356 OA
HETATM   27  C   UNL     1      44.899  -8.757   8.456  1.00  0.00     0.210 C 
ENDBRANCH  23  26
ENDBRANCH   1  20
BRANCH   3  28
HETATM   28  C   UNL     1      43.951 -17.672   6.241  1.00  0.00     0.189 C 
BRANCH  28  29
HETATM   29  C   UNL     1      43.906 -18.720   5.155  1.00  0.00    -0.038 A 
HETATM   30  C   UNL     1      43.833 -20.082   5.487  1.00  0.00     0.009 A 
HETATM   31  C   UNL     1      43.813 -21.057   4.490  1.00  0.00     0.001 A 
HETATM   32  C   UNL     1      43.860 -20.683   3.150  1.00  0.00     0.000 A 
HETATM   33  C   UNL     1      43.926 -19.333   2.805  1.00  0.00     0.001 A 
HETATM   34  C   UNL     1      43.948 -18.355   3.801  1.00  0.00     0.009 A 
ENDBRANCH  28  29
ENDBRANCH   3  28
TORSDOF 7
ENDMDL
MODEL 5
REMARK VINA RESULT:      -8.5      2.595      6.253
REMARK  7 active torsions:
REMARK  status: ('A' for Active; 'I' for Inactive)
REMARK    1  A    between atoms: O_2  and  C_3 
REMARK    2  A    between atoms: C_6  and  C_7 
REMARK    3  A    between atoms: N_9  and  C_10 
REMARK    4  A    between atoms: C_10  and  C_11 
REMARK    5  A    between atoms: C_18  and  C_19 
REMARK       I    between atoms: C_19  and  N_20 
REMARK    6  A    between atoms: N_20  and  N_21 
REMARK       I    between atoms: N_21  and  C_22 
REMARK    7  A    between atoms: C_22  and  C_23 
ROOT
HETATM    1  C   UNL     1      42.257 -14.438   4.019  1.00  0.00     0.104 A 
HETATM    2  N   UNL     1      43.189 -14.997   4.815  1.00  0.00    -0.171 NA
HETATM    3  N   UNL     1      43.229 -16.287   4.457  1.00  0.00    -0.275 N 
HETATM    4  C   UNL     1      42.289 -16.614   3.527  1.00  0.00     0.132 A 
HETATM    5  C   UNL     1      41.649 -15.434   3.181  1.00  0.00     0.082 A 
ENDROOT
BRANCH   5   6
HETATM    6  C   UNL     1      40.642 -15.294   2.139  1.00  0.00     0.274 C 
HETATM    7  N   UNL     1      41.124 -14.807   0.940  1.00  0.00    -0.263 N 
HETATM    8  H   UNL     1      42.087 -14.516   0.800  1.00  0.00     0.190 HD
HETATM    9  O   UNL     1      39.454 -15.572   2.290  1.00  0.00    -0.266 OA
BRANCH   7  10
HETATM   10  N   UNL     1      40.221 -14.474  -0.078  1.00  0.00    -0.262 N 
HETATM   11  C   UNL     1      39.889 -13.145  -0.240  1.00  0.00     0.286 C 
HETATM   12  O   UNL     1      40.466 -12.256   0.389  1.00  0.00    -0.264 OA
HETATM   13  H   UNL     1      39.659 -15.233  -0.456  1.00  0.00     0.190 HD
BRANCH  11  14
HETATM   14  C   UNL     1      38.824 -12.868  -1.176  1.00  0.00     0.102 A 
HETATM   15  N   UNL     1      38.161 -13.887  -1.830  1.00  0.00    -0.361 N 
HETATM   16  H   UNL     1      38.372 -14.869  -1.698  1.00  0.00     0.165 HD
HETATM   17  C   UNL     1      37.203 -13.375  -2.661  1.00  0.00     0.088 A 
HETATM   18  C   UNL     1      37.233 -12.005  -2.546  1.00  0.00     0.019 A 
HETATM   19  C   UNL     1      38.250 -11.683  -1.613  1.00  0.00     0.036 A 
ENDBRANCH  11  14
ENDBRANCH   7  10
ENDBRANCH   5   6
BRANCH   1  20
HETATM   20  C   UNL     1      42.018 -12.992   4.118  1.00  0.00    -0.004 A 
HETATM   21  C   UNL     1      40.953 -12.522   4.906  1.00  0.00     0.016 A 
HETATM   22  C   UNL     1      40.678 -11.154   5.020  1.00  0.00     0.037 A 
HETATM   23  C   UNL     1      41.469 -10.227   4.345  1.00  0.00     0.068 A 
HETATM   24  C   UNL     1      42.521 -10.684   3.550  1.00  0.00     0.037 A 
HETATM   25  C   UNL     1      42.790 -12.054   3.428  1.00  0.00     0.016 A 
BRANCH  23  26
HETATM   26  O   UNL     1      41.317  -8.868   4.376  1.00  0.00    -0.356 OA
HETATM   27  C   UNL     1      40.369  -8.351   5.302  1.00  0.00     0.210 C 
ENDBRANCH  23  26
ENDBRANCH   1  20
BRANCH   3  28
HETATM   28  C   UNL     1      44.231 -17.173   5.034  1.00  0.00     0.189 C 
BRANCH  28  29
HETATM   29  C   UNL     1      44.083 -18.580   4.506  1.00  0.00    -0.038 A 
HETATM   30  C   UNL     1      43.940 -19.659   5.394  1.00  0.00     0.009 A 
HETATM   31  C   UNL     1      43.825 -20.964   4.914  1.00  0.00     0.001 A 
HETATM   32  C   UNL     1      43.844 -21.206   3.543  1.00  0.00     0.000 A 
HETATM   33  C   UNL     1      43.979 -20.143   2.650  1.00  0.00     0.001 A 
HETATM   34  C   UNL     1      44.097 -18.836   3.127  1.00  0.00     0.009 A 
ENDBRANCH  28  29
ENDBRANCH   3  28
TORSDOF 7
ENDMDL
MODEL 6
REMARK VINA RESULT:      -8.5      3.232      7.894
REMARK  7 active torsions:
REMARK  status: ('A' for Active; 'I' for Inactive)
REMARK    1  A    between atoms: O_2  and  C_3 
REMARK    2  A    between atoms: C_6  and  C_7 
REMARK    3  A    between atoms: N_9  and  C_10 
REMARK    4  A    between atoms: C_10  and  C_11 
REMARK    5  A    between atoms: C_18  and  C_19 
REMARK       I    between atoms: C_19  and  N_20 
REMARK    6  A    between atoms: N_20  and  N_21 
REMARK       I    between atoms: N_21  and  C_22 
REMARK    7  A    between atoms: C_22  and  C_23 
ROOT
HETATM    1  C   UNL     1      42.183 -15.143   3.519  1.00  0.00     0.104 A 
HETATM    2  N   UNL     1      43.132 -16.100   3.536  1.00  0.00    -0.171 NA
HETATM    3  N   UNL     1      43.571 -16.136   4.801  1.00  0.00    -0.275 N 
HETATM    4  C   UNL     1      43.018 -15.171   5.587  1.00  0.00     0.132 A 
HETATM    5  C   UNL     1      42.078 -14.516   4.807  1.00  0.00     0.082 A 
ENDROOT
BRANCH   5   6
HETATM    6  C   UNL     1      41.167 -13.480   5.273  1.00  0.00     0.274 C 
HETATM    7  N   UNL     1      41.717 -12.606   6.191  1.00  0.00    -0.263 N 
HETATM    8  H   UNL     1      42.659 -12.699   6.559  1.00  0.00     0.190 HD
HETATM    9  O   UNL     1      40.001 -13.374   4.902  1.00  0.00    -0.266 OA
BRANCH   7  10
HETATM   10  N   UNL     1      40.889 -11.675   6.832  1.00  0.00    -0.262 N 
HETATM   11  C   UNL     1      41.153 -10.335   6.641  1.00  0.00     0.286 C 
HETATM   12  O   UNL     1      41.996  -9.954   5.826  1.00  0.00    -0.264 OA
HETATM   13  H   UNL     1      40.325 -12.022   7.603  1.00  0.00     0.190 HD
BRANCH  11  14
HETATM   14  C   UNL     1      40.394  -9.417   7.459  1.00  0.00     0.102 A 
HETATM   15  N   UNL     1      39.810  -9.826   8.640  1.00  0.00    -0.361 N 
HETATM   16  H   UNL     1      39.875 -10.770   9.002  1.00  0.00     0.165 HD
HETATM   17  C   UNL     1      39.147  -8.784   9.228  1.00  0.00     0.088 A 
HETATM   18  C   UNL     1      39.303  -7.678   8.427  1.00  0.00     0.019 A 
HETATM   19  C   UNL     1      40.088  -8.072   7.314  1.00  0.00     0.036 A 
ENDBRANCH  11  14
ENDBRANCH   7  10
ENDBRANCH   5   6
BRANCH   1  20
HETATM   20  C   UNL     1      41.447 -14.902   2.271  1.00  0.00    -0.004 A 
HETATM   21  C   UNL     1      41.643 -13.694   1.578  1.00  0.00     0.016 A 
HETATM   22  C   UNL     1      40.954 -13.413   0.392  1.00  0.00     0.037 A 
HETATM   23  C   UNL     1      40.053 -14.341  -0.125  1.00  0.00     0.068 A 
HETATM   24  C   UNL     1      39.841 -15.537   0.563  1.00  0.00     0.037 A 
HETATM   25  C   UNL     1      40.524 -15.814   1.754  1.00  0.00     0.016 A 
BRANCH  23  26
HETATM   26  O   UNL     1      39.323 -14.198  -1.273  1.00  0.00    -0.356 OA
HETATM   27  C   UNL     1      40.054 -13.967  -2.471  1.00  0.00     0.210 C 
ENDBRANCH  23  26
ENDBRANCH   1  20
BRANCH   3  28
HETATM   28  C   UNL     1      44.525 -17.157   5.213  1.00  0.00     0.189 C 
BRANCH  28  29
HETATM   29  C   UNL     1      44.229 -18.479   4.546  1.00  0.00    -0.038 A 
HETATM   30  C   UNL     1      44.072 -19.642   5.317  1.00  0.00     0.009 A 
HETATM   31  C   UNL     1      43.821 -20.872   4.707  1.00  0.00     0.001 A 
HETATM   32  C   UNL     1      43.716 -20.952   3.321  1.00  0.00     0.000 A 
HETATM   33  C   UNL     1      43.863 -19.803   2.544  1.00  0.00     0.001 A 
HETATM   34  C   UNL     1      44.118 -18.572   3.151  1.00  0.00     0.009 A 
ENDBRANCH  28  29
ENDBRANCH   3  28
TORSDOF 7
ENDMDL
MODEL 7
REMARK VINA RESULT:      -8.5      2.272      7.915
REMARK  7 active torsions:
REMARK  status: ('A' for Active; 'I' for Inactive)
REMARK    1  A    between atoms: O_2  and  C_3 
REMARK    2  A    between atoms: C_6  and  C_7 
REMARK    3  A    between atoms: N_9  and  C_10 
REMARK    4  A    between atoms: C_10  and  C_11 
REMARK    5  A    between atoms: C_18  and  C_19 
REMARK       I    between atoms: C_19  and  N_20 
REMARK    6  A    between atoms: N_20  and  N_21 
REMARK       I    between atoms: N_21  and  C_22 
REMARK    7  A    between atoms: C_22  and  C_23 
ROOT
HETATM    1  C   UNL     1      40.856 -14.234   2.911  1.00  0.00     0.104 A 
HETATM    2  N   UNL     1      40.212 -14.036   1.744  1.00  0.00    -0.171 NA
HETATM    3  N   UNL     1      39.542 -12.886   1.904  1.00  0.00    -0.275 N 
HETATM    4  C   UNL     1      39.645 -12.378   3.163  1.00  0.00     0.132 A 
HETATM    5  C   UNL     1      40.520 -13.202   3.852  1.00  0.00     0.082 A 
ENDROOT
BRANCH   5   6
HETATM    6  C   UNL     1      41.006 -12.975   5.205  1.00  0.00     0.274 C 
HETATM    7  N   UNL     1      42.030 -12.052   5.298  1.00  0.00    -0.263 N 
HETATM    8  H   UNL     1      42.454 -11.603   4.491  1.00  0.00     0.190 HD
HETATM    9  O   UNL     1      40.564 -13.547   6.199  1.00  0.00    -0.266 OA
BRANCH   7  10
HETATM   10  N   UNL     1      42.688 -11.877   6.522  1.00  0.00    -0.262 N 
HETATM   11  C   UNL     1      42.838 -10.591   6.998  1.00  0.00     0.286 C 
HETATM   12  O   UNL     1      42.295  -9.632   6.446  1.00  0.00    -0.264 OA
HETATM   13  H   UNL     1      43.248 -12.658   6.855  1.00  0.00     0.190 HD
BRANCH  11  14
HETATM   14  C   UNL     1      43.675 -10.443   8.166  1.00  0.00     0.102 A 
HETATM   15  N   UNL     1      43.144 -10.483   9.439  1.00  0.00    -0.361 N 
HETATM   16  H   UNL     1      42.158 -10.618   9.632  1.00  0.00     0.165 HD
HETATM   17  C   UNL     1      44.130 -10.316  10.372  1.00  0.00     0.088 A 
HETATM   18  C   UNL     1      45.322 -10.170   9.704  1.00  0.00     0.019 A 
HETATM   19  C   UNL     1      45.041 -10.250   8.317  1.00  0.00     0.036 A 
ENDBRANCH  11  14
ENDBRANCH   7  10
ENDBRANCH   5   6
BRANCH   1  20
HETATM   20  C   UNL     1      41.746 -15.396   3.037  1.00  0.00    -0.004 A 
HETATM   21  C   UNL     1      42.407 -15.885   1.896  1.00  0.00     0.016 A 
HETATM   22  C   UNL     1      43.253 -16.998   1.965  1.00  0.00     0.037 A 
HETATM   23  C   UNL     1      43.456 -17.644   3.182  1.00  0.00     0.068 A 
HETATM   24  C   UNL     1      42.793 -17.174   4.318  1.00  0.00     0.037 A 
HETATM   25  C   UNL     1      41.939 -16.067   4.247  1.00  0.00     0.016 A 
BRANCH  23  26
HETATM   26  O   UNL     1      44.259 -18.731   3.390  1.00  0.00    -0.356 OA
HETATM   27  C   UNL     1      43.859 -19.949   2.773  1.00  0.00     0.210 C 
ENDBRANCH  23  26
ENDBRANCH   1  20
BRANCH   3  28
HETATM   28  C   UNL     1      38.828 -12.297   0.779  1.00  0.00     0.189 C 
BRANCH  28  29
HETATM   29  C   UNL     1      39.572 -12.520  -0.516  1.00  0.00    -0.038 A 
HETATM   30  C   UNL     1      40.626 -11.669  -0.884  1.00  0.00     0.009 A 
HETATM   31  C   UNL     1      41.304 -11.855  -2.089  1.00  0.00     0.001 A 
HETATM   32  C   UNL     1      40.940 -12.897  -2.937  1.00  0.00     0.000 A 
HETATM   33  C   UNL     1      39.899 -13.754  -2.582  1.00  0.00     0.001 A 
HETATM   34  C   UNL     1      39.217 -13.568  -1.378  1.00  0.00     0.009 A 
ENDBRANCH  28  29
ENDBRANCH   3  28
TORSDOF 7
ENDMDL
MODEL 8
REMARK VINA RESULT:      -8.4      1.407      2.609
REMARK  7 active torsions:
REMARK  status: ('A' for Active; 'I' for Inactive)
REMARK    1  A    between atoms: O_2  and  C_3 
REMARK    2  A    between atoms: C_6  and  C_7 
REMARK    3  A    between atoms: N_9  and  C_10 
REMARK    4  A    between atoms: C_10  and  C_11 
REMARK    5  A    between atoms: C_18  and  C_19 
REMARK       I    between atoms: C_19  and  N_20 
REMARK    6  A    between atoms: N_20  and  N_21 
REMARK       I    between atoms: N_21  and  C_22 
REMARK    7  A    between atoms: C_22  and  C_23 
ROOT
HETATM    1  C   UNL     1      42.782 -14.616   4.347  1.00  0.00     0.104 A 
HETATM    2  N   UNL     1      43.175 -13.784   5.332  1.00  0.00    -0.171 NA
HETATM    3  N   UNL     1      42.587 -12.612   5.057  1.00  0.00    -0.275 N 
HETATM    4  C   UNL     1      41.905 -12.619   3.878  1.00  0.00     0.132 A 
HETATM    5  C   UNL     1      41.973 -13.914   3.390  1.00  0.00     0.082 A 
ENDROOT
BRANCH   5   6
HETATM    6  C   UNL     1      41.290 -14.406   2.202  1.00  0.00     0.274 C 
HETATM    7  N   UNL     1      41.692 -13.810   1.023  1.00  0.00    -0.263 N 
HETATM    8  H   UNL     1      42.369 -13.053   0.980  1.00  0.00     0.190 HD
HETATM    9  O   UNL     1      40.419 -15.273   2.220  1.00  0.00    -0.266 OA
BRANCH   7  10
HETATM   10  N   UNL     1      40.990 -14.082  -0.159  1.00  0.00    -0.262 N 
HETATM   11  C   UNL     1      39.913 -13.279  -0.471  1.00  0.00     0.286 C 
HETATM   12  O   UNL     1      39.652 -12.268   0.183  1.00  0.00    -0.264 OA
HETATM   13  H   UNL     1      41.133 -15.000  -0.573  1.00  0.00     0.190 HD
BRANCH  11  14
HETATM   14  C   UNL     1      39.112 -13.704  -1.596  1.00  0.00     0.102 A 
HETATM   15  N   UNL     1      37.805 -13.287  -1.743  1.00  0.00    -0.361 N 
HETATM   16  H   UNL     1      37.335 -12.670  -1.091  1.00  0.00     0.165 HD
HETATM   17  C   UNL     1      37.260 -13.823  -2.877  1.00  0.00     0.088 A 
HETATM   18  C   UNL     1      38.221 -14.596  -3.483  1.00  0.00     0.019 A 
HETATM   19  C   UNL     1      39.388 -14.523  -2.681  1.00  0.00     0.036 A 
ENDBRANCH  11  14
ENDBRANCH   7  10
ENDBRANCH   5   6
BRANCH   1  20
HETATM   20  C   UNL     1      43.210 -16.020   4.398  1.00  0.00    -0.004 A 
HETATM   21  C   UNL     1      43.343 -16.743   3.199  1.00  0.00     0.016 A 
HETATM   22  C   UNL     1      43.733 -18.087   3.198  1.00  0.00     0.037 A 
HETATM   23  C   UNL     1      44.001 -18.735   4.402  1.00  0.00     0.068 A 
HETATM   24  C   UNL     1      43.858 -18.030   5.598  1.00  0.00     0.037 A 
HETATM   25  C   UNL     1      43.458 -16.687   5.600  1.00  0.00     0.016 A 
BRANCH  23  26
HETATM   26  O   UNL     1      44.397 -20.037   4.543  1.00  0.00    -0.356 OA
HETATM   27  C   UNL     1      43.862 -20.972   3.615  1.00  0.00     0.210 C 
ENDBRANCH  23  26
ENDBRANCH   1  20
BRANCH   3  28
HETATM   28  C   UNL     1      42.693 -11.504   5.997  1.00  0.00     0.189 C 
BRANCH  28  29
HETATM   29  C   UNL     1      41.425 -10.685   6.020  1.00  0.00    -0.038 A 
HETATM   30  C   UNL     1      41.443  -9.339   5.619  1.00  0.00     0.009 A 
HETATM   31  C   UNL     1      40.280  -8.570   5.658  1.00  0.00     0.001 A 
HETATM   32  C   UNL     1      39.085  -9.137   6.092  1.00  0.00     0.000 A 
HETATM   33  C   UNL     1      39.051 -10.474   6.487  1.00  0.00     0.001 A 
HETATM   34  C   UNL     1      40.214 -11.246   6.452  1.00  0.00     0.009 A 
ENDBRANCH  28  29
ENDBRANCH   3  28
TORSDOF 7
ENDMDL
MODEL 9
REMARK VINA RESULT:      -8.3      3.105      6.592
REMARK  7 active torsions:
REMARK  status: ('A' for Active; 'I' for Inactive)
REMARK    1  A    between atoms: O_2  and  C_3 
REMARK    2  A    between atoms: C_6  and  C_7 
REMARK    3  A    between atoms: N_9  and  C_10 
REMARK    4  A    between atoms: C_10  and  C_11 
REMARK    5  A    between atoms: C_18  and  C_19 
REMARK       I    between atoms: C_19  and  N_20 
REMARK    6  A    between atoms: N_20  and  N_21 
REMARK       I    between atoms: N_21  and  C_22 
REMARK    7  A    between atoms: C_22  and  C_23 
ROOT
HETATM    1  C   UNL     1      42.727 -12.424   5.742  1.00  0.00     0.104 A 
HETATM    2  N   UNL     1      42.939 -11.118   5.997  1.00  0.00    -0.171 NA
HETATM    3  N   UNL     1      43.701 -11.095   7.099  1.00  0.00    -0.275 N 
HETATM    4  C   UNL     1      43.912 -12.331   7.630  1.00  0.00     0.132 A 
HETATM    5  C   UNL     1      43.325 -13.239   6.763  1.00  0.00     0.082 A 
ENDROOT
BRANCH   5   6
HETATM    6  C   UNL     1      43.399 -14.688   6.880  1.00  0.00     0.274 C 
HETATM    7  N   UNL     1      44.428 -15.269   6.164  1.00  0.00    -0.263 N 
HETATM    8  H   UNL     1      45.055 -14.745   5.560  1.00  0.00     0.190 HD
HETATM    9  O   UNL     1      42.619 -15.364   7.548  1.00  0.00    -0.266 OA
BRANCH   7  10
HETATM   10  N   UNL     1      44.495 -16.665   6.068  1.00  0.00    -0.262 N 
HETATM   11  C   UNL     1      44.016 -17.258   4.919  1.00  0.00     0.286 C 
HETATM   12  O   UNL     1      43.668 -16.588   3.945  1.00  0.00    -0.264 OA
HETATM   13  H   UNL     1      44.634 -17.176   6.936  1.00  0.00     0.190 HD
BRANCH  11  14
HETATM   14  C   UNL     1      43.938 -18.701   4.937  1.00  0.00     0.102 A 
HETATM   15  N   UNL     1      44.057 -19.440   3.777  1.00  0.00    -0.361 N 
HETATM   16  H   UNL     1      44.205 -19.029   2.863  1.00  0.00     0.165 HD
HETATM   17  C   UNL     1      43.946 -20.775   4.051  1.00  0.00     0.088 A 
HETATM   18  C   UNL     1      43.757 -20.914   5.405  1.00  0.00     0.019 A 
HETATM   19  C   UNL     1      43.753 -19.612   5.966  1.00  0.00     0.036 A 
ENDBRANCH  11  14
ENDBRANCH   7  10
ENDBRANCH   5   6
BRANCH   1  20
HETATM   20  C   UNL     1      41.969 -12.794   4.540  1.00  0.00    -0.004 A 
HETATM   21  C   UNL     1      40.571 -12.926   4.619  1.00  0.00     0.016 A 
HETATM   22  C   UNL     1      39.808 -13.291   3.504  1.00  0.00     0.037 A 
HETATM   23  C   UNL     1      40.432 -13.530   2.282  1.00  0.00     0.068 A 
HETATM   24  C   UNL     1      41.821 -13.415   2.196  1.00  0.00     0.037 A 
HETATM   25  C   UNL     1      42.586 -13.059   3.314  1.00  0.00     0.016 A 
BRANCH  23  26
HETATM   26  O   UNL     1      39.809 -13.883   1.117  1.00  0.00    -0.356 OA
HETATM   27  C   UNL     1      40.555 -14.686   0.210  1.00  0.00     0.210 C 
ENDBRANCH  23  26
ENDBRANCH   1  20
BRANCH   3  28
HETATM   28  C   UNL     1      44.232  -9.831   7.591  1.00  0.00     0.189 C 
BRANCH  28  29
HETATM   29  C   UNL     1      43.752  -9.549   8.996  1.00  0.00    -0.038 A 
HETATM   30  C   UNL     1      44.663  -9.525  10.064  1.00  0.00     0.009 A 
HETATM   31  C   UNL     1      44.225  -9.288  11.367  1.00  0.00     0.001 A 
HETATM   32  C   UNL     1      42.874  -9.065  11.617  1.00  0.00     0.000 A 
HETATM   33  C   UNL     1      41.959  -9.079  10.564  1.00  0.00     0.001 A 
HETATM   34  C   UNL     1      42.395  -9.320   9.259  1.00  0.00     0.009 A 
ENDBRANCH  28  29
ENDBRANCH   3  28
TORSDOF 7
ENDMDL
MODEL 10
REMARK VINA RESULT:      -8.2      1.858      2.492
REMARK  7 active torsions:
REMARK  status: ('A' for Active; 'I' for Inactive)
REMARK    1  A    between atoms: O_2  and  C_3 
REMARK    2  A    between atoms: C_6  and  C_7 
REMARK    3  A    between atoms: N_9  and  C_10 
REMARK    4  A    between atoms: C_10  and  C_11 
REMARK    5  A    between atoms: C_18  and  C_19 
REMARK       I    between atoms: C_19  and  N_20 
REMARK    6  A    between atoms: N_20  and  N_21 
REMARK       I    between atoms: N_21  and  C_22 
REMARK    7  A    between atoms: C_22  and  C_23 
ROOT
HETATM    1  C   UNL     1      42.827 -12.854   5.613  1.00  0.00     0.104 A 
HETATM    2  N   UNL     1      42.787 -12.131   6.749  1.00  0.00    -0.171 NA
HETATM    3  N   UNL     1      42.594 -10.866   6.353  1.00  0.00    -0.275 N 
HETATM    4  C   UNL     1      42.606 -10.721   4.999  1.00  0.00     0.132 A 
HETATM    5  C   UNL     1      42.721 -11.995   4.466  1.00  0.00     0.082 A 
ENDROOT
BRANCH   5   6
HETATM    6  C   UNL     1      42.666 -12.327   3.050  1.00  0.00     0.274 C 
HETATM    7  N   UNL     1      41.721 -11.619   2.333  1.00  0.00    -0.263 N 
HETATM    8  H   UNL     1      41.075 -10.958   2.756  1.00  0.00     0.190 HD
HETATM    9  O   UNL     1      43.384 -13.167   2.513  1.00  0.00    -0.266 OA
BRANCH   7  10
HETATM   10  N   UNL     1      41.463 -11.972   1.002  1.00  0.00    -0.262 N 
HETATM   11  C   UNL     1      40.367 -12.767   0.743  1.00  0.00     0.286 C 
HETATM   12  O   UNL     1      39.553 -13.048   1.625  1.00  0.00    -0.264 OA
HETATM   13  H   UNL     1      42.230 -11.858   0.343  1.00  0.00     0.190 HD
BRANCH  11  14
HETATM   14  C   UNL     1      40.243 -13.253  -0.612  1.00  0.00     0.102 A 
HETATM   15  N   UNL     1      41.033 -12.754  -1.627  1.00  0.00    -0.361 N 
HETATM   16  H   UNL     1      41.734 -12.035  -1.492  1.00  0.00     0.165 HD
HETATM   17  C   UNL     1      40.728 -13.366  -2.812  1.00  0.00     0.088 A 
HETATM   18  C   UNL     1      39.731 -14.281  -2.569  1.00  0.00     0.019 A 
HETATM   19  C   UNL     1      39.424 -14.214  -1.187  1.00  0.00     0.036 A 
ENDBRANCH  11  14
ENDBRANCH   7  10
ENDBRANCH   5   6
BRANCH   1  20
HETATM   20  C   UNL     1      42.962 -14.313   5.710  1.00  0.00    -0.004 A 
HETATM   21  C   UNL     1      44.105 -14.861   6.320  1.00  0.00     0.016 A 
HETATM   22  C   UNL     1      44.285 -16.245   6.423  1.00  0.00     0.037 A 
HETATM   23  C   UNL     1      43.319 -17.112   5.916  1.00  0.00     0.068 A 
HETATM   24  C   UNL     1      42.188 -16.578   5.296  1.00  0.00     0.037 A 
HETATM   25  C   UNL     1      42.012 -15.193   5.185  1.00  0.00     0.016 A 
BRANCH  23  26
HETATM   26  O   UNL     1      43.365 -18.478   5.957  1.00  0.00    -0.356 OA
HETATM   27  C   UNL     1      44.141 -19.122   4.954  1.00  0.00     0.210 C 
ENDBRANCH  23  26
ENDBRANCH   1  20
BRANCH   3  28
HETATM   28  C   UNL     1      42.373  -9.818   7.341  1.00  0.00     0.189 C 
BRANCH  28  29
HETATM   29  C   UNL     1      43.504  -9.764   8.340  1.00  0.00    -0.038 A 
HETATM   30  C   UNL     1      43.261 -10.014   9.700  1.00  0.00     0.009 A 
HETATM   31  C   UNL     1      44.297  -9.944  10.632  1.00  0.00     0.001 A 
HETATM   32  C   UNL     1      45.588  -9.630  10.216  1.00  0.00     0.000 A 
HETATM   33  C   UNL     1      45.844  -9.386   8.867  1.00  0.00     0.001 A 
HETATM   34  C   UNL     1      44.809  -9.452   7.932  1.00  0.00     0.009 A 
ENDBRANCH  28  29
ENDBRANCH   3  28
TORSDOF 7
ENDMDL
