MODEL 1
REMARK VINA RESULT:      -8.5      0.000      0.000
REMARK  3 active torsions:
REMARK  status: ('A' for Active; 'I' for Inactive)
REMARK    1  A    between atoms: C_5  and  N_6 
REMARK       I    between atoms: N_6  and  C_7 
REMARK    2  A    between atoms: C_7  and  C_8 
REMARK    3  A    between atoms: C_11  and  N_12 
ROOT
HETATM    1  C   UNL     1      44.275 -19.187   3.223  1.00  0.00     0.001 A 
HETATM    2  C   UNL     1      44.436 -18.257   4.252  1.00  0.00     0.008 A 
HETATM    3  C   UNL     1      43.558 -17.184   4.319  1.00  0.00    -0.043 A 
HETATM    4  C   UNL     1      42.545 -17.023   3.373  1.00  0.00    -0.028 A 
HETATM    5  C   UNL     1      41.710 -15.810   3.648  1.00  0.00     0.125 C 
HETATM    6  C   UNL     1      42.470 -15.120   4.814  1.00  0.00     0.049 C 
HETATM    7  C   UNL     1      43.556 -16.088   5.338  1.00  0.00     0.053 C 
HETATM    8  C   UNL     1      41.562 -14.857   6.006  1.00  0.00     0.239 C 
HETATM    9  N   UNL     1      41.678 -16.102   6.828  1.00  0.00    -0.074 N 
HETATM   10  H   UNL     1      41.386 -15.941   7.802  1.00  0.00     0.277 HD
HETATM   11  H   UNL     1      41.061 -16.836   6.452  1.00  0.00     0.277 HD
HETATM   12  C   UNL     1      43.108 -16.531   6.728  1.00  0.00     0.242 C 
HETATM   13  C   UNL     1      42.370 -17.955   2.359  1.00  0.00     0.010 A 
HETATM   14  C   UNL     1      43.246 -19.039   2.285  1.00  0.00     0.001 A 
ENDROOT
BRANCH   5  15
HETATM   15  N   UNL     1      41.576 -14.950   2.495  1.00  0.00    -0.348 N 
HETATM   16  C   UNL     1      40.402 -14.958   1.768  1.00  0.00     0.252 C 
HETATM   17  O   UNL     1      39.414 -15.575   2.158  1.00  0.00    -0.268 OA
HETATM   18  H   UNL     1      42.421 -14.606   2.056  1.00  0.00     0.163 HD
BRANCH  16  19
HETATM   19  C   UNL     1      40.384 -14.217   0.474  1.00  0.00     0.032 A 
HETATM   20  C   UNL     1      40.984 -12.964   0.311  1.00  0.00     0.019 A 
HETATM   21  C   UNL     1      40.955 -12.333  -0.940  1.00  0.00     0.024 A 
HETATM   22  C   UNL     1      40.286 -12.910  -2.021  1.00  0.00     0.005 A 
HETATM   23  C   UNL     1      39.723 -14.177  -1.861  1.00  0.00     0.024 A 
HETATM   24  C   UNL     1      39.748 -14.818  -0.618  1.00  0.00     0.019 A 
BRANCH  22  25
HETATM   25  N   UNL     1      40.384 -12.340  -3.294  1.00  0.00    -0.303 NA
HETATM   26  H   UNL     1      41.315 -12.022  -3.544  1.00  0.00     0.124 HD
HETATM   27  H   UNL     1      39.676 -11.642  -3.497  1.00  0.00     0.124 HD
ENDBRANCH  22  25
ENDBRANCH  16  19
ENDBRANCH   5  15
TORSDOF 3
ENDMDL
MODEL 2
REMARK VINA RESULT:      -8.2      2.929      6.508
REMARK  3 active torsions:
REMARK  status: ('A' for Active; 'I' for Inactive)
REMARK    1  A    between atoms: C_5  and  N_6 
REMARK       I    between atoms: N_6  and  C_7 
REMARK    2  A    between atoms: C_7  and  C_8 
REMARK    3  A    between atoms: C_11  and  N_12 
ROOT
HETATM    1  C   UNL     1      44.194 -11.658   7.104  1.00  0.00     0.001 A 
HETATM    2  C   UNL     1      44.131 -11.171   5.798  1.00  0.00     0.008 A 
HETATM    3  C   UNL     1      43.587 -11.983   4.812  1.00  0.00    -0.043 A 
HETATM    4  C   UNL     1      43.126 -13.266   5.112  1.00  0.00    -0.028 A 
HETATM    5  C   UNL     1      42.566 -13.956   3.905  1.00  0.00     0.125 C 
HETATM    6  C   UNL     1      42.916 -12.977   2.750  1.00  0.00     0.049 C 
HETATM    7  C   UNL     1      43.424 -11.651   3.363  1.00  0.00     0.053 C 
HETATM    8  C   UNL     1      41.688 -12.596   1.938  1.00  0.00     0.239 C 
HETATM    9  N   UNL     1      41.154 -11.386   2.639  1.00  0.00    -0.074 N 
HETATM   10  H   UNL     1      40.533 -10.838   2.028  1.00  0.00     0.277 HD
HETATM   11  H   UNL     1      40.592 -11.667   3.456  1.00  0.00     0.277 HD
HETATM   12  C   UNL     1      42.350 -10.604   3.082  1.00  0.00     0.242 C 
HETATM   13  C   UNL     1      43.169 -13.748   6.414  1.00  0.00     0.010 A 
HETATM   14  C   UNL     1      43.712 -12.937   7.411  1.00  0.00     0.001 A 
ENDROOT
BRANCH   5  15
HETATM   15  N   UNL     1      43.129 -15.270   3.700  1.00  0.00    -0.348 N 
HETATM   16  C   UNL     1      42.304 -16.323   3.360  1.00  0.00     0.252 C 
HETATM   17  O   UNL     1      41.120 -16.143   3.088  1.00  0.00    -0.268 OA
HETATM   18  H   UNL     1      44.034 -15.469   4.109  1.00  0.00     0.163 HD
BRANCH  16  19
HETATM   19  C   UNL     1      42.892 -17.693   3.365  1.00  0.00     0.032 A 
HETATM   20  C   UNL     1      43.620 -18.201   4.446  1.00  0.00     0.019 A 
HETATM   21  C   UNL     1      44.123 -19.507   4.398  1.00  0.00     0.024 A 
HETATM   22  C   UNL     1      43.958 -20.301   3.261  1.00  0.00     0.005 A 
HETATM   23  C   UNL     1      43.199 -19.801   2.202  1.00  0.00     0.024 A 
HETATM   24  C   UNL     1      42.689 -18.499   2.239  1.00  0.00     0.019 A 
BRANCH  22  25
HETATM   25  N   UNL     1      44.341 -21.644   3.279  1.00  0.00    -0.303 NA
HETATM   26  H   UNL     1      43.934 -22.209   2.539  1.00  0.00     0.124 HD
HETATM   27  H   UNL     1      44.261 -22.092   4.186  1.00  0.00     0.124 HD
ENDBRANCH  22  25
ENDBRANCH  16  19
ENDBRANCH   5  15
TORSDOF 3
ENDMDL
MODEL 3
REMARK VINA RESULT:      -7.9      1.464      2.043
REMARK  3 active torsions:
REMARK  status: ('A' for Active; 'I' for Inactive)
REMARK    1  A    between atoms: C_5  and  N_6 
REMARK       I    between atoms: N_6  and  C_7 
REMARK    2  A    between atoms: C_7  and  C_8 
REMARK    3  A    between atoms: C_11  and  N_12 
ROOT
HETATM    1  C   UNL     1      43.955 -19.004   2.991  1.00  0.00     0.001 A 
HETATM    2  C   UNL     1      44.410 -18.407   4.167  1.00  0.00     0.008 A 
HETATM    3  C   UNL     1      43.819 -17.220   4.581  1.00  0.00    -0.043 A 
HETATM    4  C   UNL     1      42.804 -16.624   3.832  1.00  0.00    -0.028 A 
HETATM    5  C   UNL     1      42.303 -15.364   4.470  1.00  0.00     0.125 C 
HETATM    6  C   UNL     1      43.291 -15.154   5.650  1.00  0.00     0.049 C 
HETATM    7  C   UNL     1      44.154 -16.429   5.805  1.00  0.00     0.053 C 
HETATM    8  C   UNL     1      42.566 -15.001   6.978  1.00  0.00     0.239 C 
HETATM    9  N   UNL     1      42.446 -16.403   7.487  1.00  0.00    -0.074 N 
HETATM   10  H   UNL     1      42.276 -16.424   8.502  1.00  0.00     0.277 HD
HETATM   11  H   UNL     1      41.645 -16.877   7.043  1.00  0.00     0.277 HD
HETATM   12  C   UNL     1      43.721 -17.089   7.111  1.00  0.00     0.242 C 
HETATM   13  C   UNL     1      42.335 -17.224   2.670  1.00  0.00     0.010 A 
HETATM   14  C   UNL     1      42.922 -18.418   2.249  1.00  0.00     0.001 A 
ENDROOT
BRANCH   5  15
HETATM   15  N   UNL     1      42.289 -14.243   3.560  1.00  0.00    -0.348 N 
HETATM   16  C   UNL     1      41.108 -13.877   2.943  1.00  0.00     0.252 C 
HETATM   17  O   UNL     1      40.039 -14.393   3.256  1.00  0.00    -0.268 OA
HETATM   18  H   UNL     1      43.167 -13.952   3.148  1.00  0.00     0.163 HD
BRANCH  16  19
HETATM   19  C   UNL     1      41.182 -12.855   1.860  1.00  0.00     0.032 A 
HETATM   20  C   UNL     1      40.837 -13.133   0.533  1.00  0.00     0.019 A 
HETATM   21  C   UNL     1      40.903 -12.120  -0.433  1.00  0.00     0.024 A 
HETATM   22  C   UNL     1      41.361 -10.843  -0.106  1.00  0.00     0.005 A 
HETATM   23  C   UNL     1      41.666 -10.563   1.227  1.00  0.00     0.024 A 
HETATM   24  C   UNL     1      41.603 -11.565   2.200  1.00  0.00     0.019 A 
BRANCH  22  25
HETATM   25  N   UNL     1      41.289  -9.808  -1.042  1.00  0.00    -0.303 NA
HETATM   26  H   UNL     1      40.353  -9.448  -1.202  1.00  0.00     0.124 HD
HETATM   27  H   UNL     1      41.778  -9.993  -1.912  1.00  0.00     0.124 HD
ENDBRANCH  22  25
ENDBRANCH  16  19
ENDBRANCH   5  15
TORSDOF 3
ENDMDL
MODEL 4
REMARK VINA RESULT:      -7.8      1.642      7.474
REMARK  3 active torsions:
REMARK  status: ('A' for Active; 'I' for Inactive)
REMARK    1  A    between atoms: C_5  and  N_6 
REMARK       I    between atoms: N_6  and  C_7 
REMARK    2  A    between atoms: C_7  and  C_8 
REMARK    3  A    between atoms: C_11  and  N_12 
ROOT
HETATM    1  C   UNL     1      41.633  -9.843  -0.356  1.00  0.00     0.001 A 
HETATM    2  C   UNL     1      41.296 -10.608  -1.474  1.00  0.00     0.008 A 
HETATM    3  C   UNL     1      40.902 -11.925  -1.282  1.00  0.00    -0.043 A 
HETATM    4  C   UNL     1      40.857 -12.483  -0.004  1.00  0.00    -0.028 A 
HETATM    5  C   UNL     1      40.390 -13.907  -0.030  1.00  0.00     0.125 C 
HETATM    6  C   UNL     1      40.324 -14.224  -1.549  1.00  0.00     0.049 C 
HETATM    7  C   UNL     1      40.498 -12.905  -2.338  1.00  0.00     0.053 C 
HETATM    8  C   UNL     1      38.959 -14.756  -1.959  1.00  0.00     0.239 C 
HETATM    9  N   UNL     1      38.182 -13.524  -2.305  1.00  0.00    -0.074 N 
HETATM   10  H   UNL     1      37.370 -13.743  -2.898  1.00  0.00     0.277 HD
HETATM   11  H   UNL     1      37.813 -13.083  -1.450  1.00  0.00     0.277 HD
HETATM   12  C   UNL     1      39.148 -12.604  -2.983  1.00  0.00     0.242 C 
HETATM   13  C   UNL     1      41.173 -11.720   1.113  1.00  0.00     0.010 A 
HETATM   14  C   UNL     1      41.568 -10.394   0.930  1.00  0.00     0.001 A 
ENDROOT
BRANCH   5  15
HETATM   15  N   UNL     1      41.277 -14.800   0.679  1.00  0.00    -0.348 N 
HETATM   16  C   UNL     1      40.780 -15.597   1.692  1.00  0.00     0.252 C 
HETATM   17  O   UNL     1      39.574 -15.669   1.913  1.00  0.00    -0.268 OA
HETATM   18  H   UNL     1      42.271 -14.606   0.652  1.00  0.00     0.163 HD
BRANCH  16  19
HETATM   19  C   UNL     1      41.762 -16.341   2.531  1.00  0.00     0.032 A 
HETATM   20  C   UNL     1      41.901 -16.125   3.906  1.00  0.00     0.019 A 
HETATM   21  C   UNL     1      42.824 -16.878   4.643  1.00  0.00     0.024 A 
HETATM   22  C   UNL     1      43.654 -17.811   4.017  1.00  0.00     0.005 A 
HETATM   23  C   UNL     1      43.483 -18.048   2.652  1.00  0.00     0.024 A 
HETATM   24  C   UNL     1      42.563 -17.304   1.907  1.00  0.00     0.019 A 
BRANCH  22  25
HETATM   25  N   UNL     1      44.468 -18.652   4.780  1.00  0.00    -0.303 NA
HETATM   26  H   UNL     1      45.290 -18.202   5.172  1.00  0.00     0.124 HD
HETATM   27  H   UNL     1      44.695 -19.535   4.334  1.00  0.00     0.124 HD
ENDBRANCH  22  25
ENDBRANCH  16  19
ENDBRANCH   5  15
TORSDOF 3
ENDMDL
MODEL 5
REMARK VINA RESULT:      -7.8      1.636      7.519
REMARK  3 active torsions:
REMARK  status: ('A' for Active; 'I' for Inactive)
REMARK    1  A    between atoms: C_5  and  N_6 
REMARK       I    between atoms: N_6  and  C_7 
REMARK    2  A    between atoms: C_7  and  C_8 
REMARK    3  A    between atoms: C_11  and  N_12 
ROOT
HETATM    1  C   UNL     1      41.646  -9.854  -0.346  1.00  0.00     0.001 A 
HETATM    2  C   UNL     1      41.295 -10.588  -1.479  1.00  0.00     0.008 A 
HETATM    3  C   UNL     1      40.875 -11.902  -1.316  1.00  0.00    -0.043 A 
HETATM    4  C   UNL     1      40.820 -12.486  -0.050  1.00  0.00    -0.028 A 
HETATM    5  C   UNL     1      40.326 -13.900  -0.107  1.00  0.00     0.125 C 
HETATM    6  C   UNL     1      40.253 -14.183  -1.632  1.00  0.00     0.049 C 
HETATM    7  C   UNL     1      40.453 -12.851  -2.392  1.00  0.00     0.053 C 
HETATM    8  C   UNL     1      38.879 -14.679  -2.053  1.00  0.00     0.239 C 
HETATM    9  N   UNL     1      38.126 -13.425  -2.372  1.00  0.00    -0.074 N 
HETATM   10  H   UNL     1      37.309 -13.616  -2.969  1.00  0.00     0.277 HD
HETATM   11  H   UNL     1      37.765 -12.996  -1.507  1.00  0.00     0.277 HD
HETATM   12  C   UNL     1      39.109 -12.510  -3.030  1.00  0.00     0.242 C 
HETATM   13  C   UNL     1      41.151 -11.754   1.083  1.00  0.00     0.010 A 
HETATM   14  C   UNL     1      41.571 -10.432   0.928  1.00  0.00     0.001 A 
ENDROOT
BRANCH   5  15
HETATM   15  N   UNL     1      41.196 -14.825   0.583  1.00  0.00    -0.348 N 
HETATM   16  C   UNL     1      40.721 -15.529   1.672  1.00  0.00     0.252 C 
HETATM   17  O   UNL     1      39.534 -15.494   1.985  1.00  0.00    -0.268 OA
HETATM   18  H   UNL     1      42.196 -14.712   0.471  1.00  0.00     0.163 HD
BRANCH  16  19
HETATM   19  C   UNL     1      41.706 -16.308   2.475  1.00  0.00     0.032 A 
HETATM   20  C   UNL     1      42.659 -17.151   1.894  1.00  0.00     0.019 A 
HETATM   21  C   UNL     1      43.574 -17.835   2.704  1.00  0.00     0.024 A 
HETATM   22  C   UNL     1      43.519 -17.733   4.096  1.00  0.00     0.005 A 
HETATM   23  C   UNL     1      42.591 -16.861   4.666  1.00  0.00     0.024 A 
HETATM   24  C   UNL     1      41.673 -16.171   3.867  1.00  0.00     0.019 A 
BRANCH  22  25
HETATM   25  N   UNL     1      44.521 -18.306   4.884  1.00  0.00    -0.303 NA
HETATM   26  H   UNL     1      44.632 -17.882   5.800  1.00  0.00     0.124 HD
HETATM   27  H   UNL     1      45.411 -18.426   4.410  1.00  0.00     0.124 HD
ENDBRANCH  22  25
ENDBRANCH  16  19
ENDBRANCH   5  15
TORSDOF 3
ENDMDL
MODEL 6
REMARK VINA RESULT:      -7.7      3.701      6.926
REMARK  3 active torsions:
REMARK  status: ('A' for Active; 'I' for Inactive)
REMARK    1  A    between atoms: C_5  and  N_6 
REMARK       I    between atoms: N_6  and  C_7 
REMARK    2  A    between atoms: C_7  and  C_8 
REMARK    3  A    between atoms: C_11  and  N_12 
ROOT
HETATM    1  C   UNL     1      42.149 -17.595   2.544  1.00  0.00     0.001 A 
HETATM    2  C   UNL     1      41.156 -16.732   2.080  1.00  0.00     0.008 A 
HETATM    3  C   UNL     1      41.347 -15.364   2.218  1.00  0.00    -0.043 A 
HETATM    4  C   UNL     1      42.498 -14.857   2.823  1.00  0.00    -0.028 A 
HETATM    5  C   UNL     1      42.502 -13.359   2.851  1.00  0.00     0.125 C 
HETATM    6  C   UNL     1      41.082 -12.996   2.335  1.00  0.00     0.049 C 
HETATM    7  C   UNL     1      40.414 -14.278   1.784  1.00  0.00     0.053 C 
HETATM    8  C   UNL     1      41.134 -12.037   1.156  1.00  0.00     0.239 C 
HETATM    9  N   UNL     1      41.207 -12.937  -0.037  1.00  0.00    -0.074 N 
HETATM   10  H   UNL     1      40.922 -12.448  -0.898  1.00  0.00     0.277 HD
HETATM   11  H   UNL     1      42.175 -13.256  -0.185  1.00  0.00     0.277 HD
HETATM   12  C   UNL     1      40.322 -14.104   0.271  1.00  0.00     0.242 C 
HETATM   13  C   UNL     1      43.498 -15.711   3.270  1.00  0.00     0.010 A 
HETATM   14  C   UNL     1      43.315 -17.088   3.133  1.00  0.00     0.001 A 
ENDROOT
BRANCH   5  15
HETATM   15  N   UNL     1      42.760 -12.824   4.168  1.00  0.00    -0.348 N 
HETATM   16  C   UNL     1      43.637 -11.768   4.318  1.00  0.00     0.252 C 
HETATM   17  O   UNL     1      44.096 -11.177   3.344  1.00  0.00    -0.268 OA
HETATM   18  H   UNL     1      42.560 -13.412   4.968  1.00  0.00     0.163 HD
BRANCH  16  19
HETATM   19  C   UNL     1      44.032 -11.388   5.704  1.00  0.00     0.032 A 
HETATM   20  C   UNL     1      43.101 -11.047   6.691  1.00  0.00     0.019 A 
HETATM   21  C   UNL     1      43.537 -10.726   7.983  1.00  0.00     0.024 A 
HETATM   22  C   UNL     1      44.898 -10.687   8.294  1.00  0.00     0.005 A 
HETATM   23  C   UNL     1      45.818 -11.066   7.316  1.00  0.00     0.024 A 
HETATM   24  C   UNL     1      45.395 -11.390   6.023  1.00  0.00     0.019 A 
BRANCH  22  25
HETATM   25  N   UNL     1      45.313 -10.504   9.616  1.00  0.00    -0.303 NA
HETATM   26  H   UNL     1      44.960 -11.197  10.269  1.00  0.00     0.124 HD
HETATM   27  H   UNL     1      45.197  -9.558   9.965  1.00  0.00     0.124 HD
ENDBRANCH  22  25
ENDBRANCH  16  19
ENDBRANCH   5  15
TORSDOF 3
ENDMDL
MODEL 7
REMARK VINA RESULT:      -7.3     14.128     15.930
REMARK  3 active torsions:
REMARK  status: ('A' for Active; 'I' for Inactive)
REMARK    1  A    between atoms: C_5  and  N_6 
REMARK       I    between atoms: N_6  and  C_7 
REMARK    2  A    between atoms: C_7  and  C_8 
REMARK    3  A    between atoms: C_11  and  N_12 
ROOT
HETATM    1  C   UNL     1      44.583 -28.843  -4.002  1.00  0.00     0.001 A 
HETATM    2  C   UNL     1      45.333 -28.042  -3.139  1.00  0.00     0.008 A 
HETATM    3  C   UNL     1      45.434 -28.417  -1.806  1.00  0.00    -0.043 A 
HETATM    4  C   UNL     1      44.788 -29.559  -1.329  1.00  0.00    -0.028 A 
HETATM    5  C   UNL     1      45.047 -29.780   0.130  1.00  0.00     0.125 C 
HETATM    6  C   UNL     1      45.809 -28.493   0.549  1.00  0.00     0.049 C 
HETATM    7  C   UNL     1      46.189 -27.706  -0.727  1.00  0.00     0.053 C 
HETATM    8  C   UNL     1      47.131 -28.812   1.229  1.00  0.00     0.239 C 
HETATM    9  N   UNL     1      48.110 -28.878   0.099  1.00  0.00    -0.074 N 
HETATM   10  H   UNL     1      49.078 -28.762   0.429  1.00  0.00     0.277 HD
HETATM   11  H   UNL     1      48.063 -29.799  -0.361  1.00  0.00     0.277 HD
HETATM   12  C   UNL     1      47.706 -27.804  -0.861  1.00  0.00     0.242 C 
HETATM   13  C   UNL     1      44.056 -30.368  -2.188  1.00  0.00     0.010 A 
HETATM   14  C   UNL     1      43.951 -30.000  -3.530  1.00  0.00     0.001 A 
ENDROOT
BRANCH   5  15
HETATM   15  N   UNL     1      43.833 -29.972   0.891  1.00  0.00    -0.348 N 
HETATM   16  C   UNL     1      43.836 -30.817   1.983  1.00  0.00     0.252 C 
HETATM   17  O   UNL     1      44.880 -31.303   2.410  1.00  0.00    -0.268 OA
HETATM   18  H   UNL     1      42.952 -29.752   0.444  1.00  0.00     0.163 HD
BRANCH  16  19
HETATM   19  C   UNL     1      42.523 -31.147   2.606  1.00  0.00     0.032 A 
HETATM   20  C   UNL     1      41.398 -31.505   1.857  1.00  0.00     0.019 A 
HETATM   21  C   UNL     1      40.199 -31.829   2.506  1.00  0.00     0.024 A 
HETATM   22  C   UNL     1      40.089 -31.749   3.896  1.00  0.00     0.005 A 
HETATM   23  C   UNL     1      41.227 -31.428   4.639  1.00  0.00     0.024 A 
HETATM   24  C   UNL     1      42.429 -31.104   4.002  1.00  0.00     0.019 A 
BRANCH  22  25
HETATM   25  N   UNL     1      38.937 -32.208   4.538  1.00  0.00    -0.303 NA
HETATM   26  H   UNL     1      38.114 -31.632   4.392  1.00  0.00     0.124 HD
HETATM   27  H   UNL     1      39.067 -32.444   5.517  1.00  0.00     0.124 HD
ENDBRANCH  22  25
ENDBRANCH  16  19
ENDBRANCH   5  15
TORSDOF 3
ENDMDL
MODEL 8
REMARK VINA RESULT:      -7.3      2.150      3.982
REMARK  3 active torsions:
REMARK  status: ('A' for Active; 'I' for Inactive)
REMARK    1  A    between atoms: C_5  and  N_6 
REMARK       I    between atoms: N_6  and  C_7 
REMARK    2  A    between atoms: C_7  and  C_8 
REMARK    3  A    between atoms: C_11  and  N_12 
ROOT
HETATM    1  C   UNL     1      39.960 -12.986   6.041  1.00  0.00     0.001 A 
HETATM    2  C   UNL     1      40.303 -14.338   6.020  1.00  0.00     0.008 A 
HETATM    3  C   UNL     1      40.711 -14.901   4.817  1.00  0.00    -0.043 A 
HETATM    4  C   UNL     1      40.762 -14.140   3.649  1.00  0.00    -0.028 A 
HETATM    5  C   UNL     1      41.243 -14.943   2.478  1.00  0.00     0.125 C 
HETATM    6  C   UNL     1      41.311 -16.386   3.050  1.00  0.00     0.049 C 
HETATM    7  C   UNL     1      41.123 -16.320   4.584  1.00  0.00     0.053 C 
HETATM    8  C   UNL     1      42.681 -17.014   2.843  1.00  0.00     0.239 C 
HETATM    9  N   UNL     1      43.445 -16.622   4.069  1.00  0.00    -0.074 N 
HETATM   10  H   UNL     1      44.259 -17.234   4.219  1.00  0.00     0.277 HD
HETATM   11  H   UNL     1      43.810 -15.664   3.970  1.00  0.00     0.277 HD
HETATM   12  C   UNL     1      42.470 -16.686   5.202  1.00  0.00     0.242 C 
HETATM   13  C   UNL     1      40.439 -12.789   3.669  1.00  0.00     0.010 A 
HETATM   14  C   UNL     1      40.031 -12.215   4.873  1.00  0.00     0.001 A 
ENDROOT
BRANCH   5  15
HETATM   15  N   UNL     1      40.365 -14.847   1.335  1.00  0.00    -0.348 N 
HETATM   16  C   UNL     1      40.596 -13.882   0.374  1.00  0.00     0.252 C 
HETATM   17  O   UNL     1      41.613 -13.193   0.394  1.00  0.00    -0.268 OA
HETATM   18  H   UNL     1      39.441 -15.253   1.408  1.00  0.00     0.163 HD
BRANCH  16  19
HETATM   19  C   UNL     1      39.553 -13.683  -0.671  1.00  0.00     0.032 A 
HETATM   20  C   UNL     1      39.357 -14.580  -1.726  1.00  0.00     0.019 A 
HETATM   21  C   UNL     1      38.340 -14.349  -2.662  1.00  0.00     0.024 A 
HETATM   22  C   UNL     1      37.547 -13.202  -2.593  1.00  0.00     0.005 A 
HETATM   23  C   UNL     1      37.723 -12.331  -1.516  1.00  0.00     0.024 A 
HETATM   24  C   UNL     1      38.733 -12.553  -0.575  1.00  0.00     0.019 A 
BRANCH  22  25
HETATM   25  N   UNL     1      36.449 -13.053  -3.445  1.00  0.00    -0.303 NA
HETATM   26  H   UNL     1      35.557 -13.308  -3.032  1.00  0.00     0.124 HD
HETATM   27  H   UNL     1      36.573 -13.462  -4.365  1.00  0.00     0.124 HD
ENDBRANCH  22  25
ENDBRANCH  16  19
ENDBRANCH   5  15
TORSDOF 3
ENDMDL
MODEL 9
REMARK VINA RESULT:      -7.3      2.464      6.697
REMARK  3 active torsions:
REMARK  status: ('A' for Active; 'I' for Inactive)
REMARK    1  A    between atoms: C_5  and  N_6 
REMARK       I    between atoms: N_6  and  C_7 
REMARK    2  A    between atoms: C_7  and  C_8 
REMARK    3  A    between atoms: C_11  and  N_12 
ROOT
HETATM    1  C   UNL     1      41.421 -11.562   4.949  1.00  0.00     0.001 A 
HETATM    2  C   UNL     1      41.630 -11.561   3.569  1.00  0.00     0.008 A 
HETATM    3  C   UNL     1      41.290 -12.697   2.846  1.00  0.00    -0.043 A 
HETATM    4  C   UNL     1      40.766 -13.824   3.481  1.00  0.00    -0.028 A 
HETATM    5  C   UNL     1      40.458 -14.922   2.509  1.00  0.00     0.125 C 
HETATM    6  C   UNL     1      41.043 -14.382   1.175  1.00  0.00     0.049 C 
HETATM    7  C   UNL     1      41.428 -12.896   1.369  1.00  0.00     0.053 C 
HETATM    8  C   UNL     1      40.010 -14.383   0.060  1.00  0.00     0.239 C 
HETATM    9  N   UNL     1      39.355 -13.042   0.174  1.00  0.00    -0.074 N 
HETATM   10  H   UNL     1      38.876 -12.779  -0.698  1.00  0.00     0.277 HD
HETATM   11  H   UNL     1      38.637 -13.058   0.912  1.00  0.00     0.277 HD
HETATM   12  C   UNL     1      40.443 -12.081   0.536  1.00  0.00     0.242 C 
HETATM   13  C   UNL     1      40.539 -13.822   4.851  1.00  0.00     0.010 A 
HETATM   14  C   UNL     1      40.876 -12.684   5.586  1.00  0.00     0.001 A 
ENDROOT
BRANCH   5  15
HETATM   15  N   UNL     1      41.039 -16.188   2.892  1.00  0.00    -0.348 N 
HETATM   16  C   UNL     1      42.413 -16.328   2.927  1.00  0.00     0.252 C 
HETATM   17  O   UNL     1      43.156 -15.362   2.777  1.00  0.00    -0.268 OA
HETATM   18  H   UNL     1      40.464 -17.018   2.817  1.00  0.00     0.163 HD
BRANCH  16  19
HETATM   19  C   UNL     1      42.963 -17.699   3.121  1.00  0.00     0.032 A 
HETATM   20  C   UNL     1      43.662 -18.079   4.272  1.00  0.00     0.019 A 
HETATM   21  C   UNL     1      44.131 -19.392   4.404  1.00  0.00     0.024 A 
HETATM   22  C   UNL     1      43.961 -20.324   3.378  1.00  0.00     0.005 A 
HETATM   23  C   UNL     1      43.229 -19.949   2.249  1.00  0.00     0.024 A 
HETATM   24  C   UNL     1      42.755 -18.641   2.107  1.00  0.00     0.019 A 
BRANCH  22  25
HETATM   25  N   UNL     1      44.306 -21.663   3.578  1.00  0.00    -0.303 NA
HETATM   26  H   UNL     1      43.593 -22.219   4.039  1.00  0.00     0.124 HD
HETATM   27  H   UNL     1      45.223 -21.803   3.990  1.00  0.00     0.124 HD
ENDBRANCH  22  25
ENDBRANCH  16  19
ENDBRANCH   5  15
TORSDOF 3
ENDMDL
MODEL 10
REMARK VINA RESULT:      -7.2      2.385      7.208
REMARK  3 active torsions:
REMARK  status: ('A' for Active; 'I' for Inactive)
REMARK    1  A    between atoms: C_5  and  N_6 
REMARK       I    between atoms: N_6  and  C_7 
REMARK    2  A    between atoms: C_7  and  C_8 
REMARK    3  A    between atoms: C_11  and  N_12 
ROOT
HETATM    1  C   UNL     1      37.971 -13.814  -2.962  1.00  0.00     0.001 A 
HETATM    2  C   UNL     1      37.575 -12.901  -1.983  1.00  0.00     0.008 A 
HETATM    3  C   UNL     1      38.435 -12.653  -0.921  1.00  0.00    -0.043 A 
HETATM    4  C   UNL     1      39.661 -13.311  -0.820  1.00  0.00    -0.028 A 
HETATM    5  C   UNL     1      40.430 -12.879   0.392  1.00  0.00     0.125 C 
HETATM    6  C   UNL     1      39.415 -11.979   1.147  1.00  0.00     0.049 C 
HETATM    7  C   UNL     1      38.204 -11.714   0.221  1.00  0.00     0.053 C 
HETATM    8  C   UNL     1      39.991 -10.605   1.451  1.00  0.00     0.239 C 
HETATM    9  N   UNL     1      39.634  -9.790   0.248  1.00  0.00    -0.074 N 
HETATM   10  H   UNL     1      39.669  -8.781   0.450  1.00  0.00     0.277 HD
HETATM   11  H   UNL     1      40.307  -9.963  -0.513  1.00  0.00     0.277 HD
HETATM   12  C   UNL     1      38.267 -10.239  -0.164  1.00  0.00     0.242 C 
HETATM   13  C   UNL     1      40.068 -14.206  -1.802  1.00  0.00     0.010 A 
HETATM   14  C   UNL     1      39.211 -14.459  -2.874  1.00  0.00     0.001 A 
ENDROOT
BRANCH   5  15
HETATM   15  N   UNL     1      40.880 -13.993   1.195  1.00  0.00    -0.348 N 
HETATM   16  C   UNL     1      42.055 -13.889   1.913  1.00  0.00     0.252 C 
HETATM   17  O   UNL     1      42.657 -12.821   1.999  1.00  0.00    -0.268 OA
HETATM   18  H   UNL     1      40.520 -14.914   0.976  1.00  0.00     0.163 HD
BRANCH  16  19
HETATM   19  C   UNL     1      42.586 -15.125   2.555  1.00  0.00     0.032 A 
HETATM   20  C   UNL     1      42.836 -15.218   3.928  1.00  0.00     0.019 A 
HETATM   21  C   UNL     1      43.310 -16.418   4.473  1.00  0.00     0.024 A 
HETATM   22  C   UNL     1      43.592 -17.516   3.657  1.00  0.00     0.005 A 
HETATM   23  C   UNL     1      43.305 -17.428   2.294  1.00  0.00     0.024 A 
HETATM   24  C   UNL     1      42.830 -16.236   1.739  1.00  0.00     0.019 A 
BRANCH  22  25
HETATM   25  N   UNL     1      43.929 -18.747   4.226  1.00  0.00    -0.303 NA
HETATM   26  H   UNL     1      44.917 -18.861   4.433  1.00  0.00     0.124 HD
HETATM   27  H   UNL     1      43.547 -19.553   3.740  1.00  0.00     0.124 HD
ENDBRANCH  22  25
ENDBRANCH  16  19
ENDBRANCH   5  15
TORSDOF 3
ENDMDL
