MODEL 1
REMARK VINA RESULT:      -8.1      0.000      0.000
REMARK  6 active torsions:
REMARK  status: ('A' for Active; 'I' for Inactive)
REMARK    1  A    between atoms: C_4  and  O_5 
REMARK    2  A    between atoms: O_5  and  C_6 
REMARK    3  A    between atoms: C_6  and  C_7 
REMARK    4  A    between atoms: C_11  and  C_12 
REMARK    5  A    between atoms: C_12  and  N_13 
REMARK       I    between atoms: N_13  and  C_14 
REMARK       I    between atoms: C_14  and  N_15 
REMARK    6  A    between atoms: N_15  and  C_16 
ROOT
HETATM    1  C   UNL     1      40.370 -16.100   2.808  1.00  0.00     0.165 C 
ENDROOT
BRANCH   1   2
HETATM    2  C   UNL     1      41.519 -16.169   3.785  1.00  0.00    -0.007 A 
HETATM    3  C   UNL     1      42.589 -17.061   3.601  1.00  0.00     0.077 A 
HETATM    4  C   UNL     1      43.629 -17.105   4.536  1.00  0.00     0.044 A 
HETATM    5  C   UNL     1      43.635 -16.244   5.643  1.00  0.00    -0.059 A 
HETATM    6  C   UNL     1      44.763 -16.275   6.633  1.00  0.00     0.048 C 
HETATM    7  C   UNL     1      42.596 -15.321   5.795  1.00  0.00     0.007 A 
HETATM    8  C   UNL     1      41.545 -15.288   4.877  1.00  0.00     0.012 A 
BRANCH   3   9
HETATM    9  O   UNL     1      42.516 -17.870   2.499  1.00  0.00    -0.342 OA
BRANCH   9  10
HETATM   10  C   UNL     1      43.648 -18.703   2.226  1.00  0.00     0.293 C 
BRANCH  10  11
HETATM   11  C   UNL     1      43.214 -20.156   2.101  1.00  0.00     0.408 C 
HETATM   12  F   UNL     1      41.898 -20.257   1.811  1.00  0.00    -0.169 F 
HETATM   13  F   UNL     1      43.894 -20.762   1.099  1.00  0.00    -0.169 F 
HETATM   14  F   UNL     1      43.454 -20.852   3.231  1.00  0.00    -0.169 F 
ENDBRANCH  10  11
ENDBRANCH   9  10
ENDBRANCH   3   9
ENDBRANCH   1   2
BRANCH   1  15
HETATM   15  N   UNL     1      40.825 -15.683   1.498  1.00  0.00    -0.339 N 
HETATM   16  C   UNL     1      40.376 -14.479   0.998  1.00  0.00     0.321 C 
HETATM   17  N   UNL     1      40.864 -14.271  -0.272  1.00  0.00    -0.307 N 
HETATM   18  O   UNL     1      39.658 -13.719   1.632  1.00  0.00    -0.247 OA
HETATM   19  H   UNL     1      41.715 -14.771  -0.480  1.00  0.00     0.170 HD
HETATM   20  H   UNL     1      40.879 -16.417   0.809  1.00  0.00     0.164 HD
BRANCH  17  21
HETATM   21  C   UNL     1      40.451 -13.263  -1.172  1.00  0.00     0.059 A 
HETATM   22  C   UNL     1      39.500 -13.560  -2.164  1.00  0.00    -0.032 A 
HETATM   23  C   UNL     1      38.943 -14.941  -2.362  1.00  0.00     0.050 C 
HETATM   24  C   UNL     1      39.064 -12.529  -3.008  1.00  0.00     0.028 A 
HETATM   25  C   UNL     1      39.582 -11.255  -2.842  1.00  0.00     0.117 A 
HETATM   26  N   UNL     1      40.494 -10.938  -1.906  1.00  0.00    -0.271 NA
HETATM   27  C   UNL     1      40.910 -11.947  -1.096  1.00  0.00     0.146 A 
ENDBRANCH  17  21
ENDBRANCH   1  15
TORSDOF 6
ENDMDL
MODEL 2
REMARK VINA RESULT:      -8.0      3.043      4.235
REMARK  6 active torsions:
REMARK  status: ('A' for Active; 'I' for Inactive)
REMARK    1  A    between atoms: C_4  and  O_5 
REMARK    2  A    between atoms: O_5  and  C_6 
REMARK    3  A    between atoms: C_6  and  C_7 
REMARK    4  A    between atoms: C_11  and  C_12 
REMARK    5  A    between atoms: C_12  and  N_13 
REMARK       I    between atoms: N_13  and  C_14 
REMARK       I    between atoms: C_14  and  N_15 
REMARK    6  A    between atoms: N_15  and  C_16 
ROOT
HETATM    1  C   UNL     1      43.010 -15.111   3.538  1.00  0.00     0.165 C 
ENDROOT
BRANCH   1   2
HETATM    2  C   UNL     1      43.263 -16.598   3.494  1.00  0.00    -0.007 A 
HETATM    3  C   UNL     1      43.879 -17.272   4.562  1.00  0.00     0.077 A 
HETATM    4  C   UNL     1      44.109 -18.650   4.478  1.00  0.00     0.044 A 
HETATM    5  C   UNL     1      43.703 -19.377   3.350  1.00  0.00    -0.059 A 
HETATM    6  C   UNL     1      43.929 -20.859   3.270  1.00  0.00     0.048 C 
HETATM    7  C   UNL     1      43.043 -18.714   2.312  1.00  0.00     0.007 A 
HETATM    8  C   UNL     1      42.830 -17.336   2.380  1.00  0.00     0.012 A 
BRANCH   3   9
HETATM    9  O   UNL     1      44.248 -16.499   5.629  1.00  0.00    -0.342 OA
BRANCH   9  10
HETATM   10  C   UNL     1      43.755 -16.886   6.916  1.00  0.00     0.293 C 
BRANCH  10  11
HETATM   11  C   UNL     1      42.835 -15.809   7.472  1.00  0.00     0.408 C 
HETATM   12  F   UNL     1      43.085 -15.566   8.777  1.00  0.00    -0.169 F 
HETATM   13  F   UNL     1      43.021 -14.645   6.803  1.00  0.00    -0.169 F 
HETATM   14  F   UNL     1      41.534 -16.144   7.345  1.00  0.00    -0.169 F 
ENDBRANCH  10  11
ENDBRANCH   9  10
ENDBRANCH   3   9
ENDBRANCH   1   2
BRANCH   1  15
HETATM   15  N   UNL     1      42.833 -14.574   2.205  1.00  0.00    -0.339 N 
HETATM   16  C   UNL     1      41.583 -14.123   1.838  1.00  0.00     0.321 C 
HETATM   17  N   UNL     1      41.588 -13.699   0.528  1.00  0.00    -0.307 N 
HETATM   18  O   UNL     1      40.630 -14.099   2.603  1.00  0.00    -0.247 OA
HETATM   19  H   UNL     1      42.493 -13.423   0.181  1.00  0.00     0.170 HD
HETATM   20  H   UNL     1      43.319 -15.072   1.474  1.00  0.00     0.164 HD
BRANCH  17  21
HETATM   21  C   UNL     1      40.454 -13.378  -0.251  1.00  0.00     0.059 A 
HETATM   22  C   UNL     1      40.059 -12.035  -0.390  1.00  0.00    -0.032 A 
HETATM   23  C   UNL     1      40.756 -10.910   0.321  1.00  0.00     0.050 C 
HETATM   24  C   UNL     1      38.964 -11.738  -1.214  1.00  0.00     0.028 A 
HETATM   25  C   UNL     1      38.306 -12.771  -1.863  1.00  0.00     0.117 A 
HETATM   26  N   UNL     1      38.657 -14.064  -1.750  1.00  0.00    -0.271 NA
HETATM   27  C   UNL     1      39.717 -14.339  -0.946  1.00  0.00     0.146 A 
ENDBRANCH  17  21
ENDBRANCH   1  15
TORSDOF 6
ENDMDL
MODEL 3
REMARK VINA RESULT:      -7.9      3.882      5.531
REMARK  6 active torsions:
REMARK  status: ('A' for Active; 'I' for Inactive)
REMARK    1  A    between atoms: C_4  and  O_5 
REMARK    2  A    between atoms: O_5  and  C_6 
REMARK    3  A    between atoms: C_6  and  C_7 
REMARK    4  A    between atoms: C_11  and  C_12 
REMARK    5  A    between atoms: C_12  and  N_13 
REMARK       I    between atoms: N_13  and  C_14 
REMARK       I    between atoms: C_14  and  N_15 
REMARK    6  A    between atoms: N_15  and  C_16 
ROOT
HETATM    1  C   UNL     1      43.135 -15.299   5.173  1.00  0.00     0.165 C 
ENDROOT
BRANCH   1   2
HETATM    2  C   UNL     1      43.260 -16.545   4.331  1.00  0.00    -0.007 A 
HETATM    3  C   UNL     1      42.823 -16.578   2.996  1.00  0.00     0.077 A 
HETATM    4  C   UNL     1      42.944 -17.757   2.251  1.00  0.00     0.044 A 
HETATM    5  C   UNL     1      43.527 -18.902   2.811  1.00  0.00    -0.059 A 
HETATM    6  C   UNL     1      43.679 -20.159   2.004  1.00  0.00     0.048 C 
HETATM    7  C   UNL     1      44.009 -18.851   4.122  1.00  0.00     0.007 A 
HETATM    8  C   UNL     1      43.872 -17.685   4.877  1.00  0.00     0.012 A 
BRANCH   3   9
HETATM    9  O   UNL     1      42.265 -15.424   2.516  1.00  0.00    -0.342 OA
BRANCH   9  10
HETATM   10  C   UNL     1      41.662 -15.482   1.218  1.00  0.00     0.293 C 
BRANCH  10  11
HETATM   11  C   UNL     1      40.149 -15.390   1.337  1.00  0.00     0.408 C 
HETATM   12  F   UNL     1      39.762 -15.180   2.615  1.00  0.00    -0.169 F 
HETATM   13  F   UNL     1      39.685 -14.352   0.601  1.00  0.00    -0.169 F 
HETATM   14  F   UNL     1      39.540 -16.507   0.889  1.00  0.00    -0.169 F 
ENDBRANCH  10  11
ENDBRANCH   9  10
ENDBRANCH   3   9
ENDBRANCH   1   2
BRANCH   1  15
HETATM   15  N   UNL     1      41.764 -14.834   5.212  1.00  0.00    -0.339 N 
HETATM   16  C   UNL     1      41.521 -13.488   5.033  1.00  0.00     0.321 C 
HETATM   17  N   UNL     1      40.177 -13.220   5.154  1.00  0.00    -0.307 N 
HETATM   18  O   UNL     1      42.402 -12.678   4.782  1.00  0.00    -0.247 OA
HETATM   19  H   UNL     1      39.575 -14.007   4.970  1.00  0.00     0.170 HD
HETATM   20  H   UNL     1      41.186 -15.262   5.919  1.00  0.00     0.164 HD
BRANCH  17  21
HETATM   21  C   UNL     1      39.584 -11.940   5.246  1.00  0.00     0.059 A 
HETATM   22  C   UNL     1      39.206 -11.260   4.075  1.00  0.00    -0.032 A 
HETATM   23  C   UNL     1      39.471 -11.807   2.701  1.00  0.00     0.050 C 
HETATM   24  C   UNL     1      38.569 -10.017   4.195  1.00  0.00     0.028 A 
HETATM   25  C   UNL     1      38.333  -9.497   5.458  1.00  0.00     0.117 A 
HETATM   26  N   UNL     1      38.683 -10.121   6.597  1.00  0.00    -0.271 NA
HETATM   27  C   UNL     1      39.303 -11.323   6.466  1.00  0.00     0.146 A 
ENDBRANCH  17  21
ENDBRANCH   1  15
TORSDOF 6
ENDMDL
MODEL 4
REMARK VINA RESULT:      -7.9      3.651      5.047
REMARK  6 active torsions:
REMARK  status: ('A' for Active; 'I' for Inactive)
REMARK    1  A    between atoms: C_4  and  O_5 
REMARK    2  A    between atoms: O_5  and  C_6 
REMARK    3  A    between atoms: C_6  and  C_7 
REMARK    4  A    between atoms: C_11  and  C_12 
REMARK    5  A    between atoms: C_12  and  N_13 
REMARK       I    between atoms: N_13  and  C_14 
REMARK       I    between atoms: C_14  and  N_15 
REMARK    6  A    between atoms: N_15  and  C_16 
ROOT
HETATM    1  C   UNL     1      42.762 -16.458   1.789  1.00  0.00     0.165 C 
ENDROOT
BRANCH   1   2
HETATM    2  C   UNL     1      43.219 -17.586   2.683  1.00  0.00    -0.007 A 
HETATM    3  C   UNL     1      43.598 -17.360   4.017  1.00  0.00     0.077 A 
HETATM    4  C   UNL     1      44.029 -18.430   4.810  1.00  0.00     0.044 A 
HETATM    5  C   UNL     1      44.058 -19.735   4.299  1.00  0.00    -0.059 A 
HETATM    6  C   UNL     1      44.498 -20.885   5.157  1.00  0.00     0.048 C 
HETATM    7  C   UNL     1      43.631 -19.964   2.988  1.00  0.00     0.007 A 
HETATM    8  C   UNL     1      43.220 -18.899   2.185  1.00  0.00     0.012 A 
BRANCH   3   9
HETATM    9  O   UNL     1      43.544 -16.062   4.447  1.00  0.00    -0.342 OA
BRANCH   9  10
HETATM   10  C   UNL     1      42.820 -15.805   5.656  1.00  0.00     0.293 C 
BRANCH  10  11
HETATM   11  C   UNL     1      43.750 -15.224   6.711  1.00  0.00     0.408 C 
HETATM   12  F   UNL     1      43.260 -15.405   7.958  1.00  0.00    -0.169 F 
HETATM   13  F   UNL     1      44.956 -15.838   6.660  1.00  0.00    -0.169 F 
HETATM   14  F   UNL     1      43.959 -13.904   6.526  1.00  0.00    -0.169 F 
ENDBRANCH  10  11
ENDBRANCH   9  10
ENDBRANCH   3   9
ENDBRANCH   1   2
BRANCH   1  15
HETATM   15  N   UNL     1      41.473 -15.951   2.210  1.00  0.00    -0.339 N 
HETATM   16  C   UNL     1      41.250 -14.592   2.153  1.00  0.00     0.321 C 
HETATM   17  N   UNL     1      39.999 -14.286   2.639  1.00  0.00    -0.307 N 
HETATM   18  O   UNL     1      42.067 -13.799   1.708  1.00  0.00    -0.247 OA
HETATM   19  H   UNL     1      39.336 -15.044   2.593  1.00  0.00     0.170 HD
HETATM   20  H   UNL     1      41.084 -16.395   3.029  1.00  0.00     0.164 HD
BRANCH  17  21
HETATM   21  C   UNL     1      39.509 -12.994   2.934  1.00  0.00     0.059 A 
HETATM   22  C   UNL     1      39.628 -12.483   4.239  1.00  0.00    -0.032 A 
HETATM   23  C   UNL     1      40.198 -13.285   5.373  1.00  0.00     0.050 C 
HETATM   24  C   UNL     1      39.185 -11.177   4.492  1.00  0.00     0.028 A 
HETATM   25  C   UNL     1      38.645 -10.433   3.455  1.00  0.00     0.117 A 
HETATM   26  N   UNL     1      38.515 -10.893   2.198  1.00  0.00    -0.271 NA
HETATM   27  C   UNL     1      38.944 -12.160   1.966  1.00  0.00     0.146 A 
ENDBRANCH  17  21
ENDBRANCH   1  15
TORSDOF 6
ENDMDL
MODEL 5
REMARK VINA RESULT:      -7.9      4.419      7.120
REMARK  6 active torsions:
REMARK  status: ('A' for Active; 'I' for Inactive)
REMARK    1  A    between atoms: C_4  and  O_5 
REMARK    2  A    between atoms: O_5  and  C_6 
REMARK    3  A    between atoms: C_6  and  C_7 
REMARK    4  A    between atoms: C_11  and  C_12 
REMARK    5  A    between atoms: C_12  and  N_13 
REMARK       I    between atoms: N_13  and  C_14 
REMARK       I    between atoms: C_14  and  N_15 
REMARK    6  A    between atoms: N_15  and  C_16 
ROOT
HETATM    1  C   UNL     1      42.676 -16.069   5.899  1.00  0.00     0.165 C 
ENDROOT
BRANCH   1   2
HETATM    2  C   UNL     1      42.985 -17.089   4.830  1.00  0.00    -0.007 A 
HETATM    3  C   UNL     1      42.581 -16.903   3.497  1.00  0.00     0.077 A 
HETATM    4  C   UNL     1      42.875 -17.878   2.536  1.00  0.00     0.044 A 
HETATM    5  C   UNL     1      43.598 -19.028   2.881  1.00  0.00    -0.059 A 
HETATM    6  C   UNL     1      43.933 -20.062   1.846  1.00  0.00     0.048 C 
HETATM    7  C   UNL     1      44.045 -19.185   4.196  1.00  0.00     0.007 A 
HETATM    8  C   UNL     1      43.736 -18.227   5.163  1.00  0.00     0.012 A 
BRANCH   3   9
HETATM    9  O   UNL     1      41.879 -15.758   3.234  1.00  0.00    -0.342 OA
BRANCH   9  10
HETATM   10  C   UNL     1      40.496 -15.903   2.895  1.00  0.00     0.293 C 
BRANCH  10  11
HETATM   11  C   UNL     1      40.256 -15.457   1.461  1.00  0.00     0.408 C 
HETATM   12  F   UNL     1      41.413 -15.364   0.769  1.00  0.00    -0.169 F 
HETATM   13  F   UNL     1      39.474 -16.355   0.817  1.00  0.00    -0.169 F 
HETATM   14  F   UNL     1      39.631 -14.262   1.403  1.00  0.00    -0.169 F 
ENDBRANCH  10  11
ENDBRANCH   9  10
ENDBRANCH   3   9
ENDBRANCH   1   2
BRANCH   1  15
HETATM   15  N   UNL     1      43.229 -14.775   5.559  1.00  0.00    -0.339 N 
HETATM   16  C   UNL     1      43.540 -13.903   6.580  1.00  0.00     0.321 C 
HETATM   17  N   UNL     1      44.000 -12.709   6.074  1.00  0.00    -0.307 N 
HETATM   18  O   UNL     1      43.427 -14.192   7.763  1.00  0.00    -0.247 OA
HETATM   19  H   UNL     1      44.392 -12.771   5.147  1.00  0.00     0.170 HD
HETATM   20  H   UNL     1      42.814 -14.330   4.754  1.00  0.00     0.164 HD
BRANCH  17  21
HETATM   21  C   UNL     1      44.209 -11.516   6.802  1.00  0.00     0.059 A 
HETATM   22  C   UNL     1      43.149 -10.608   6.973  1.00  0.00    -0.032 A 
HETATM   23  C   UNL     1      41.799 -10.814   6.348  1.00  0.00     0.050 C 
HETATM   24  C   UNL     1      43.366  -9.459   7.747  1.00  0.00     0.028 A 
HETATM   25  C   UNL     1      44.612  -9.253   8.317  1.00  0.00     0.117 A 
HETATM   26  N   UNL     1      45.647 -10.101   8.171  1.00  0.00    -0.271 NA
HETATM   27  C   UNL     1      45.425 -11.208   7.416  1.00  0.00     0.146 A 
ENDBRANCH  17  21
ENDBRANCH   1  15
TORSDOF 6
ENDMDL
MODEL 6
REMARK VINA RESULT:      -7.8      1.842      2.496
REMARK  6 active torsions:
REMARK  status: ('A' for Active; 'I' for Inactive)
REMARK    1  A    between atoms: C_4  and  O_5 
REMARK    2  A    between atoms: O_5  and  C_6 
REMARK    3  A    between atoms: C_6  and  C_7 
REMARK    4  A    between atoms: C_11  and  C_12 
REMARK    5  A    between atoms: C_12  and  N_13 
REMARK       I    between atoms: N_13  and  C_14 
REMARK       I    between atoms: C_14  and  N_15 
REMARK    6  A    between atoms: N_15  and  C_16 
ROOT
HETATM    1  C   UNL     1      40.136 -15.814   3.472  1.00  0.00     0.165 C 
ENDROOT
BRANCH   1   2
HETATM    2  C   UNL     1      41.095 -15.042   4.345  1.00  0.00    -0.007 A 
HETATM    3  C   UNL     1      42.198 -15.663   4.956  1.00  0.00     0.077 A 
HETATM    4  C   UNL     1      43.058 -14.916   5.770  1.00  0.00     0.044 A 
HETATM    5  C   UNL     1      42.851 -13.543   5.960  1.00  0.00    -0.059 A 
HETATM    6  C   UNL     1      43.787 -12.737   6.813  1.00  0.00     0.048 C 
HETATM    7  C   UNL     1      41.785 -12.917   5.309  1.00  0.00     0.007 A 
HETATM    8  C   UNL     1      40.911 -13.660   4.513  1.00  0.00     0.012 A 
BRANCH   3   9
HETATM    9  O   UNL     1      42.336 -17.005   4.726  1.00  0.00    -0.342 OA
BRANCH   9  10
HETATM   10  C   UNL     1      43.596 -17.452   4.212  1.00  0.00     0.293 C 
BRANCH  10  11
HETATM   11  C   UNL     1      43.465 -17.814   2.740  1.00  0.00     0.408 C 
HETATM   12  F   UNL     1      42.193 -18.141   2.420  1.00  0.00    -0.169 F 
HETATM   13  F   UNL     1      43.816 -16.759   1.967  1.00  0.00    -0.169 F 
HETATM   14  F   UNL     1      44.265 -18.847   2.403  1.00  0.00    -0.169 F 
ENDBRANCH  10  11
ENDBRANCH   9  10
ENDBRANCH   3   9
ENDBRANCH   1   2
BRANCH   1  15
HETATM   15  N   UNL     1      39.551 -14.959   2.460  1.00  0.00    -0.339 N 
HETATM   16  C   UNL     1      40.211 -14.816   1.259  1.00  0.00     0.321 C 
HETATM   17  N   UNL     1      39.543 -13.931   0.443  1.00  0.00    -0.307 N 
HETATM   18  O   UNL     1      41.237 -15.422   0.983  1.00  0.00    -0.247 OA
HETATM   19  H   UNL     1      38.561 -13.834   0.647  1.00  0.00     0.170 HD
HETATM   20  H   UNL     1      39.141 -14.105   2.806  1.00  0.00     0.164 HD
BRANCH  17  21
HETATM   21  C   UNL     1      40.027 -13.376  -0.763  1.00  0.00     0.059 A 
HETATM   22  C   UNL     1      40.758 -12.175  -0.736  1.00  0.00    -0.032 A 
HETATM   23  C   UNL     1      40.994 -11.400   0.529  1.00  0.00     0.050 C 
HETATM   24  C   UNL     1      41.275 -11.676  -1.940  1.00  0.00     0.028 A 
HETATM   25  C   UNL     1      41.052 -12.376  -3.115  1.00  0.00     0.117 A 
HETATM   26  N   UNL     1      40.356 -13.526  -3.175  1.00  0.00    -0.271 NA
HETATM   27  C   UNL     1      39.857 -13.997  -2.003  1.00  0.00     0.146 A 
ENDBRANCH  17  21
ENDBRANCH   1  15
TORSDOF 6
ENDMDL
MODEL 7
REMARK VINA RESULT:      -7.7      1.516      1.833
REMARK  6 active torsions:
REMARK  status: ('A' for Active; 'I' for Inactive)
REMARK    1  A    between atoms: C_4  and  O_5 
REMARK    2  A    between atoms: O_5  and  C_6 
REMARK    3  A    between atoms: C_6  and  C_7 
REMARK    4  A    between atoms: C_11  and  C_12 
REMARK    5  A    between atoms: C_12  and  N_13 
REMARK       I    between atoms: N_13  and  C_14 
REMARK       I    between atoms: C_14  and  N_15 
REMARK    6  A    between atoms: N_15  and  C_16 
ROOT
HETATM    1  C   UNL     1      42.506 -15.561   1.409  1.00  0.00     0.165 C 
ENDROOT
BRANCH   1   2
HETATM    2  C   UNL     1      42.759 -15.652   2.894  1.00  0.00    -0.007 A 
HETATM    3  C   UNL     1      43.091 -16.870   3.511  1.00  0.00     0.077 A 
HETATM    4  C   UNL     1      43.305 -16.917   4.893  1.00  0.00     0.044 A 
HETATM    5  C   UNL     1      43.222 -15.753   5.671  1.00  0.00    -0.059 A 
HETATM    6  C   UNL     1      43.475 -15.799   7.150  1.00  0.00     0.048 C 
HETATM    7  C   UNL     1      42.944 -14.534   5.047  1.00  0.00     0.007 A 
HETATM    8  C   UNL     1      42.708 -14.485   3.672  1.00  0.00     0.012 A 
BRANCH   3   9
HETATM    9  O   UNL     1      43.154 -17.964   2.690  1.00  0.00    -0.342 OA
BRANCH   9  10
HETATM   10  C   UNL     1      44.067 -19.003   3.057  1.00  0.00     0.293 C 
BRANCH  10  11
HETATM   11  C   UNL     1      43.631 -20.326   2.446  1.00  0.00     0.408 C 
HETATM   12  F   UNL     1      43.663 -21.327   3.354  1.00  0.00    -0.169 F 
HETATM   13  F   UNL     1      42.357 -20.235   1.995  1.00  0.00    -0.169 F 
HETATM   14  F   UNL     1      44.406 -20.679   1.400  1.00  0.00    -0.169 F 
ENDBRANCH  10  11
ENDBRANCH   9  10
ENDBRANCH   3   9
ENDBRANCH   1   2
BRANCH   1  15
HETATM   15  N   UNL     1      42.117 -14.220   1.028  1.00  0.00    -0.339 N 
HETATM   16  C   UNL     1      40.890 -14.036   0.426  1.00  0.00     0.321 C 
HETATM   17  N   UNL     1      40.712 -12.715   0.086  1.00  0.00    -0.307 N 
HETATM   18  O   UNL     1      40.089 -14.944   0.251  1.00  0.00    -0.247 OA
HETATM   19  H   UNL     1      41.259 -12.065   0.629  1.00  0.00     0.170 HD
HETATM   20  H   UNL     1      42.854 -13.655   0.634  1.00  0.00     0.164 HD
BRANCH  17  21
HETATM   21  C   UNL     1      39.683 -12.192  -0.731  1.00  0.00     0.059 A 
HETATM   22  C   UNL     1      39.905 -12.020  -2.108  1.00  0.00    -0.032 A 
HETATM   23  C   UNL     1      41.231 -12.303  -2.755  1.00  0.00     0.050 C 
HETATM   24  C   UNL     1      38.850 -11.554  -2.906  1.00  0.00     0.028 A 
HETATM   25  C   UNL     1      37.627 -11.277  -2.316  1.00  0.00     0.117 A 
HETATM   26  N   UNL     1      37.383 -11.429  -1.002  1.00  0.00    -0.271 NA
HETATM   27  C   UNL     1      38.414 -11.878  -0.240  1.00  0.00     0.146 A 
ENDBRANCH  17  21
ENDBRANCH   1  15
TORSDOF 6
ENDMDL
MODEL 8
REMARK VINA RESULT:      -7.7      2.738      3.739
REMARK  6 active torsions:
REMARK  status: ('A' for Active; 'I' for Inactive)
REMARK    1  A    between atoms: C_4  and  O_5 
REMARK    2  A    between atoms: O_5  and  C_6 
REMARK    3  A    between atoms: C_6  and  C_7 
REMARK    4  A    between atoms: C_11  and  C_12 
REMARK    5  A    between atoms: C_12  and  N_13 
REMARK       I    between atoms: N_13  and  C_14 
REMARK       I    between atoms: C_14  and  N_15 
REMARK    6  A    between atoms: N_15  and  C_16 
ROOT
HETATM    1  C   UNL     1      42.563 -15.121   2.615  1.00  0.00     0.165 C 
ENDROOT
BRANCH   1   2
HETATM    2  C   UNL     1      43.020 -16.456   3.150  1.00  0.00    -0.007 A 
HETATM    3  C   UNL     1      43.198 -16.675   4.527  1.00  0.00     0.077 A 
HETATM    4  C   UNL     1      43.637 -17.923   4.984  1.00  0.00     0.044 A 
HETATM    5  C   UNL     1      43.873 -18.973   4.086  1.00  0.00    -0.059 A 
HETATM    6  C   UNL     1      44.321 -20.318   4.578  1.00  0.00     0.048 C 
HETATM    7  C   UNL     1      43.644 -18.768   2.722  1.00  0.00     0.007 A 
HETATM    8  C   UNL     1      43.228 -17.520   2.258  1.00  0.00     0.012 A 
BRANCH   3   9
HETATM    9  O   UNL     1      42.949 -15.606   5.344  1.00  0.00    -0.342 OA
BRANCH   9  10
HETATM   10  C   UNL     1      41.996 -15.796   6.396  1.00  0.00     0.293 C 
BRANCH  10  11
HETATM   11  C   UNL     1      40.583 -15.601   5.867  1.00  0.00     0.408 C 
HETATM   12  F   UNL     1      40.199 -16.631   5.082  1.00  0.00    -0.169 F 
HETATM   13  F   UNL     1      39.705 -15.530   6.896  1.00  0.00    -0.169 F 
HETATM   14  F   UNL     1      40.465 -14.460   5.156  1.00  0.00    -0.169 F 
ENDBRANCH  10  11
ENDBRANCH   9  10
ENDBRANCH   3   9
ENDBRANCH   1   2
BRANCH   1  15
HETATM   15  N   UNL     1      41.497 -15.286   1.649  1.00  0.00    -0.339 N 
HETATM   16  C   UNL     1      41.108 -14.193   0.905  1.00  0.00     0.321 C 
HETATM   17  N   UNL     1      40.054 -14.518   0.082  1.00  0.00    -0.307 N 
HETATM   18  O   UNL     1      41.660 -13.104   0.979  1.00  0.00    -0.247 OA
HETATM   19  H   UNL     1      39.984 -15.498  -0.141  1.00  0.00     0.170 HD
HETATM   20  H   UNL     1      40.730 -15.868   1.951  1.00  0.00     0.164 HD
BRANCH  17  21
HETATM   21  C   UNL     1      39.259 -13.613  -0.658  1.00  0.00     0.059 A 
HETATM   22  C   UNL     1      38.688 -14.019  -1.876  1.00  0.00    -0.032 A 
HETATM   23  C   UNL     1      38.943 -15.372  -2.477  1.00  0.00     0.050 C 
HETATM   24  C   UNL     1      37.858 -13.121  -2.562  1.00  0.00     0.028 A 
HETATM   25  C   UNL     1      37.627 -11.866  -2.023  1.00  0.00     0.117 A 
HETATM   26  N   UNL     1      38.160 -11.446  -0.861  1.00  0.00    -0.271 NA
HETATM   27  C   UNL     1      38.965 -12.324  -0.208  1.00  0.00     0.146 A 
ENDBRANCH  17  21
ENDBRANCH   1  15
TORSDOF 6
ENDMDL
MODEL 9
REMARK VINA RESULT:      -7.6      4.789      7.501
REMARK  6 active torsions:
REMARK  status: ('A' for Active; 'I' for Inactive)
REMARK    1  A    between atoms: C_4  and  O_5 
REMARK    2  A    between atoms: O_5  and  C_6 
REMARK    3  A    between atoms: C_6  and  C_7 
REMARK    4  A    between atoms: C_11  and  C_12 
REMARK    5  A    between atoms: C_12  and  N_13 
REMARK       I    between atoms: N_13  and  C_14 
REMARK       I    between atoms: C_14  and  N_15 
REMARK    6  A    between atoms: N_15  and  C_16 
ROOT
HETATM    1  C   UNL     1      41.153 -14.009   5.344  1.00  0.00     0.165 C 
ENDROOT
BRANCH   1   2
HETATM    2  C   UNL     1      41.831 -15.188   4.688  1.00  0.00    -0.007 A 
HETATM    3  C   UNL     1      41.282 -15.818   3.558  1.00  0.00     0.077 A 
HETATM    4  C   UNL     1      41.933 -16.917   2.986  1.00  0.00     0.044 A 
HETATM    5  C   UNL     1      43.148 -17.381   3.509  1.00  0.00    -0.059 A 
HETATM    6  C   UNL     1      43.858 -18.545   2.881  1.00  0.00     0.048 C 
HETATM    7  C   UNL     1      43.719 -16.720   4.600  1.00  0.00     0.007 A 
HETATM    8  C   UNL     1      43.064 -15.637   5.188  1.00  0.00     0.012 A 
BRANCH   3   9
HETATM    9  O   UNL     1      40.094 -15.311   3.104  1.00  0.00    -0.342 OA
BRANCH   9  10
HETATM   10  C   UNL     1      40.161 -14.298   2.095  1.00  0.00     0.293 C 
BRANCH  10  11
HETATM   11  C   UNL     1      40.117 -14.929   0.712  1.00  0.00     0.408 C 
HETATM   12  F   UNL     1      39.443 -14.155  -0.167  1.00  0.00    -0.169 F 
HETATM   13  F   UNL     1      41.373 -15.086   0.229  1.00  0.00    -0.169 F 
HETATM   14  F   UNL     1      39.537 -16.148   0.733  1.00  0.00    -0.169 F 
ENDBRANCH  10  11
ENDBRANCH   9  10
ENDBRANCH   3   9
ENDBRANCH   1   2
BRANCH   1  15
HETATM   15  N   UNL     1      41.916 -13.537   6.480  1.00  0.00    -0.339 N 
HETATM   16  C   UNL     1      42.582 -12.334   6.371  1.00  0.00     0.321 C 
HETATM   17  N   UNL     1      43.294 -12.071   7.519  1.00  0.00    -0.307 N 
HETATM   18  O   UNL     1      42.511 -11.618   5.382  1.00  0.00    -0.247 OA
HETATM   19  H   UNL     1      42.946 -12.535   8.343  1.00  0.00     0.170 HD
HETATM   20  H   UNL     1      42.435 -14.248   6.973  1.00  0.00     0.164 HD
BRANCH  17  21
HETATM   21  C   UNL     1      44.257 -11.050   7.691  1.00  0.00     0.059 A 
HETATM   22  C   UNL     1      43.879  -9.823   8.263  1.00  0.00    -0.032 A 
HETATM   23  C   UNL     1      42.460  -9.511   8.643  1.00  0.00     0.050 C 
HETATM   24  C   UNL     1      44.865  -8.848   8.474  1.00  0.00     0.028 A 
HETATM   25  C   UNL     1      46.175  -9.121   8.114  1.00  0.00     0.117 A 
HETATM   26  N   UNL     1      46.568 -10.283   7.563  1.00  0.00    -0.271 NA
HETATM   27  C   UNL     1      45.603 -11.218   7.360  1.00  0.00     0.146 A 
ENDBRANCH  17  21
ENDBRANCH   1  15
TORSDOF 6
ENDMDL
MODEL 10
REMARK VINA RESULT:      -7.4      2.852      3.814
REMARK  6 active torsions:
REMARK  status: ('A' for Active; 'I' for Inactive)
REMARK    1  A    between atoms: C_4  and  O_5 
REMARK    2  A    between atoms: O_5  and  C_6 
REMARK    3  A    between atoms: C_6  and  C_7 
REMARK    4  A    between atoms: C_11  and  C_12 
REMARK    5  A    between atoms: C_12  and  N_13 
REMARK       I    between atoms: N_13  and  C_14 
REMARK       I    between atoms: C_14  and  N_15 
REMARK    6  A    between atoms: N_15  and  C_16 
ROOT
HETATM    1  C   UNL     1      40.451 -14.681   3.386  1.00  0.00     0.165 C 
ENDROOT
BRANCH   1   2
HETATM    2  C   UNL     1      41.459 -15.804   3.339  1.00  0.00    -0.007 A 
HETATM    3  C   UNL     1      42.304 -16.079   4.428  1.00  0.00     0.077 A 
HETATM    4  C   UNL     1      43.235 -17.120   4.342  1.00  0.00     0.044 A 
HETATM    5  C   UNL     1      43.316 -17.917   3.191  1.00  0.00    -0.059 A 
HETATM    6  C   UNL     1      44.299 -19.048   3.109  1.00  0.00     0.048 C 
HETATM    7  C   UNL     1      42.439 -17.674   2.131  1.00  0.00     0.007 A 
HETATM    8  C   UNL     1      41.522 -16.624   2.202  1.00  0.00     0.012 A 
BRANCH   3   9
HETATM    9  O   UNL     1      42.169 -15.262   5.517  1.00  0.00    -0.342 OA
BRANCH   9  10
HETATM   10  C   UNL     1      41.936 -15.892   6.781  1.00  0.00     0.293 C 
BRANCH  10  11
HETATM   11  C   UNL     1      43.227 -15.956   7.583  1.00  0.00     0.408 C 
HETATM   12  F   UNL     1      43.689 -17.223   7.681  1.00  0.00    -0.169 F 
HETATM   13  F   UNL     1      44.190 -15.223   6.976  1.00  0.00    -0.169 F 
HETATM   14  F   UNL     1      43.070 -15.466   8.830  1.00  0.00    -0.169 F 
ENDBRANCH  10  11
ENDBRANCH   9  10
ENDBRANCH   3   9
ENDBRANCH   1   2
BRANCH   1  15
HETATM   15  N   UNL     1      39.701 -14.604   2.149  1.00  0.00    -0.339 N 
HETATM   16  C   UNL     1      39.942 -13.547   1.299  1.00  0.00     0.321 C 
HETATM   17  N   UNL     1      39.107 -13.605   0.206  1.00  0.00    -0.307 N 
HETATM   18  O   UNL     1      40.801 -12.702   1.509  1.00  0.00    -0.247 OA
HETATM   19  H   UNL     1      38.759 -14.527  -0.005  1.00  0.00     0.170 HD
HETATM   20  H   UNL     1      38.727 -14.856   2.222  1.00  0.00     0.164 HD
BRANCH  17  21
HETATM   21  C   UNL     1      38.917 -12.589  -0.757  1.00  0.00     0.059 A 
HETATM   22  C   UNL     1      39.430 -12.753  -2.056  1.00  0.00    -0.032 A 
HETATM   23  C   UNL     1      40.246 -13.948  -2.458  1.00  0.00     0.050 C 
HETATM   24  C   UNL     1      39.179 -11.755  -3.009  1.00  0.00     0.028 A 
HETATM   25  C   UNL     1      38.438 -10.643  -2.645  1.00  0.00     0.117 A 
HETATM   26  N   UNL     1      37.936 -10.455  -1.411  1.00  0.00    -0.271 NA
HETATM   27  C   UNL     1      38.189 -11.426  -0.496  1.00  0.00     0.146 A 
ENDBRANCH  17  21
ENDBRANCH   1  15
TORSDOF 6
ENDMDL
