MODEL 1
REMARK VINA RESULT:      -7.7      0.000      0.000
REMARK  6 active torsions:
REMARK  status: ('A' for Active; 'I' for Inactive)
REMARK    1  A    between atoms: C_2  and  O_3 
REMARK    2  A    between atoms: O_3  and  C_4 
REMARK    3  A    between atoms: C_4  and  C_5 
REMARK    4  A    between atoms: C_6  and  O_7 
REMARK    5  A    between atoms: C_12  and  O_13 
REMARK    6  A    between atoms: C_17  and  C_18 
ROOT
HETATM    1  C   UNL     1      42.180 -15.539   5.761  1.00  0.00     0.133 C 
HETATM    2  C   UNL     1      40.657 -15.217   5.602  1.00  0.00     0.073 C 
HETATM    3  C   UNL     1      39.939 -15.071   6.953  1.00  0.00     0.047 C 
HETATM    4  C   UNL     1      40.364 -13.961   4.733  1.00  0.00     0.097 C 
HETATM    5  C   UNL     1      41.289 -13.909   3.574  1.00  0.00     0.042 A 
HETATM    6  C   UNL     1      42.485 -14.578   3.428  1.00  0.00     0.030 A 
HETATM    7  C   UNL     1      42.946 -14.143   2.176  1.00  0.00     0.190 A 
HETATM    8  N   UNL     1      42.135 -13.277   1.580  1.00  0.00    -0.149 NA
HETATM    9  N   UNL     1      41.114 -13.161   2.445  1.00  0.00    -0.279 N 
HETATM   10  H   UNL     1      40.342 -12.550   2.200  1.00  0.00     0.189 HD
HETATM   11  C   UNL     1      43.050 -15.482   4.470  1.00  0.00     0.074 C 
ENDROOT
BRANCH  11  12
HETATM   12  C   UNL     1      43.269 -16.843   3.816  1.00  0.00    -0.048 A 
HETATM   13  C   UNL     1      44.219 -17.718   4.378  1.00  0.00     0.009 A 
HETATM   14  C   UNL     1      44.454 -18.977   3.817  1.00  0.00     0.024 A 
HETATM   15  C   UNL     1      43.737 -19.380   2.695  1.00  0.00     0.034 A 
HETATM   16 CL   UNL     1      44.027 -20.929   2.006  1.00  0.00    -0.084 Cl
HETATM   17  C   UNL     1      42.786 -18.537   2.130  1.00  0.00     0.024 A 
HETATM   18  C   UNL     1      42.553 -17.277   2.688  1.00  0.00     0.009 A 
ENDBRANCH  11  12
BRANCH   1  19
HETATM   19  C   UNL     1      42.811 -14.652   6.816  1.00  0.00     0.267 C 
HETATM   20  O   UNL     1      43.135 -15.063   7.923  1.00  0.00    -0.265 OA
BRANCH  19  21
HETATM   21  O   UNL     1      42.941 -13.368   6.396  1.00  0.00    -0.321 OA
BRANCH  21  22
HETATM   22  C   UNL     1      44.190 -12.726   6.693  1.00  0.00     0.174 C 
HETATM   23  C   UNL     1      44.459 -11.608   5.701  1.00  0.00     0.034 C 
ENDBRANCH  21  22
ENDBRANCH  19  21
ENDBRANCH   1  19
BRANCH   2  24
HETATM   24  O   UNL     1      40.018 -16.339   4.956  1.00  0.00    -0.389 OA
HETATM   25  H   UNL     1      39.068 -16.144   4.864  1.00  0.00     0.210 HD
ENDBRANCH   2  24
BRANCH   7  26
HETATM   26  O   UNL     1      44.054 -14.476   1.512  1.00  0.00    -0.343 OA
HETATM   27  H   UNL     1      44.142 -15.440   1.498  1.00  0.00     0.219 HD
ENDBRANCH   7  26
TORSDOF 6
ENDMDL
MODEL 2
REMARK VINA RESULT:      -7.4      3.093      4.013
REMARK  6 active torsions:
REMARK  status: ('A' for Active; 'I' for Inactive)
REMARK    1  A    between atoms: C_2  and  O_3 
REMARK    2  A    between atoms: O_3  and  C_4 
REMARK    3  A    between atoms: C_4  and  C_5 
REMARK    4  A    between atoms: C_6  and  O_7 
REMARK    5  A    between atoms: C_12  and  O_13 
REMARK    6  A    between atoms: C_17  and  C_18 
ROOT
HETATM    1  C   UNL     1      41.174 -12.133   2.976  1.00  0.00     0.133 C 
HETATM    2  C   UNL     1      39.691 -11.994   3.455  1.00  0.00     0.073 C 
HETATM    3  C   UNL     1      39.543 -11.037   4.649  1.00  0.00     0.047 C 
HETATM    4  C   UNL     1      38.701 -11.566   2.335  1.00  0.00     0.097 C 
HETATM    5  C   UNL     1      39.039 -12.247   1.061  1.00  0.00     0.042 A 
HETATM    6  C   UNL     1      40.232 -12.849   0.726  1.00  0.00     0.030 A 
HETATM    7  C   UNL     1      40.010 -13.295  -0.586  1.00  0.00     0.190 A 
HETATM    8  N   UNL     1      38.802 -13.003  -1.052  1.00  0.00    -0.149 NA
HETATM    9  N   UNL     1      38.214 -12.376  -0.019  1.00  0.00    -0.279 N 
HETATM   10  H   UNL     1      37.255 -12.061  -0.129  1.00  0.00     0.189 HD
HETATM   11  C   UNL     1      41.412 -12.894   1.637  1.00  0.00     0.074 C 
ENDROOT
BRANCH  11  12
HETATM   12  C   UNL     1      41.784 -14.362   1.822  1.00  0.00    -0.048 A 
HETATM   13  C   UNL     1      43.134 -14.739   1.683  1.00  0.00     0.009 A 
HETATM   14  C   UNL     1      43.527 -16.071   1.846  1.00  0.00     0.024 A 
HETATM   15  C   UNL     1      42.578 -17.039   2.159  1.00  0.00     0.034 A 
HETATM   16 CL   UNL     1      43.061 -18.678   2.358  1.00  0.00    -0.084 Cl
HETATM   17  C   UNL     1      41.241 -16.688   2.311  1.00  0.00     0.024 A 
HETATM   18  C   UNL     1      40.847 -15.357   2.145  1.00  0.00     0.009 A 
ENDBRANCH  11  12
BRANCH   1  19
HETATM   19  C   UNL     1      41.843 -10.775   2.892  1.00  0.00     0.267 C 
HETATM   20  O   UNL     1      41.626  -9.982   1.986  1.00  0.00    -0.265 OA
BRANCH  19  21
HETATM   21  O   UNL     1      42.714 -10.569   3.913  1.00  0.00    -0.321 OA
BRANCH  21  22
HETATM   22  C   UNL     1      43.787 -11.516   4.034  1.00  0.00     0.174 C 
HETATM   23  C   UNL     1      43.828 -12.091   5.438  1.00  0.00     0.034 C 
ENDBRANCH  21  22
ENDBRANCH  19  21
ENDBRANCH   1  19
BRANCH   2  24
HETATM   24  O   UNL     1      39.248 -13.277   3.947  1.00  0.00    -0.389 OA
HETATM   25  H   UNL     1      38.755 -13.138   4.775  1.00  0.00     0.210 HD
ENDBRANCH   2  24
BRANCH   7  26
HETATM   26  O   UNL     1      40.820 -13.963  -1.409  1.00  0.00    -0.343 OA
HETATM   27  H   UNL     1      41.485 -14.438  -0.889  1.00  0.00     0.219 HD
ENDBRANCH   7  26
TORSDOF 6
ENDMDL
MODEL 3
REMARK VINA RESULT:      -7.2      2.338      3.298
REMARK  6 active torsions:
REMARK  status: ('A' for Active; 'I' for Inactive)
REMARK    1  A    between atoms: C_2  and  O_3 
REMARK    2  A    between atoms: O_3  and  C_4 
REMARK    3  A    between atoms: C_4  and  C_5 
REMARK    4  A    between atoms: C_6  and  O_7 
REMARK    5  A    between atoms: C_12  and  O_13 
REMARK    6  A    between atoms: C_17  and  C_18 
ROOT
HETATM    1  C   UNL     1      42.642 -12.713   4.932  1.00  0.00     0.133 C 
HETATM    2  C   UNL     1      41.300 -12.089   5.441  1.00  0.00     0.073 C 
HETATM    3  C   UNL     1      41.494 -10.699   6.068  1.00  0.00     0.047 C 
HETATM    4  C   UNL     1      40.190 -12.005   4.355  1.00  0.00     0.097 C 
HETATM    5  C   UNL     1      40.202 -13.224   3.510  1.00  0.00     0.042 A 
HETATM    6  C   UNL     1      41.227 -14.135   3.371  1.00  0.00     0.030 A 
HETATM    7  C   UNL     1      40.717 -15.053   2.441  1.00  0.00     0.190 A 
HETATM    8  N   UNL     1      39.494 -14.761   2.017  1.00  0.00    -0.149 NA
HETATM    9  N   UNL     1      39.187 -13.644   2.700  1.00  0.00    -0.279 N 
HETATM   10  H   UNL     1      38.274 -13.226   2.554  1.00  0.00     0.189 HD
HETATM   11  C   UNL     1      42.535 -14.011   4.077  1.00  0.00     0.074 C 
ENDROOT
BRANCH  11  12
HETATM   12  C   UNL     1      42.740 -15.292   4.878  1.00  0.00    -0.048 A 
HETATM   13  C   UNL     1      43.605 -16.278   4.366  1.00  0.00     0.009 A 
HETATM   14  C   UNL     1      43.828 -17.469   5.063  1.00  0.00     0.024 A 
HETATM   15  C   UNL     1      43.197 -17.686   6.284  1.00  0.00     0.034 A 
HETATM   16 CL   UNL     1      43.472 -19.151   7.141  1.00  0.00    -0.084 Cl
HETATM   17  C   UNL     1      42.346 -16.722   6.814  1.00  0.00     0.024 A 
HETATM   18  C   UNL     1      42.120 -15.532   6.116  1.00  0.00     0.009 A 
ENDBRANCH  11  12
BRANCH   1  19
HETATM   19  C   UNL     1      43.456 -11.688   4.167  1.00  0.00     0.267 C 
HETATM   20  O   UNL     1      43.229 -11.395   3.001  1.00  0.00    -0.265 OA
BRANCH  19  21
HETATM   21  O   UNL     1      44.463 -11.170   4.917  1.00  0.00    -0.321 OA
BRANCH  21  22
HETATM   22  C   UNL     1      44.896 -11.962   6.033  1.00  0.00     0.174 C 
HETATM   23  C   UNL     1      45.620 -11.094   7.047  1.00  0.00     0.034 C 
ENDBRANCH  21  22
ENDBRANCH  19  21
ENDBRANCH   1  19
BRANCH   2  24
HETATM   24  O   UNL     1      40.788 -12.914   6.509  1.00  0.00    -0.389 OA
HETATM   25  H   UNL     1      41.541 -13.324   6.972  1.00  0.00     0.210 HD
ENDBRANCH   2  24
BRANCH   7  26
HETATM   26  O   UNL     1      41.273 -16.158   1.940  1.00  0.00    -0.343 OA
HETATM   27  H   UNL     1      40.679 -16.909   2.084  1.00  0.00     0.219 HD
ENDBRANCH   7  26
TORSDOF 6
ENDMDL
MODEL 4
REMARK VINA RESULT:      -7.1      2.858      5.075
REMARK  6 active torsions:
REMARK  status: ('A' for Active; 'I' for Inactive)
REMARK    1  A    between atoms: C_2  and  O_3 
REMARK    2  A    between atoms: O_3  and  C_4 
REMARK    3  A    between atoms: C_4  and  C_5 
REMARK    4  A    between atoms: C_6  and  O_7 
REMARK    5  A    between atoms: C_12  and  O_13 
REMARK    6  A    between atoms: C_17  and  C_18 
ROOT
HETATM    1  C   UNL     1      40.861 -13.150   2.072  1.00  0.00     0.133 C 
HETATM    2  C   UNL     1      41.654 -11.894   2.565  1.00  0.00     0.073 C 
HETATM    3  C   UNL     1      41.738 -10.791   1.496  1.00  0.00     0.047 C 
HETATM    4  C   UNL     1      41.110 -11.280   3.886  1.00  0.00     0.097 C 
HETATM    5  C   UNL     1      40.707 -12.355   4.826  1.00  0.00     0.042 A 
HETATM    6  C   UNL     1      40.442 -13.673   4.524  1.00  0.00     0.030 A 
HETATM    7  C   UNL     1      40.083 -14.220   5.765  1.00  0.00     0.190 A 
HETATM    8  N   UNL     1      40.105 -13.344   6.762  1.00  0.00    -0.149 NA
HETATM    9  N   UNL     1      40.510 -12.209   6.168  1.00  0.00    -0.279 N 
HETATM   10  H   UNL     1      40.620 -11.378   6.742  1.00  0.00     0.189 HD
HETATM   11  C   UNL     1      40.517 -14.229   3.143  1.00  0.00     0.074 C 
ENDROOT
BRANCH  11  12
HETATM   12  C   UNL     1      41.500 -15.395   3.177  1.00  0.00    -0.048 A 
HETATM   13  C   UNL     1      42.573 -15.347   4.087  1.00  0.00     0.009 A 
HETATM   14  C   UNL     1      43.500 -16.392   4.159  1.00  0.00     0.024 A 
HETATM   15  C   UNL     1      43.360 -17.500   3.330  1.00  0.00     0.034 A 
HETATM   16 CL   UNL     1      44.499 -18.785   3.418  1.00  0.00    -0.084 Cl
HETATM   17  C   UNL     1      42.301 -17.574   2.430  1.00  0.00     0.024 A 
HETATM   18  C   UNL     1      41.377 -16.528   2.355  1.00  0.00     0.009 A 
ENDBRANCH  11  12
BRANCH   1  19
HETATM   19  C   UNL     1      39.585 -12.738   1.365  1.00  0.00     0.267 C 
HETATM   20  O   UNL     1      38.611 -12.292   1.958  1.00  0.00    -0.265 OA
BRANCH  19  21
HETATM   21  O   UNL     1      39.650 -12.948   0.025  1.00  0.00    -0.321 OA
BRANCH  21  22
HETATM   22  C   UNL     1      39.860 -14.305  -0.394  1.00  0.00     0.174 C 
HETATM   23  C   UNL     1      39.244 -14.537  -1.762  1.00  0.00     0.034 C 
ENDBRANCH  21  22
ENDBRANCH  19  21
ENDBRANCH   1  19
BRANCH   2  24
HETATM   24  O   UNL     1      43.022 -12.285   2.809  1.00  0.00    -0.389 OA
HETATM   25  H   UNL     1      43.597 -11.514   2.655  1.00  0.00     0.210 HD
ENDBRANCH   2  24
BRANCH   7  26
HETATM   26  O   UNL     1      39.738 -15.470   6.079  1.00  0.00    -0.343 OA
HETATM   27  H   UNL     1      40.515 -15.943   6.412  1.00  0.00     0.219 HD
ENDBRANCH   7  26
TORSDOF 6
ENDMDL
MODEL 5
REMARK VINA RESULT:      -7.1      3.092      5.738
REMARK  6 active torsions:
REMARK  status: ('A' for Active; 'I' for Inactive)
REMARK    1  A    between atoms: C_2  and  O_3 
REMARK    2  A    between atoms: O_3  and  C_4 
REMARK    3  A    between atoms: C_4  and  C_5 
REMARK    4  A    between atoms: C_6  and  O_7 
REMARK    5  A    between atoms: C_12  and  O_13 
REMARK    6  A    between atoms: C_17  and  C_18 
ROOT
HETATM    1  C   UNL     1      43.046 -15.210   4.068  1.00  0.00     0.133 C 
HETATM    2  C   UNL     1      42.705 -14.823   2.591  1.00  0.00     0.073 C 
HETATM    3  C   UNL     1      43.228 -15.851   1.574  1.00  0.00     0.047 C 
HETATM    4  C   UNL     1      41.190 -14.581   2.333  1.00  0.00     0.097 C 
HETATM    5  C   UNL     1      40.582 -13.862   3.479  1.00  0.00     0.042 A 
HETATM    6  C   UNL     1      41.086 -13.746   4.756  1.00  0.00     0.030 A 
HETATM    7  C   UNL     1      40.102 -13.000   5.423  1.00  0.00     0.190 A 
HETATM    8  N   UNL     1      39.066 -12.676   4.658  1.00  0.00    -0.149 NA
HETATM    9  N   UNL     1      39.389 -13.198   3.463  1.00  0.00    -0.279 N 
HETATM   10  H   UNL     1      38.744 -13.066   2.690  1.00  0.00     0.189 HD
HETATM   11  C   UNL     1      42.370 -14.366   5.190  1.00  0.00     0.074 C 
ENDROOT
BRANCH  11  12
HETATM   12  C   UNL     1      43.253 -13.246   5.731  1.00  0.00    -0.048 A 
HETATM   13  C   UNL     1      43.548 -13.223   7.108  1.00  0.00     0.009 A 
HETATM   14  C   UNL     1      44.354 -12.219   7.652  1.00  0.00     0.024 A 
HETATM   15  C   UNL     1      44.883 -11.232   6.827  1.00  0.00     0.034 A 
HETATM   16 CL   UNL     1      45.875  -9.997   7.497  1.00  0.00    -0.084 Cl
HETATM   17  C   UNL     1      44.614 -11.240   5.462  1.00  0.00     0.024 A 
HETATM   18  C   UNL     1      43.805 -12.241   4.918  1.00  0.00     0.009 A 
ENDBRANCH  11  12
BRANCH   1  19
HETATM   19  C   UNL     1      42.760 -16.677   4.320  1.00  0.00     0.267 C 
HETATM   20  O   UNL     1      41.629 -17.143   4.324  1.00  0.00    -0.265 OA
BRANCH  19  21
HETATM   21  O   UNL     1      43.893 -17.386   4.563  1.00  0.00    -0.321 OA
BRANCH  21  22
HETATM   22  C   UNL     1      44.010 -18.647   3.886  1.00  0.00     0.174 C 
HETATM   23  C   UNL     1      44.227 -19.766   4.888  1.00  0.00     0.034 C 
ENDBRANCH  21  22
ENDBRANCH  19  21
ENDBRANCH   1  19
BRANCH   2  24
HETATM   24  O   UNL     1      43.392 -13.595   2.270  1.00  0.00    -0.389 OA
HETATM   25  H   UNL     1      43.308 -13.434   1.313  1.00  0.00     0.210 HD
ENDBRANCH   2  24
BRANCH   7  26
HETATM   26  O   UNL     1      40.065 -12.574   6.687  1.00  0.00    -0.343 OA
HETATM   27  H   UNL     1      39.800 -13.304   7.265  1.00  0.00     0.219 HD
ENDBRANCH   7  26
TORSDOF 6
ENDMDL
MODEL 6
REMARK VINA RESULT:      -7.0      2.471      4.407
REMARK  6 active torsions:
REMARK  status: ('A' for Active; 'I' for Inactive)
REMARK    1  A    between atoms: C_2  and  O_3 
REMARK    2  A    between atoms: O_3  and  C_4 
REMARK    3  A    between atoms: C_4  and  C_5 
REMARK    4  A    between atoms: C_6  and  O_7 
REMARK    5  A    between atoms: C_12  and  O_13 
REMARK    6  A    between atoms: C_17  and  C_18 
ROOT
HETATM    1  C   UNL     1      41.552 -13.804   3.415  1.00  0.00     0.133 C 
HETATM    2  C   UNL     1      42.661 -12.706   3.517  1.00  0.00     0.073 C 
HETATM    3  C   UNL     1      42.377 -11.492   2.616  1.00  0.00     0.047 C 
HETATM    4  C   UNL     1      42.931 -12.210   4.966  1.00  0.00     0.097 C 
HETATM    5  C   UNL     1      42.883 -13.348   5.917  1.00  0.00     0.042 A 
HETATM    6  C   UNL     1      42.311 -14.585   5.712  1.00  0.00     0.030 A 
HETATM    7  C   UNL     1      42.526 -15.244   6.932  1.00  0.00     0.190 A 
HETATM    8  N   UNL     1      43.164 -14.506   7.833  1.00  0.00    -0.149 NA
HETATM    9  N   UNL     1      43.391 -13.352   7.184  1.00  0.00    -0.279 N 
HETATM   10  H   UNL     1      43.889 -12.615   7.672  1.00  0.00     0.189 HD
HETATM   11  C   UNL     1      41.618 -14.968   4.449  1.00  0.00     0.074 C 
ENDROOT
BRANCH  11  12
HETATM   12  C   UNL     1      42.306 -16.222   3.918  1.00  0.00    -0.048 A 
HETATM   13  C   UNL     1      41.763 -16.864   2.788  1.00  0.00     0.009 A 
HETATM   14  C   UNL     1      42.358 -18.015   2.262  1.00  0.00     0.024 A 
HETATM   15  C   UNL     1      43.507 -18.532   2.852  1.00  0.00     0.034 A 
HETATM   16 CL   UNL     1      44.238 -19.947   2.205  1.00  0.00    -0.084 Cl
HETATM   17  C   UNL     1      44.067 -17.909   3.963  1.00  0.00     0.024 A 
HETATM   18  C   UNL     1      43.470 -16.760   4.492  1.00  0.00     0.009 A 
ENDBRANCH  11  12
BRANCH   1  19
HETATM   19  C   UNL     1      40.171 -13.181   3.468  1.00  0.00     0.267 C 
HETATM   20  O   UNL     1      39.796 -12.472   4.392  1.00  0.00    -0.265 OA
BRANCH  19  21
HETATM   21  O   UNL     1      39.411 -13.525   2.396  1.00  0.00    -0.321 OA
BRANCH  21  22
HETATM   22  C   UNL     1      40.081 -13.554   1.126  1.00  0.00     0.174 C 
HETATM   23  C   UNL     1      39.893 -14.905   0.460  1.00  0.00     0.034 C 
ENDBRANCH  21  22
ENDBRANCH  19  21
ENDBRANCH   1  19
BRANCH   2  24
HETATM   24  O   UNL     1      43.899 -13.259   3.020  1.00  0.00    -0.389 OA
HETATM   25  H   UNL     1      43.723 -14.154   2.680  1.00  0.00     0.210 HD
ENDBRANCH   2  24
BRANCH   7  26
HETATM   26  O   UNL     1      42.196 -16.483   7.302  1.00  0.00    -0.343 OA
HETATM   27  H   UNL     1      41.391 -16.753   6.837  1.00  0.00     0.219 HD
ENDBRANCH   7  26
TORSDOF 6
ENDMDL
MODEL 7
REMARK VINA RESULT:      -6.9      2.356      3.443
REMARK  6 active torsions:
REMARK  status: ('A' for Active; 'I' for Inactive)
REMARK    1  A    between atoms: C_2  and  O_3 
REMARK    2  A    between atoms: O_3  and  C_4 
REMARK    3  A    between atoms: C_4  and  C_5 
REMARK    4  A    between atoms: C_6  and  O_7 
REMARK    5  A    between atoms: C_12  and  O_13 
REMARK    6  A    between atoms: C_17  and  C_18 
ROOT
HETATM    1  C   UNL     1      42.590 -13.019   4.925  1.00  0.00     0.133 C 
HETATM    2  C   UNL     1      41.264 -12.435   5.516  1.00  0.00     0.073 C 
HETATM    3  C   UNL     1      41.467 -11.064   6.183  1.00  0.00     0.047 C 
HETATM    4  C   UNL     1      40.103 -12.331   4.487  1.00  0.00     0.097 C 
HETATM    5  C   UNL     1      40.094 -13.521   3.600  1.00  0.00     0.042 A 
HETATM    6  C   UNL     1      41.125 -14.409   3.382  1.00  0.00     0.030 A 
HETATM    7  C   UNL     1      40.586 -15.303   2.445  1.00  0.00     0.190 A 
HETATM    8  N   UNL     1      39.339 -15.017   2.088  1.00  0.00    -0.149 NA
HETATM    9  N   UNL     1      39.049 -13.930   2.823  1.00  0.00    -0.279 N 
HETATM   10  H   UNL     1      38.124 -13.522   2.734  1.00  0.00     0.189 HD
HETATM   11  C   UNL     1      42.462 -14.288   4.030  1.00  0.00     0.074 C 
ENDROOT
BRANCH  11  12
HETATM   12  C   UNL     1      42.723 -15.593   4.775  1.00  0.00    -0.048 A 
HETATM   13  C   UNL     1      43.607 -16.530   4.208  1.00  0.00     0.009 A 
HETATM   14  C   UNL     1      43.881 -17.740   4.852  1.00  0.00     0.024 A 
HETATM   15  C   UNL     1      43.284 -18.024   6.076  1.00  0.00     0.034 A 
HETATM   16 CL   UNL     1      43.621 -19.512   6.869  1.00  0.00    -0.084 Cl
HETATM   17  C   UNL     1      42.415 -17.108   6.661  1.00  0.00     0.024 A 
HETATM   18  C   UNL     1      42.138 -15.900   6.015  1.00  0.00     0.009 A 
ENDBRANCH  11  12
BRANCH   1  19
HETATM   19  C   UNL     1      43.353 -11.955   4.159  1.00  0.00     0.267 C 
HETATM   20  O   UNL     1      44.143 -11.190   4.695  1.00  0.00    -0.265 OA
BRANCH  19  21
HETATM   21  O   UNL     1      43.032 -11.943   2.840  1.00  0.00    -0.321 OA
BRANCH  21  22
HETATM   22  C   UNL     1      42.309 -10.795   2.372  1.00  0.00     0.174 C 
HETATM   23  C   UNL     1      41.459 -11.160   1.169  1.00  0.00     0.034 C 
ENDBRANCH  21  22
ENDBRANCH  19  21
ENDBRANCH   1  19
BRANCH   2  24
HETATM   24  O   UNL     1      40.815 -13.305   6.577  1.00  0.00    -0.389 OA
HETATM   25  H   UNL     1      41.440 -14.048   6.654  1.00  0.00     0.210 HD
ENDBRANCH   2  24
BRANCH   7  26
HETATM   26  O   UNL     1      41.133 -16.381   1.881  1.00  0.00    -0.343 OA
HETATM   27  H   UNL     1      41.992 -16.557   2.292  1.00  0.00     0.219 HD
ENDBRANCH   7  26
TORSDOF 6
ENDMDL
MODEL 8
REMARK VINA RESULT:      -6.8      3.349      5.267
REMARK  6 active torsions:
REMARK  status: ('A' for Active; 'I' for Inactive)
REMARK    1  A    between atoms: C_2  and  O_3 
REMARK    2  A    between atoms: O_3  and  C_4 
REMARK    3  A    between atoms: C_4  and  C_5 
REMARK    4  A    between atoms: C_6  and  O_7 
REMARK    5  A    between atoms: C_12  and  O_13 
REMARK    6  A    between atoms: C_17  and  C_18 
ROOT
HETATM    1  C   UNL     1      41.695 -15.288   4.091  1.00  0.00     0.133 C 
HETATM    2  C   UNL     1      41.119 -15.101   5.534  1.00  0.00     0.073 C 
HETATM    3  C   UNL     1      40.858 -16.440   6.244  1.00  0.00     0.047 C 
HETATM    4  C   UNL     1      41.994 -14.202   6.453  1.00  0.00     0.097 C 
HETATM    5  C   UNL     1      42.537 -13.054   5.685  1.00  0.00     0.042 A 
HETATM    6  C   UNL     1      42.640 -12.939   4.315  1.00  0.00     0.030 A 
HETATM    7  C   UNL     1      43.244 -11.685   4.143  1.00  0.00     0.190 A 
HETATM    8  N   UNL     1      43.510 -11.058   5.284  1.00  0.00    -0.149 NA
HETATM    9  N   UNL     1      43.050 -11.908   6.218  1.00  0.00    -0.279 N 
HETATM   10  H   UNL     1      43.129 -11.639   7.194  1.00  0.00     0.189 HD
HETATM   11  C   UNL     1      42.211 -14.008   3.368  1.00  0.00     0.074 C 
ENDROOT
BRANCH  11  12
HETATM   12  C   UNL     1      41.191 -13.387   2.418  1.00  0.00    -0.048 A 
HETATM   13  C   UNL     1      41.330 -13.613   1.036  1.00  0.00     0.009 A 
HETATM   14  C   UNL     1      40.421 -13.068   0.124  1.00  0.00     0.024 A 
HETATM   15  C   UNL     1      39.357 -12.298   0.584  1.00  0.00     0.034 A 
HETATM   16 CL   UNL     1      38.239 -11.628  -0.537  1.00  0.00    -0.084 Cl
HETATM   17  C   UNL     1      39.194 -12.070   1.946  1.00  0.00     0.024 A 
HETATM   18  C   UNL     1      40.105 -12.611   2.858  1.00  0.00     0.009 A 
ENDBRANCH  11  12
BRANCH   1  19
HETATM   19  C   UNL     1      42.795 -16.332   4.081  1.00  0.00     0.267 C 
HETATM   20  O   UNL     1      43.849 -16.192   4.685  1.00  0.00    -0.265 OA
BRANCH  19  21
HETATM   21  O   UNL     1      42.477 -17.404   3.311  1.00  0.00    -0.321 OA
BRANCH  21  22
HETATM   22  C   UNL     1      43.569 -18.046   2.635  1.00  0.00     0.174 C 
HETATM   23  C   UNL     1      43.200 -19.473   2.271  1.00  0.00     0.034 C 
ENDBRANCH  21  22
ENDBRANCH  19  21
ENDBRANCH   1  19
BRANCH   2  24
HETATM   24  O   UNL     1      39.824 -14.472   5.431  1.00  0.00    -0.389 OA
HETATM   25  H   UNL     1      39.907 -13.544   5.711  1.00  0.00     0.210 HD
ENDBRANCH   2  24
BRANCH   7  26
HETATM   26  O   UNL     1      43.573 -11.043   3.021  1.00  0.00    -0.343 OA
HETATM   27  H   UNL     1      43.002 -11.345   2.299  1.00  0.00     0.219 HD
ENDBRANCH   7  26
TORSDOF 6
ENDMDL
MODEL 9
REMARK VINA RESULT:      -6.7      8.693     10.640
REMARK  6 active torsions:
REMARK  status: ('A' for Active; 'I' for Inactive)
REMARK    1  A    between atoms: C_2  and  O_3 
REMARK    2  A    between atoms: O_3  and  C_4 
REMARK    3  A    between atoms: C_4  and  C_5 
REMARK    4  A    between atoms: C_6  and  O_7 
REMARK    5  A    between atoms: C_12  and  O_13 
REMARK    6  A    between atoms: C_17  and  C_18 
ROOT
HETATM    1  C   UNL     1      41.981  -7.625  12.645  1.00  0.00     0.133 C 
HETATM    2  C   UNL     1      41.599  -8.822  13.578  1.00  0.00     0.073 C 
HETATM    3  C   UNL     1      41.658  -8.452  15.069  1.00  0.00     0.047 C 
HETATM    4  C   UNL     1      40.212  -9.450  13.265  1.00  0.00     0.097 C 
HETATM    5  C   UNL     1      39.994  -9.515  11.799  1.00  0.00     0.042 A 
HETATM    6  C   UNL     1      40.659  -8.805  10.823  1.00  0.00     0.030 A 
HETATM    7  C   UNL     1      40.037  -9.228   9.638  1.00  0.00     0.190 A 
HETATM    8  N   UNL     1      39.066 -10.113   9.831  1.00  0.00    -0.149 NA
HETATM    9  N   UNL     1      39.068 -10.290  11.163  1.00  0.00    -0.279 N 
HETATM   10  H   UNL     1      38.406 -10.948  11.562  1.00  0.00     0.189 HD
HETATM   11  C   UNL     1      41.736  -7.817  11.118  1.00  0.00     0.074 C 
ENDROOT
BRANCH  11  12
HETATM   12  C   UNL     1      42.976  -8.256  10.347  1.00  0.00    -0.048 A 
HETATM   13  C   UNL     1      43.459  -7.428   9.315  1.00  0.00     0.009 A 
HETATM   14  C   UNL     1      44.594  -7.785   8.581  1.00  0.00     0.024 A 
HETATM   15  C   UNL     1      45.265  -8.968   8.875  1.00  0.00     0.034 A 
HETATM   16 CL   UNL     1      46.661  -9.406   7.971  1.00  0.00    -0.084 Cl
HETATM   17  C   UNL     1      44.813  -9.796   9.897  1.00  0.00     0.024 A 
HETATM   18  C   UNL     1      43.676  -9.441  10.629  1.00  0.00     0.009 A 
ENDBRANCH  11  12
BRANCH   1  19
HETATM   19  C   UNL     1      41.294  -6.351  13.095  1.00  0.00     0.267 C 
HETATM   20  O   UNL     1      40.079  -6.208  13.073  1.00  0.00    -0.265 OA
BRANCH  19  21
HETATM   21  O   UNL     1      42.181  -5.402  13.490  1.00  0.00    -0.321 OA
BRANCH  21  22
HETATM   22  C   UNL     1      42.047  -4.112  12.872  1.00  0.00     0.174 C 
HETATM   23  C   UNL     1      42.536  -4.161  11.436  1.00  0.00     0.034 C 
ENDBRANCH  21  22
ENDBRANCH  19  21
ENDBRANCH   1  19
BRANCH   2  24
HETATM   24  O   UNL     1      42.585  -9.864  13.411  1.00  0.00    -0.389 OA
HETATM   25  H   UNL     1      43.358  -9.488  12.953  1.00  0.00     0.210 HD
ENDBRANCH   2  24
BRANCH   7  26
HETATM   26  O   UNL     1      40.285  -8.881   8.374  1.00  0.00    -0.343 OA
HETATM   27  H   UNL     1      39.694  -9.373   7.785  1.00  0.00     0.219 HD
ENDBRANCH   7  26
TORSDOF 6
ENDMDL
MODEL 10
REMARK VINA RESULT:      -6.6      3.105      5.241
REMARK  6 active torsions:
REMARK  status: ('A' for Active; 'I' for Inactive)
REMARK    1  A    between atoms: C_2  and  O_3 
REMARK    2  A    between atoms: O_3  and  C_4 
REMARK    3  A    between atoms: C_4  and  C_5 
REMARK    4  A    between atoms: C_6  and  O_7 
REMARK    5  A    between atoms: C_12  and  O_13 
REMARK    6  A    between atoms: C_17  and  C_18 
ROOT
HETATM    1  C   UNL     1      40.758 -12.882   1.994  1.00  0.00     0.133 C 
HETATM    2  C   UNL     1      41.528 -11.567   2.347  1.00  0.00     0.073 C 
HETATM    3  C   UNL     1      41.623 -10.598   1.157  1.00  0.00     0.047 C 
HETATM    4  C   UNL     1      40.953 -10.807   3.576  1.00  0.00     0.097 C 
HETATM    5  C   UNL     1      40.541 -11.767   4.629  1.00  0.00     0.042 A 
HETATM    6  C   UNL     1      40.296 -13.115   4.482  1.00  0.00     0.030 A 
HETATM    7  C   UNL     1      39.917 -13.515   5.773  1.00  0.00     0.190 A 
HETATM    8  N   UNL     1      39.912 -12.526   6.659  1.00  0.00    -0.149 NA
HETATM    9  N   UNL     1      40.316 -11.464   5.941  1.00  0.00    -0.279 N 
HETATM   10  H   UNL     1      40.406 -10.570   6.413  1.00  0.00     0.189 HD
HETATM   11  C   UNL     1      40.404 -13.830   3.179  1.00  0.00     0.074 C 
ENDROOT
BRANCH  11  12
HETATM   12  C   UNL     1      41.397 -14.971   3.370  1.00  0.00    -0.048 A 
HETATM   13  C   UNL     1      41.236 -16.143   2.607  1.00  0.00     0.009 A 
HETATM   14  C   UNL     1      42.121 -17.217   2.744  1.00  0.00     0.024 A 
HETATM   15  C   UNL     1      43.184 -17.128   3.637  1.00  0.00     0.034 A 
HETATM   16 CL   UNL     1      44.273 -18.448   3.805  1.00  0.00    -0.084 Cl
HETATM   17  C   UNL     1      43.370 -15.976   4.395  1.00  0.00     0.024 A 
HETATM   18  C   UNL     1      42.482 -14.904   4.261  1.00  0.00     0.009 A 
ENDBRANCH  11  12
BRANCH   1  19
HETATM   19  C   UNL     1      39.492 -12.573   1.219  1.00  0.00     0.267 C 
HETATM   20  O   UNL     1      39.417 -12.673   0.002  1.00  0.00    -0.265 OA
BRANCH  19  21
HETATM   21  O   UNL     1      38.485 -12.154   2.028  1.00  0.00    -0.321 OA
BRANCH  21  22
HETATM   22  C   UNL     1      37.530 -11.257   1.440  1.00  0.00     0.174 C 
HETATM   23  C   UNL     1      37.864  -9.821   1.802  1.00  0.00     0.034 C 
ENDBRANCH  21  22
ENDBRANCH  19  21
ENDBRANCH   1  19
BRANCH   2  24
HETATM   24  O   UNL     1      42.895 -11.909   2.662  1.00  0.00    -0.389 OA
HETATM   25  H   UNL     1      42.980 -11.989   3.628  1.00  0.00     0.210 HD
ENDBRANCH   2  24
BRANCH   7  26
HETATM   26  O   UNL     1      39.579 -14.723   6.227  1.00  0.00    -0.343 OA
HETATM   27  H   UNL     1      39.618 -14.725   7.195  1.00  0.00     0.219 HD
ENDBRANCH   7  26
TORSDOF 6
ENDMDL
