MODEL 1
REMARK VINA RESULT:      -9.0      0.000      0.000
REMARK  5 active torsions:
REMARK  status: ('A' for Active; 'I' for Inactive)
REMARK    1  A    between atoms: C_9  and  C_10 
REMARK       I    between atoms: C_10  and  N_11 
REMARK    2  A    between atoms: N_11  and  C_12 
REMARK    3  A    between atoms: C_12  and  C_13 
REMARK    4  A    between atoms: C_16  and  O_17 
REMARK    5  A    between atoms: O_17  and  C_18 
ROOT
HETATM    1  C   UNL     1      43.235 -15.566   4.628  1.00  0.00     0.273 C 
HETATM    2  N   UNL     1      43.203 -14.527   5.531  1.00  0.00    -0.351 N 
HETATM    3  O   UNL     1      43.112 -15.406   3.418  1.00  0.00    -0.266 OA
HETATM    4  H   UNL     1      43.228 -14.796   6.512  1.00  0.00     0.163 HD
ENDROOT
BRANCH   2   5
HETATM    5  C   UNL     1      42.886 -13.185   5.126  1.00  0.00     0.163 C 
BRANCH   5   6
HETATM    6  C   UNL     1      43.206 -12.196   6.204  1.00  0.00    -0.023 A 
HETATM    7  C   UNL     1      44.333 -12.349   7.006  1.00  0.00     0.128 A 
HETATM    8  N   UNL     1      44.695 -11.486   7.983  1.00  0.00    -0.236 NA
HETATM    9  C   UNL     1      43.898 -10.414   8.170  1.00  0.00     0.164 A 
HETATM   10  C   UNL     1      42.758 -10.167   7.423  1.00  0.00     0.059 A 
HETATM   11  C   UNL     1      42.414 -11.067   6.419  1.00  0.00     0.014 A 
BRANCH   9  12
HETATM   12  O   UNL     1      44.190  -9.496   9.157  1.00  0.00    -0.329 OA
BRANCH  12  13
HETATM   13  C   UNL     1      43.248  -9.452  10.223  1.00  0.00     0.130 C 
HETATM   14  C   UNL     1      43.567 -10.577  11.206  1.00  0.00     0.032 C 
HETATM   15  C   UNL     1      42.842 -10.146  12.468  1.00  0.00     0.002 C 
HETATM   16  C   UNL     1      43.027  -8.634  12.516  1.00  0.00     0.002 C 
HETATM   17  C   UNL     1      43.387  -8.200  11.093  1.00  0.00     0.032 C 
ENDBRANCH  12  13
ENDBRANCH   9  12
ENDBRANCH   5   6
ENDBRANCH   2   5
BRANCH   1  18
HETATM   18  C   UNL     1      43.410 -16.881   5.266  1.00  0.00     0.157 A 
HETATM   19  C   UNL     1      43.566 -18.143   4.619  1.00  0.00     0.029 A 
HETATM   20  C   UNL     1      43.621 -18.602   3.287  1.00  0.00     0.023 A 
HETATM   21  C   UNL     1      43.678 -19.067   5.650  1.00  0.00     0.063 A 
HETATM   22  C   UNL     1      43.790 -19.974   3.034  1.00  0.00    -0.061 A 
HETATM   23  C   UNL     1      43.849 -20.486   1.624  1.00  0.00     0.048 C 
HETATM   24  C   UNL     1      43.896 -20.871   4.105  1.00  0.00     0.009 A 
HETATM   25  C   UNL     1      43.843 -20.437   5.435  1.00  0.00     0.032 A 
HETATM   26  N   UNL     1      43.589 -18.335   6.801  1.00  0.00    -0.277 N 
HETATM   27  H   UNL     1      43.631 -18.682   7.753  1.00  0.00     0.189 HD
HETATM   28  N   UNL     1      43.423 -17.014   6.611  1.00  0.00    -0.168 NA
ENDBRANCH   1  18
TORSDOF 5
ENDMDL
MODEL 2
REMARK VINA RESULT:      -8.9      4.791      8.022
REMARK  5 active torsions:
REMARK  status: ('A' for Active; 'I' for Inactive)
REMARK    1  A    between atoms: C_9  and  C_10 
REMARK       I    between atoms: C_10  and  N_11 
REMARK    2  A    between atoms: N_11  and  C_12 
REMARK    3  A    between atoms: C_12  and  C_13 
REMARK    4  A    between atoms: C_16  and  O_17 
REMARK    5  A    between atoms: O_17  and  C_18 
ROOT
HETATM    1  C   UNL     1      42.730 -15.828   5.429  1.00  0.00     0.273 C 
HETATM    2  N   UNL     1      41.373 -15.628   5.311  1.00  0.00    -0.351 N 
HETATM    3  O   UNL     1      43.559 -14.954   5.195  1.00  0.00    -0.266 OA
HETATM    4  H   UNL     1      40.793 -16.452   5.447  1.00  0.00     0.163 HD
ENDROOT
BRANCH   2   5
HETATM    5  C   UNL     1      40.835 -14.410   4.770  1.00  0.00     0.163 C 
BRANCH   5   6
HETATM    6  C   UNL     1      40.709 -14.480   3.280  1.00  0.00    -0.023 A 
HETATM    7  C   UNL     1      41.180 -13.451   2.470  1.00  0.00     0.128 A 
HETATM    8  N   UNL     1      41.119 -13.456   1.119  1.00  0.00    -0.236 NA
HETATM    9  C   UNL     1      40.563 -14.541   0.542  1.00  0.00     0.164 A 
HETATM   10  C   UNL     1      40.068 -15.621   1.255  1.00  0.00     0.059 A 
HETATM   11  C   UNL     1      40.152 -15.592   2.644  1.00  0.00     0.014 A 
BRANCH   9  12
HETATM   12  O   UNL     1      40.448 -14.615  -0.831  1.00  0.00    -0.329 OA
BRANCH  12  13
HETATM   13  C   UNL     1      39.114 -14.530  -1.320  1.00  0.00     0.130 C 
HETATM   14  C   UNL     1      38.771 -13.060  -1.553  1.00  0.00     0.032 C 
HETATM   15  C   UNL     1      37.572 -13.131  -2.481  1.00  0.00     0.002 C 
HETATM   16  C   UNL     1      37.884 -14.292  -3.419  1.00  0.00     0.002 C 
HETATM   17  C   UNL     1      38.949 -15.136  -2.716  1.00  0.00     0.032 C 
ENDBRANCH  12  13
ENDBRANCH   9  12
ENDBRANCH   5   6
ENDBRANCH   2   5
BRANCH   1  18
HETATM   18  C   UNL     1      43.079 -17.197   5.842  1.00  0.00     0.157 A 
HETATM   19  C   UNL     1      43.359 -18.312   4.997  1.00  0.00     0.029 A 
HETATM   20  C   UNL     1      43.422 -18.543   3.607  1.00  0.00     0.023 A 
HETATM   21  C   UNL     1      43.615 -19.367   5.863  1.00  0.00     0.063 A 
HETATM   22  C   UNL     1      43.741 -19.827   3.133  1.00  0.00    -0.061 A 
HETATM   23  C   UNL     1      43.809 -20.097   1.658  1.00  0.00     0.048 C 
HETATM   24  C   UNL     1      43.988 -20.863   4.042  1.00  0.00     0.009 A 
HETATM   25  C   UNL     1      43.931 -20.656   5.426  1.00  0.00     0.032 A 
HETATM   26  N   UNL     1      43.480 -18.843   7.119  1.00  0.00    -0.277 N 
HETATM   27  H   UNL     1      43.596 -19.330   8.000  1.00  0.00     0.189 HD
HETATM   28  N   UNL     1      43.155 -17.539   7.147  1.00  0.00    -0.168 NA
ENDBRANCH   1  18
TORSDOF 5
ENDMDL
MODEL 3
REMARK VINA RESULT:      -8.8      2.118      2.944
REMARK  5 active torsions:
REMARK  status: ('A' for Active; 'I' for Inactive)
REMARK    1  A    between atoms: C_9  and  C_10 
REMARK       I    between atoms: C_10  and  N_11 
REMARK    2  A    between atoms: N_11  and  C_12 
REMARK    3  A    between atoms: C_12  and  C_13 
REMARK    4  A    between atoms: C_16  and  O_17 
REMARK    5  A    between atoms: O_17  and  C_18 
ROOT
HETATM    1  C   UNL     1      42.403 -13.505   3.294  1.00  0.00     0.273 C 
HETATM    2  N   UNL     1      43.425 -12.586   3.226  1.00  0.00    -0.351 N 
HETATM    3  O   UNL     1      41.274 -13.222   3.683  1.00  0.00    -0.266 OA
HETATM    4  H   UNL     1      44.336 -12.960   2.970  1.00  0.00     0.163 HD
ENDROOT
BRANCH   2   5
HETATM    5  C   UNL     1      43.276 -11.252   3.739  1.00  0.00     0.163 C 
BRANCH   5   6
HETATM    6  C   UNL     1      43.660 -11.174   5.185  1.00  0.00    -0.023 A 
HETATM    7  C   UNL     1      42.743 -10.769   6.150  1.00  0.00     0.128 A 
HETATM    8  N   UNL     1      43.013 -10.696   7.473  1.00  0.00    -0.236 NA
HETATM    9  C   UNL     1      44.257 -11.046   7.858  1.00  0.00     0.164 A 
HETATM   10  C   UNL     1      45.241 -11.468   6.980  1.00  0.00     0.059 A 
HETATM   11  C   UNL     1      44.933 -11.542   5.625  1.00  0.00     0.014 A 
BRANCH   9  12
HETATM   12  O   UNL     1      44.616 -10.983   9.189  1.00  0.00    -0.329 OA
BRANCH  12  13
HETATM   13  C   UNL     1      43.691 -10.289  10.020  1.00  0.00     0.130 C 
HETATM   14  C   UNL     1      43.678 -10.951  11.396  1.00  0.00     0.032 C 
HETATM   15  C   UNL     1      43.061  -9.886  12.283  1.00  0.00     0.002 C 
HETATM   16  C   UNL     1      43.636  -8.574  11.761  1.00  0.00     0.002 C 
HETATM   17  C   UNL     1      44.133  -8.859  10.343  1.00  0.00     0.032 C 
ENDBRANCH  12  13
ENDBRANCH   9  12
ENDBRANCH   5   6
ENDBRANCH   2   5
BRANCH   1  18
HETATM   18  C   UNL     1      42.809 -14.855   2.873  1.00  0.00     0.157 A 
HETATM   19  C   UNL     1      43.099 -15.973   3.710  1.00  0.00     0.029 A 
HETATM   20  C   UNL     1      43.110 -16.228   5.097  1.00  0.00     0.023 A 
HETATM   21  C   UNL     1      43.444 -16.998   2.839  1.00  0.00     0.063 A 
HETATM   22  C   UNL     1      43.465 -17.505   5.563  1.00  0.00    -0.061 A 
HETATM   23  C   UNL     1      43.488 -17.798   7.035  1.00  0.00     0.048 C 
HETATM   24  C   UNL     1      43.810 -18.508   4.648  1.00  0.00     0.009 A 
HETATM   25  C   UNL     1      43.806 -18.277   3.268  1.00  0.00     0.032 A 
HETATM   26  N   UNL     1      43.342 -16.456   1.587  1.00  0.00    -0.277 N 
HETATM   27  H   UNL     1      43.521 -16.920   0.703  1.00  0.00     0.189 HD
HETATM   28  N   UNL     1      42.965 -15.166   1.567  1.00  0.00    -0.168 NA
ENDBRANCH   1  18
TORSDOF 5
ENDMDL
MODEL 4
REMARK VINA RESULT:      -8.7      1.874     10.161
REMARK  5 active torsions:
REMARK  status: ('A' for Active; 'I' for Inactive)
REMARK    1  A    between atoms: C_9  and  C_10 
REMARK       I    between atoms: C_10  and  N_11 
REMARK    2  A    between atoms: N_11  and  C_12 
REMARK    3  A    between atoms: C_12  and  C_13 
REMARK    4  A    between atoms: C_16  and  O_17 
REMARK    5  A    between atoms: O_17  and  C_18 
ROOT
HETATM    1  C   UNL     1      44.447 -10.313   9.219  1.00  0.00     0.273 C 
HETATM    2  N   UNL     1      43.829 -11.157   8.324  1.00  0.00    -0.351 N 
HETATM    3  O   UNL     1      45.391  -9.591   8.916  1.00  0.00    -0.266 OA
HETATM    4  H   UNL     1      43.116 -11.768   8.716  1.00  0.00     0.163 HD
ENDROOT
BRANCH   2   5
HETATM    5  C   UNL     1      44.339 -11.350   6.994  1.00  0.00     0.163 C 
BRANCH   5   6
HETATM    6  C   UNL     1      43.764 -12.579   6.360  1.00  0.00    -0.023 A 
HETATM    7  C   UNL     1      43.220 -12.538   5.080  1.00  0.00     0.128 A 
HETATM    8  N   UNL     1      42.703 -13.610   4.437  1.00  0.00    -0.236 NA
HETATM    9  C   UNL     1      42.731 -14.785   5.100  1.00  0.00     0.164 A 
HETATM   10  C   UNL     1      43.255 -14.934   6.373  1.00  0.00     0.059 A 
HETATM   11  C   UNL     1      43.788 -13.816   7.007  1.00  0.00     0.014 A 
BRANCH   9  12
HETATM   12  O   UNL     1      42.209 -15.922   4.519  1.00  0.00    -0.329 OA
BRANCH  12  13
HETATM   13  C   UNL     1      43.129 -16.655   3.719  1.00  0.00     0.130 C 
HETATM   14  C   UNL     1      43.638 -17.848   4.526  1.00  0.00     0.032 C 
HETATM   15  C   UNL     1      44.199 -18.770   3.460  1.00  0.00     0.002 C 
HETATM   16  C   UNL     1      43.228 -18.637   2.292  1.00  0.00     0.002 C 
HETATM   17  C   UNL     1      42.469 -17.328   2.512  1.00  0.00     0.032 C 
ENDBRANCH  12  13
ENDBRANCH   9  12
ENDBRANCH   5   6
ENDBRANCH   2   5
BRANCH   1  18
HETATM   18  C   UNL     1      43.874 -10.385  10.573  1.00  0.00     0.157 A 
HETATM   19  C   UNL     1      43.316  -9.316  11.335  1.00  0.00     0.029 A 
HETATM   20  C   UNL     1      43.099  -7.936  11.142  1.00  0.00     0.023 A 
HETATM   21  C   UNL     1      42.931  -9.892  12.538  1.00  0.00     0.063 A 
HETATM   22  C   UNL     1      42.500  -7.180  12.163  1.00  0.00    -0.061 A 
HETATM   23  C   UNL     1      42.262  -5.709  11.982  1.00  0.00     0.048 C 
HETATM   24  C   UNL     1      42.130  -7.801  13.363  1.00  0.00     0.009 A 
HETATM   25  C   UNL     1      42.337  -9.169  13.577  1.00  0.00     0.032 A 
HETATM   26  N   UNL     1      43.265 -11.213  12.429  1.00  0.00    -0.277 N 
HETATM   27  H   UNL     1      43.128 -11.939  13.123  1.00  0.00     0.189 HD
HETATM   28  N   UNL     1      43.838 -11.548  11.260  1.00  0.00    -0.168 NA
ENDBRANCH   1  18
TORSDOF 5
ENDMDL
MODEL 5
REMARK VINA RESULT:      -8.7      1.652      2.667
REMARK  5 active torsions:
REMARK  status: ('A' for Active; 'I' for Inactive)
REMARK    1  A    between atoms: C_9  and  C_10 
REMARK       I    between atoms: C_10  and  N_11 
REMARK    2  A    between atoms: N_11  and  C_12 
REMARK    3  A    between atoms: C_12  and  C_13 
REMARK    4  A    between atoms: C_16  and  O_17 
REMARK    5  A    between atoms: O_17  and  C_18 
ROOT
HETATM    1  C   UNL     1      43.621 -13.546   6.184  1.00  0.00     0.273 C 
HETATM    2  N   UNL     1      44.544 -12.753   6.827  1.00  0.00    -0.351 N 
HETATM    3  O   UNL     1      42.957 -13.160   5.226  1.00  0.00    -0.266 OA
HETATM    4  H   UNL     1      44.967 -13.157   7.659  1.00  0.00     0.163 HD
ENDROOT
BRANCH   2   5
HETATM    5  C   UNL     1      44.699 -11.362   6.503  1.00  0.00     0.163 C 
BRANCH   5   6
HETATM    6  C   UNL     1      44.426 -10.489   7.690  1.00  0.00    -0.023 A 
HETATM    7  C   UNL     1      43.230  -9.787   7.804  1.00  0.00     0.128 A 
HETATM    8  N   UNL     1      42.907  -8.999   8.855  1.00  0.00    -0.236 NA
HETATM    9  C   UNL     1      43.819  -8.905   9.844  1.00  0.00     0.164 A 
HETATM   10  C   UNL     1      45.036  -9.567   9.831  1.00  0.00     0.059 A 
HETATM   11  C   UNL     1      45.338 -10.378   8.741  1.00  0.00     0.014 A 
BRANCH   9  12
HETATM   12  O   UNL     1      43.572  -8.108  10.943  1.00  0.00    -0.329 OA
BRANCH  12  13
HETATM   13  C   UNL     1      43.206  -8.819  12.121  1.00  0.00     0.130 C 
HETATM   14  C   UNL     1      43.079  -7.824  13.273  1.00  0.00     0.032 C 
HETATM   15  C   UNL     1      42.256  -8.586  14.295  1.00  0.00     0.002 C 
HETATM   16  C   UNL     1      41.238  -9.360  13.465  1.00  0.00     0.002 C 
HETATM   17  C   UNL     1      41.801  -9.421  12.044  1.00  0.00     0.032 C 
ENDBRANCH  12  13
ENDBRANCH   9  12
ENDBRANCH   5   6
ENDBRANCH   2   5
BRANCH   1  18
HETATM   18  C   UNL     1      43.500 -14.889   6.774  1.00  0.00     0.157 A 
HETATM   19  C   UNL     1      43.590 -16.143   6.100  1.00  0.00     0.029 A 
HETATM   20  C   UNL     1      43.812 -16.570   4.775  1.00  0.00     0.023 A 
HETATM   21  C   UNL     1      43.395 -17.100   7.087  1.00  0.00     0.063 A 
HETATM   22  C   UNL     1      43.832 -17.945   4.485  1.00  0.00    -0.061 A 
HETATM   23  C   UNL     1      44.063 -18.423   3.080  1.00  0.00     0.048 C 
HETATM   24  C   UNL     1      43.627 -18.876   5.511  1.00  0.00     0.009 A 
HETATM   25  C   UNL     1      43.404 -18.474   6.834  1.00  0.00     0.032 A 
HETATM   26  N   UNL     1      43.209 -16.393   8.243  1.00  0.00    -0.277 N 
HETATM   27  H   UNL     1      43.038 -16.767   9.169  1.00  0.00     0.189 HD
HETATM   28  N   UNL     1      43.262 -15.057   8.094  1.00  0.00    -0.168 NA
ENDBRANCH   1  18
TORSDOF 5
ENDMDL
MODEL 6
REMARK VINA RESULT:      -8.5      2.383      3.491
REMARK  5 active torsions:
REMARK  status: ('A' for Active; 'I' for Inactive)
REMARK    1  A    between atoms: C_9  and  C_10 
REMARK       I    between atoms: C_10  and  N_11 
REMARK    2  A    between atoms: N_11  and  C_12 
REMARK    3  A    between atoms: C_12  and  C_13 
REMARK    4  A    between atoms: C_16  and  O_17 
REMARK    5  A    between atoms: O_17  and  C_18 
ROOT
HETATM    1  C   UNL     1      43.401 -13.495   6.203  1.00  0.00     0.273 C 
HETATM    2  N   UNL     1      44.004 -12.286   5.935  1.00  0.00    -0.351 N 
HETATM    3  O   UNL     1      43.699 -14.192   7.167  1.00  0.00    -0.266 OA
HETATM    4  H   UNL     1      43.733 -11.843   5.060  1.00  0.00     0.163 HD
ENDROOT
BRANCH   2   5
HETATM    5  C   UNL     1      45.129 -11.819   6.698  1.00  0.00     0.163 C 
BRANCH   5   6
HETATM    6  C   UNL     1      44.706 -10.857   7.765  1.00  0.00    -0.023 A 
HETATM    7  C   UNL     1      43.440 -10.280   7.751  1.00  0.00     0.128 A 
HETATM    8  N   UNL     1      42.984  -9.421   8.691  1.00  0.00    -0.236 NA
HETATM    9  C   UNL     1      43.828  -9.121   9.699  1.00  0.00     0.164 A 
HETATM   10  C   UNL     1      45.106  -9.644   9.809  1.00  0.00     0.059 A 
HETATM   11  C   UNL     1      45.546 -10.532   8.832  1.00  0.00     0.014 A 
BRANCH   9  12
HETATM   12  O   UNL     1      43.444  -8.240  10.688  1.00  0.00    -0.329 OA
BRANCH  12  13
HETATM   13  C   UNL     1      43.247  -8.833  11.966  1.00  0.00     0.130 C 
HETATM   14  C   UNL     1      43.093  -7.722  13.003  1.00  0.00     0.032 C 
HETATM   15  C   UNL     1      42.438  -8.432  14.173  1.00  0.00     0.002 C 
HETATM   16  C   UNL     1      41.455  -9.402  13.528  1.00  0.00     0.002 C 
HETATM   17  C   UNL     1      41.916  -9.581  12.081  1.00  0.00     0.032 C 
ENDBRANCH  12  13
ENDBRANCH   9  12
ENDBRANCH   5   6
ENDBRANCH   2   5
BRANCH   1  18
HETATM   18  C   UNL     1      42.384 -13.867   5.206  1.00  0.00     0.157 A 
HETATM   19  C   UNL     1      42.384 -15.011   4.355  1.00  0.00     0.029 A 
HETATM   20  C   UNL     1      43.230 -16.119   4.142  1.00  0.00     0.023 A 
HETATM   21  C   UNL     1      41.225 -14.899   3.598  1.00  0.00     0.063 A 
HETATM   22  C   UNL     1      42.883 -17.079   3.176  1.00  0.00    -0.061 A 
HETATM   23  C   UNL     1      43.771 -18.265   2.929  1.00  0.00     0.048 C 
HETATM   24  C   UNL     1      41.707 -16.924   2.432  1.00  0.00     0.009 A 
HETATM   25  C   UNL     1      40.853 -15.832   2.627  1.00  0.00     0.032 A 
HETATM   26  N   UNL     1      40.627 -13.746   4.023  1.00  0.00    -0.277 N 
HETATM   27  H   UNL     1      39.756 -13.348   3.689  1.00  0.00     0.189 HD
HETATM   28  N   UNL     1      41.297 -13.094   4.990  1.00  0.00    -0.168 NA
ENDBRANCH   1  18
TORSDOF 5
ENDMDL
MODEL 7
REMARK VINA RESULT:      -8.4      6.123      8.196
REMARK  5 active torsions:
REMARK  status: ('A' for Active; 'I' for Inactive)
REMARK    1  A    between atoms: C_9  and  C_10 
REMARK       I    between atoms: C_10  and  N_11 
REMARK    2  A    between atoms: N_11  and  C_12 
REMARK    3  A    between atoms: C_12  and  C_13 
REMARK    4  A    between atoms: C_16  and  O_17 
REMARK    5  A    between atoms: O_17  and  C_18 
ROOT
HETATM    1  C   UNL     1      40.706 -15.460   1.748  1.00  0.00     0.273 C 
HETATM    2  N   UNL     1      41.169 -14.810   0.625  1.00  0.00    -0.351 N 
HETATM    3  O   UNL     1      39.529 -15.769   1.905  1.00  0.00    -0.266 OA
HETATM    4  H   UNL     1      42.147 -14.531   0.650  1.00  0.00     0.163 HD
ENDROOT
BRANCH   2   5
HETATM    5  C   UNL     1      40.273 -14.325  -0.388  1.00  0.00     0.163 C 
BRANCH   5   6
HETATM    6  C   UNL     1      40.438 -12.853  -0.607  1.00  0.00    -0.023 A 
HETATM    7  C   UNL     1      39.952 -11.931   0.314  1.00  0.00     0.128 A 
HETATM    8  N   UNL     1      40.083 -10.591   0.193  1.00  0.00    -0.236 NA
HETATM    9  C   UNL     1      40.734 -10.142  -0.901  1.00  0.00     0.164 A 
HETATM   10  C   UNL     1      41.260 -10.975  -1.874  1.00  0.00     0.059 A 
HETATM   11  C   UNL     1      41.118 -12.350  -1.719  1.00  0.00     0.014 A 
BRANCH   9  12
HETATM   12  O   UNL     1      40.895  -8.788  -1.106  1.00  0.00    -0.329 OA
BRANCH  12  13
HETATM   13  C   UNL     1      42.005  -8.441  -1.926  1.00  0.00     0.130 C 
HETATM   14  C   UNL     1      41.517  -7.528  -3.050  1.00  0.00     0.032 C 
HETATM   15  C   UNL     1      42.794  -6.870  -3.538  1.00  0.00     0.002 C 
HETATM   16  C   UNL     1      43.604  -6.624  -2.269  1.00  0.00     0.002 C 
HETATM   17  C   UNL     1      43.030  -7.561  -1.205  1.00  0.00     0.032 C 
ENDBRANCH  12  13
ENDBRANCH   9  12
ENDBRANCH   5   6
ENDBRANCH   2   5
BRANCH   1  18
HETATM   18  C   UNL     1      41.761 -15.723   2.740  1.00  0.00     0.157 A 
HETATM   19  C   UNL     1      42.538 -16.911   2.883  1.00  0.00     0.029 A 
HETATM   20  C   UNL     1      42.623 -18.155   2.225  1.00  0.00     0.023 A 
HETATM   21  C   UNL     1      43.376 -16.667   3.963  1.00  0.00     0.063 A 
HETATM   22  C   UNL     1      43.548 -19.113   2.672  1.00  0.00    -0.061 A 
HETATM   23  C   UNL     1      43.653 -20.446   1.990  1.00  0.00     0.048 C 
HETATM   24  C   UNL     1      44.372 -18.826   3.768  1.00  0.00     0.009 A 
HETATM   25  C   UNL     1      44.304 -17.598   4.437  1.00  0.00     0.032 A 
HETATM   26  N   UNL     1      43.065 -15.403   4.382  1.00  0.00    -0.277 N 
HETATM   27  H   UNL     1      43.482 -14.894   5.154  1.00  0.00     0.189 HD
HETATM   28  N   UNL     1      42.094 -14.803   3.672  1.00  0.00    -0.168 NA
ENDBRANCH   1  18
TORSDOF 5
ENDMDL
MODEL 8
REMARK VINA RESULT:      -8.2      4.245      7.466
REMARK  5 active torsions:
REMARK  status: ('A' for Active; 'I' for Inactive)
REMARK    1  A    between atoms: C_9  and  C_10 
REMARK       I    between atoms: C_10  and  N_11 
REMARK    2  A    between atoms: N_11  and  C_12 
REMARK    3  A    between atoms: C_12  and  C_13 
REMARK    4  A    between atoms: C_16  and  O_17 
REMARK    5  A    between atoms: O_17  and  C_18 
ROOT
HETATM    1  C   UNL     1      42.497 -13.909   6.611  1.00  0.00     0.273 C 
HETATM    2  N   UNL     1      41.209 -13.763   6.146  1.00  0.00    -0.351 N 
HETATM    3  O   UNL     1      43.237 -12.958   6.842  1.00  0.00    -0.266 OA
HETATM    4  H   UNL     1      40.727 -14.627   5.909  1.00  0.00     0.163 HD
ENDROOT
BRANCH   2   5
HETATM    5  C   UNL     1      40.685 -12.480   5.767  1.00  0.00     0.163 C 
BRANCH   5   6
HETATM    6  C   UNL     1      40.252 -12.466   4.333  1.00  0.00    -0.023 A 
HETATM    7  C   UNL     1      39.297 -11.560   3.881  1.00  0.00     0.128 A 
HETATM    8  N   UNL     1      38.875 -11.477   2.599  1.00  0.00    -0.236 NA
HETATM    9  C   UNL     1      39.431 -12.335   1.720  1.00  0.00     0.164 A 
HETATM   10  C   UNL     1      40.393 -13.270   2.066  1.00  0.00     0.059 A 
HETATM   11  C   UNL     1      40.815 -13.328   3.390  1.00  0.00     0.014 A 
BRANCH   9  12
HETATM   12  O   UNL     1      39.042 -12.324   0.397  1.00  0.00    -0.329 OA
BRANCH  12  13
HETATM   13  C   UNL     1      39.934 -12.991  -0.490  1.00  0.00     0.130 C 
HETATM   14  C   UNL     1      39.124 -13.924  -1.389  1.00  0.00     0.032 C 
HETATM   15  C   UNL     1      40.070 -14.191  -2.546  1.00  0.00     0.002 C 
HETATM   16  C   UNL     1      40.768 -12.857  -2.784  1.00  0.00     0.002 C 
HETATM   17  C   UNL     1      40.593 -12.046  -1.498  1.00  0.00     0.032 C 
ENDBRANCH  12  13
ENDBRANCH   9  12
ENDBRANCH   5   6
ENDBRANCH   2   5
BRANCH   1  18
HETATM   18  C   UNL     1      42.895 -15.315   6.780  1.00  0.00     0.157 A 
HETATM   19  C   UNL     1      43.115 -16.283   5.756  1.00  0.00     0.029 A 
HETATM   20  C   UNL     1      43.061 -16.300   4.347  1.00  0.00     0.023 A 
HETATM   21  C   UNL     1      43.455 -17.450   6.427  1.00  0.00     0.063 A 
HETATM   22  C   UNL     1      43.354 -17.490   3.658  1.00  0.00    -0.061 A 
HETATM   23  C   UNL     1      43.299 -17.533   2.158  1.00  0.00     0.048 C 
HETATM   24  C   UNL     1      43.689 -18.645   4.375  1.00  0.00     0.009 A 
HETATM   25  C   UNL     1      43.747 -18.651   5.774  1.00  0.00     0.032 A 
HETATM   26  N   UNL     1      43.422 -17.125   7.754  1.00  0.00    -0.277 N 
HETATM   27  H   UNL     1      43.618 -17.736   8.539  1.00  0.00     0.189 HD
HETATM   28  N   UNL     1      43.085 -15.848   8.008  1.00  0.00    -0.168 NA
ENDBRANCH   1  18
TORSDOF 5
ENDMDL
MODEL 9
REMARK VINA RESULT:      -7.7      2.663      9.208
REMARK  5 active torsions:
REMARK  status: ('A' for Active; 'I' for Inactive)
REMARK    1  A    between atoms: C_9  and  C_10 
REMARK       I    between atoms: C_10  and  N_11 
REMARK    2  A    between atoms: N_11  and  C_12 
REMARK    3  A    between atoms: C_12  and  C_13 
REMARK    4  A    between atoms: C_16  and  O_17 
REMARK    5  A    between atoms: O_17  and  C_18 
ROOT
HETATM    1  C   UNL     1      40.358 -10.239   6.698  1.00  0.00     0.273 C 
HETATM    2  N   UNL     1      40.559 -11.591   6.862  1.00  0.00    -0.351 N 
HETATM    3  O   UNL     1      39.503  -9.775   5.949  1.00  0.00    -0.266 OA
HETATM    4  H   UNL     1      41.354 -11.850   7.442  1.00  0.00     0.163 HD
ENDROOT
BRANCH   2   5
HETATM    5  C   UNL     1      39.867 -12.560   6.057  1.00  0.00     0.163 C 
BRANCH   5   6
HETATM    6  C   UNL     1      40.822 -13.495   5.382  1.00  0.00    -0.023 A 
HETATM    7  C   UNL     1      41.920 -13.014   4.676  1.00  0.00     0.128 A 
HETATM    8  N   UNL     1      42.833 -13.799   4.060  1.00  0.00    -0.236 NA
HETATM    9  C   UNL     1      42.648 -15.132   4.154  1.00  0.00     0.164 A 
HETATM   10  C   UNL     1      41.593 -15.713   4.838  1.00  0.00     0.059 A 
HETATM   11  C   UNL     1      40.673 -14.881   5.469  1.00  0.00     0.014 A 
BRANCH   9  12
HETATM   12  O   UNL     1      43.527 -16.000   3.540  1.00  0.00    -0.329 OA
BRANCH  12  13
HETATM   13  C   UNL     1      43.155 -17.372   3.615  1.00  0.00     0.130 C 
HETATM   14  C   UNL     1      43.192 -17.966   2.208  1.00  0.00     0.032 C 
HETATM   15  C   UNL     1      43.251 -19.460   2.469  1.00  0.00     0.002 C 
HETATM   16  C   UNL     1      44.159 -19.599   3.686  1.00  0.00     0.002 C 
HETATM   17  C   UNL     1      44.177 -18.229   4.365  1.00  0.00     0.032 C 
ENDBRANCH  12  13
ENDBRANCH   9  12
ENDBRANCH   5   6
ENDBRANCH   2   5
BRANCH   1  18
HETATM   18  C   UNL     1      41.282  -9.415   7.493  1.00  0.00     0.157 A 
HETATM   19  C   UNL     1      42.693  -9.577   7.625  1.00  0.00     0.029 A 
HETATM   20  C   UNL     1      43.665 -10.461   7.114  1.00  0.00     0.023 A 
HETATM   21  C   UNL     1      43.094  -8.566   8.488  1.00  0.00     0.063 A 
HETATM   22  C   UNL     1      45.011 -10.299   7.486  1.00  0.00    -0.061 A 
HETATM   23  C   UNL     1      46.064 -11.231   6.959  1.00  0.00     0.048 C 
HETATM   24  C   UNL     1      45.371  -9.268   8.363  1.00  0.00     0.009 A 
HETATM   25  C   UNL     1      44.422  -8.379   8.882  1.00  0.00     0.032 A 
HETATM   26  N   UNL     1      41.951  -7.888   8.807  1.00  0.00    -0.277 N 
HETATM   27  H   UNL     1      41.865  -7.085   9.418  1.00  0.00     0.189 HD
HETATM   28  N   UNL     1      40.837  -8.372   8.229  1.00  0.00    -0.168 NA
ENDBRANCH   1  18
TORSDOF 5
ENDMDL
MODEL 10
REMARK VINA RESULT:      -7.7      2.662     10.107
REMARK  5 active torsions:
REMARK  status: ('A' for Active; 'I' for Inactive)
REMARK    1  A    between atoms: C_9  and  C_10 
REMARK       I    between atoms: C_10  and  N_11 
REMARK    2  A    between atoms: N_11  and  C_12 
REMARK    3  A    between atoms: C_12  and  C_13 
REMARK    4  A    between atoms: C_16  and  O_17 
REMARK    5  A    between atoms: O_17  and  C_18 
ROOT
HETATM    1  C   UNL     1      41.249  -9.352   7.892  1.00  0.00     0.273 C 
HETATM    2  N   UNL     1      41.096 -10.472   7.106  1.00  0.00    -0.351 N 
HETATM    3  O   UNL     1      42.030  -8.445   7.620  1.00  0.00    -0.266 OA
HETATM    4  H   UNL     1      40.483 -11.192   7.482  1.00  0.00     0.163 HD
ENDROOT
BRANCH   2   5
HETATM    5  C   UNL     1      41.947 -10.723   5.976  1.00  0.00     0.163 C 
BRANCH   5   6
HETATM    6  C   UNL     1      41.848 -12.146   5.519  1.00  0.00    -0.023 A 
HETATM    7  C   UNL     1      42.876 -12.741   4.796  1.00  0.00     0.128 A 
HETATM    8  N   UNL     1      42.864 -14.024   4.369  1.00  0.00    -0.236 NA
HETATM    9  C   UNL     1      41.774 -14.755   4.680  1.00  0.00     0.164 A 
HETATM   10  C   UNL     1      40.699 -14.261   5.400  1.00  0.00     0.059 A 
HETATM   11  C   UNL     1      40.742 -12.939   5.833  1.00  0.00     0.014 A 
BRANCH   9  12
HETATM   12  O   UNL     1      41.678 -16.068   4.267  1.00  0.00    -0.329 OA
BRANCH  12  13
HETATM   13  C   UNL     1      42.908 -16.650   3.851  1.00  0.00     0.130 C 
HETATM   14  C   UNL     1      43.397 -17.597   4.946  1.00  0.00     0.032 C 
HETATM   15  C   UNL     1      44.399 -18.474   4.219  1.00  0.00     0.002 C 
HETATM   16  C   UNL     1      43.782 -18.699   2.843  1.00  0.00     0.002 C 
HETATM   17  C   UNL     1      42.751 -17.585   2.649  1.00  0.00     0.032 C 
ENDBRANCH  12  13
ENDBRANCH   9  12
ENDBRANCH   5   6
ENDBRANCH   2   5
BRANCH   1  18
HETATM   18  C   UNL     1      40.398  -9.366   9.092  1.00  0.00     0.157 A 
HETATM   19  C   UNL     1      40.784  -9.063  10.431  1.00  0.00     0.029 A 
HETATM   20  C   UNL     1      41.972  -8.670  11.082  1.00  0.00     0.023 A 
HETATM   21  C   UNL     1      39.632  -9.234  11.188  1.00  0.00     0.063 A 
HETATM   22  C   UNL     1      41.962  -8.458  12.471  1.00  0.00    -0.061 A 
HETATM   23  C   UNL     1      43.216  -8.043  13.186  1.00  0.00     0.048 C 
HETATM   24  C   UNL     1      40.778  -8.646  13.196  1.00  0.00     0.009 A 
HETATM   25  C   UNL     1      39.589  -9.037  12.570  1.00  0.00     0.032 A 
HETATM   26  N   UNL     1      38.667  -9.610  10.295  1.00  0.00    -0.277 N 
HETATM   27  H   UNL     1      37.696  -9.821  10.496  1.00  0.00     0.189 HD
HETATM   28  N   UNL     1      39.091  -9.704   9.022  1.00  0.00    -0.168 NA
ENDBRANCH   1  18
TORSDOF 5
ENDMDL
