MODEL 1
REMARK VINA RESULT:      -8.2      0.000      0.000
REMARK  9 active torsions:
REMARK  status: ('A' for Active; 'I' for Inactive)
REMARK    1  A    between atoms: C_3  and  C_4 
REMARK    2  A    between atoms: C_4  and  C_5 
REMARK       I    between atoms: C_5  and  N_6 
REMARK    3  A    between atoms: N_6  and  C_7 
REMARK    4  A    between atoms: C_16  and  N_17 
REMARK       I    between atoms: N_17  and  C_18 
REMARK    5  A    between atoms: C_18  and  C_19 
REMARK    6  A    between atoms: C_19  and  O_20 
REMARK    7  A    between atoms: C_26  and  C_27 
REMARK    8  A    between atoms: C_27  and  O_28 
REMARK    9  A    between atoms: C_30  and  O_31 
ROOT
HETATM    1  C   UNL     1      43.833 -13.804   2.091  1.00  0.00     0.016 C 
HETATM    2  C   UNL     1      42.335 -13.980   2.493  1.00  0.00    -0.030 C 
HETATM    3  C   UNL     1      42.214 -14.075   4.075  1.00  0.00     0.056 C 
HETATM    4  C   UNL     1      42.356 -12.703   4.698  1.00  0.00     0.056 A 
HETATM    5  C   UNL     1      42.218 -11.522   3.998  1.00  0.00     0.012 A 
HETATM    6  S   UNL     1      42.344 -10.187   5.051  1.00  0.00    -0.055 SA
HETATM    7  C   UNL     1      42.607 -11.270   6.343  1.00  0.00     0.174 A 
HETATM    8  N   UNL     1      42.593 -12.548   6.052  1.00  0.00    -0.227 NA
HETATM    9  C   UNL     1      42.002 -11.391   2.532  1.00  0.00     0.055 C 
HETATM   10  C   UNL     1      41.527 -12.738   1.916  1.00  0.00     0.012 C 
HETATM   11  C   UNL     1      39.947 -12.897   1.863  1.00  0.00     0.008 C 
HETATM   12  C   UNL     1      39.449 -12.052   0.649  1.00  0.00     0.020 C 
HETATM   13  C   UNL     1      39.530 -14.372   1.575  1.00  0.00     0.128 C 
HETATM   14  C   UNL     1      40.648 -15.169   0.913  1.00  0.00     0.033 C 
HETATM   15  C   UNL     1      41.849 -15.314   1.843  1.00  0.00     0.013 C 
ENDROOT
BRANCH   3  16
HETATM   16  C   UNL     1      43.189 -15.092   4.707  1.00  0.00     0.114 C 
BRANCH  16  17
HETATM   17  C   UNL     1      42.710 -16.528   4.606  1.00  0.00     0.218 C 
HETATM   18  N   UNL     1      43.620 -17.419   4.098  1.00  0.00    -0.356 N 
HETATM   19  H   UNL     1      44.482 -17.036   3.699  1.00  0.00     0.162 HD
HETATM   20  O   UNL     1      41.568 -16.839   4.941  1.00  0.00    -0.274 OA
BRANCH  18  21
HETATM   21  C   UNL     1      43.237 -18.756   3.707  1.00  0.00     0.084 C 
HETATM   22  C   UNL     1      43.266 -18.941   2.191  1.00  0.00     0.025 C 
HETATM   23  C   UNL     1      43.499 -20.433   1.967  1.00  0.00     0.002 C 
HETATM   24  C   UNL     1      43.908 -21.017   3.317  1.00  0.00     0.002 C 
HETATM   25  C   UNL     1      44.197 -19.823   4.215  1.00  0.00     0.025 C 
ENDBRANCH  18  21
ENDBRANCH  16  17
ENDBRANCH   3  16
BRANCH  11  26
HETATM   26  C   UNL     1      39.217 -12.346   3.117  1.00  0.00     0.176 C 
BRANCH  26  27
HETATM   27  O   UNL     1      38.528 -11.132   2.826  1.00  0.00    -0.400 OA
HETATM   28  H   UNL     1      39.187 -10.581   2.355  1.00  0.00     0.209 HD
ENDBRANCH  26  27
ENDBRANCH  11  26
BRANCH   7  29
HETATM   29  N   UNL     1      42.784 -10.667   7.552  1.00  0.00    -0.304 N 
HETATM   30  C   UNL     1      43.918 -10.841   8.310  1.00  0.00     0.247 C 
HETATM   31  O   UNL     1      44.941 -11.434   7.983  1.00  0.00    -0.271 OA
HETATM   32  H   UNL     1      42.036 -10.090   7.915  1.00  0.00     0.171 HD
BRANCH  30  33
HETATM   33  C   UNL     1      43.810 -10.128   9.661  1.00  0.00     0.270 C 
BRANCH  33  34
HETATM   34  O   UNL     1      44.371 -10.879  10.736  1.00  0.00    -0.387 OA
HETATM   35  C   UNL     1      43.521 -10.885  11.880  1.00  0.00     0.202 C 
ENDBRANCH  33  34
ENDBRANCH  30  33
ENDBRANCH   7  29
BRANCH  13  36
HETATM   36  O   UNL     1      39.140 -15.031   2.784  1.00  0.00    -0.395 OA
HETATM   37  H   UNL     1      38.313 -14.620   3.096  1.00  0.00     0.210 HD
ENDBRANCH  13  36
TORSDOF 9
ENDMDL
MODEL 2
REMARK VINA RESULT:      -8.0      2.894      6.393
REMARK  9 active torsions:
REMARK  status: ('A' for Active; 'I' for Inactive)
REMARK    1  A    between atoms: C_3  and  C_4 
REMARK    2  A    between atoms: C_4  and  C_5 
REMARK       I    between atoms: C_5  and  N_6 
REMARK    3  A    between atoms: N_6  and  C_7 
REMARK    4  A    between atoms: C_16  and  N_17 
REMARK       I    between atoms: N_17  and  C_18 
REMARK    5  A    between atoms: C_18  and  C_19 
REMARK    6  A    between atoms: C_19  and  O_20 
REMARK    7  A    between atoms: C_26  and  C_27 
REMARK    8  A    between atoms: C_27  and  O_28 
REMARK    9  A    between atoms: C_30  and  O_31 
ROOT
HETATM    1  C   UNL     1      43.938 -11.695   3.405  1.00  0.00     0.016 C 
HETATM    2  C   UNL     1      42.399 -11.832   3.622  1.00  0.00    -0.030 C 
HETATM    3  C   UNL     1      41.955 -13.337   3.366  1.00  0.00     0.056 C 
HETATM    4  C   UNL     1      42.331 -14.205   4.546  1.00  0.00     0.056 A 
HETATM    5  C   UNL     1      42.647 -13.712   5.796  1.00  0.00     0.012 A 
HETATM    6  S   UNL     1      42.914 -14.990   6.891  1.00  0.00    -0.055 SA
HETATM    7  C   UNL     1      42.629 -16.096   5.623  1.00  0.00     0.174 A 
HETATM    8  N   UNL     1      42.336 -15.586   4.452  1.00  0.00    -0.227 NA
HETATM    9  C   UNL     1      42.758 -12.277   6.170  1.00  0.00     0.055 C 
HETATM   10  C   UNL     1      42.073 -11.369   5.108  1.00  0.00     0.012 C 
HETATM   11  C   UNL     1      40.548 -11.055   5.423  1.00  0.00     0.008 C 
HETATM   12  C   UNL     1      40.532  -9.948   6.523  1.00  0.00     0.020 C 
HETATM   13  C   UNL     1      39.820 -10.452   4.181  1.00  0.00     0.128 C 
HETATM   14  C   UNL     1      40.794  -9.834   3.185  1.00  0.00     0.033 C 
HETATM   15  C   UNL     1      41.713 -10.892   2.581  1.00  0.00     0.013 C 
ENDROOT
BRANCH   3  16
HETATM   16  C   UNL     1      42.488 -13.917   2.038  1.00  0.00     0.114 C 
BRANCH  16  17
HETATM   17  C   UNL     1      41.394 -14.454   1.134  1.00  0.00     0.218 C 
HETATM   18  N   UNL     1      41.116 -13.691   0.028  1.00  0.00    -0.356 N 
HETATM   19  H   UNL     1      41.552 -12.766  -0.028  1.00  0.00     0.162 HD
HETATM   20  O   UNL     1      40.796 -15.492   1.411  1.00  0.00    -0.274 OA
BRANCH  18  21
HETATM   21  C   UNL     1      39.944 -13.929  -0.784  1.00  0.00     0.084 C 
HETATM   22  C   UNL     1      38.931 -12.791  -0.676  1.00  0.00     0.025 C 
HETATM   23  C   UNL     1      38.142 -12.825  -1.983  1.00  0.00     0.002 C 
HETATM   24  C   UNL     1      38.903 -13.751  -2.928  1.00  0.00     0.002 C 
HETATM   25  C   UNL     1      40.255 -13.991  -2.273  1.00  0.00     0.025 C 
ENDBRANCH  18  21
ENDBRANCH  16  17
ENDBRANCH   3  16
BRANCH  11  26
HETATM   26  C   UNL     1      39.761 -12.264   5.997  1.00  0.00     0.176 C 
BRANCH  26  27
HETATM   27  O   UNL     1      39.267 -11.987   7.306  1.00  0.00    -0.400 OA
HETATM   28  H   UNL     1      39.182 -12.866   7.728  1.00  0.00     0.209 HD
ENDBRANCH  26  27
ENDBRANCH  11  26
BRANCH   7  29
HETATM   29  N   UNL     1      42.724 -17.405   5.990  1.00  0.00    -0.304 N 
HETATM   30  C   UNL     1      43.738 -18.227   5.557  1.00  0.00     0.247 C 
HETATM   31  O   UNL     1      44.727 -17.900   4.909  1.00  0.00    -0.271 OA
HETATM   32  H   UNL     1      42.000 -17.790   6.583  1.00  0.00     0.171 HD
BRANCH  30  33
HETATM   33  C   UNL     1      43.544 -19.666   6.042  1.00  0.00     0.270 C 
BRANCH  33  34
HETATM   34  O   UNL     1      44.394 -20.600   5.376  1.00  0.00    -0.387 OA
HETATM   35  C   UNL     1      43.857 -21.003   4.119  1.00  0.00     0.202 C 
ENDBRANCH  33  34
ENDBRANCH  30  33
ENDBRANCH   7  29
BRANCH  13  36
HETATM   36  O   UNL     1      39.045 -11.454   3.515  1.00  0.00    -0.395 OA
HETATM   37  H   UNL     1      38.707 -12.070   4.191  1.00  0.00     0.210 HD
ENDBRANCH  13  36
TORSDOF 9
ENDMDL
MODEL 3
REMARK VINA RESULT:      -8.0      1.996      2.159
REMARK  9 active torsions:
REMARK  status: ('A' for Active; 'I' for Inactive)
REMARK    1  A    between atoms: C_3  and  C_4 
REMARK    2  A    between atoms: C_4  and  C_5 
REMARK       I    between atoms: C_5  and  N_6 
REMARK    3  A    between atoms: N_6  and  C_7 
REMARK    4  A    between atoms: C_16  and  N_17 
REMARK       I    between atoms: N_17  and  C_18 
REMARK    5  A    between atoms: C_18  and  C_19 
REMARK    6  A    between atoms: C_19  and  O_20 
REMARK    7  A    between atoms: C_26  and  C_27 
REMARK    8  A    between atoms: C_27  and  O_28 
REMARK    9  A    between atoms: C_30  and  O_31 
ROOT
HETATM    1  C   UNL     1      43.651 -12.888   2.811  1.00  0.00     0.016 C 
HETATM    2  C   UNL     1      42.143 -13.286   2.768  1.00  0.00    -0.030 C 
HETATM    3  C   UNL     1      41.579 -13.409   4.249  1.00  0.00     0.056 C 
HETATM    4  C   UNL     1      41.335 -12.035   4.835  1.00  0.00     0.056 A 
HETATM    5  C   UNL     1      41.241 -10.882   4.083  1.00  0.00     0.012 A 
HETATM    6  S   UNL     1      40.861  -9.551   5.077  1.00  0.00    -0.055 SA
HETATM    7  C   UNL     1      40.887 -10.593   6.429  1.00  0.00     0.174 A 
HETATM    8  N   UNL     1      41.142 -11.856   6.193  1.00  0.00    -0.227 NA
HETATM    9  C   UNL     1      41.446 -10.774   2.614  1.00  0.00     0.055 C 
HETATM   10  C   UNL     1      41.369 -12.173   1.936  1.00  0.00     0.012 C 
HETATM   11  C   UNL     1      39.913 -12.562   1.433  1.00  0.00     0.008 C 
HETATM   12  C   UNL     1      39.677 -11.792   0.097  1.00  0.00     0.020 C 
HETATM   13  C   UNL     1      39.815 -14.081   1.090  1.00  0.00     0.128 C 
HETATM   14  C   UNL     1      41.179 -14.700   0.811  1.00  0.00     0.033 C 
HETATM   15  C   UNL     1      42.063 -14.672   2.053  1.00  0.00     0.013 C 
ENDROOT
BRANCH   3  16
HETATM   16  C   UNL     1      42.462 -14.275   5.173  1.00  0.00     0.114 C 
BRANCH  16  17
HETATM   17  C   UNL     1      42.192 -15.762   5.042  1.00  0.00     0.218 C 
HETATM   18  N   UNL     1      43.271 -16.529   4.685  1.00  0.00    -0.356 N 
HETATM   19  H   UNL     1      44.123 -16.038   4.397  1.00  0.00     0.162 HD
HETATM   20  O   UNL     1      41.065 -16.219   5.226  1.00  0.00    -0.274 OA
BRANCH  18  21
HETATM   21  C   UNL     1      43.123 -17.907   4.277  1.00  0.00     0.084 C 
HETATM   22  C   UNL     1      43.251 -18.074   2.764  1.00  0.00     0.025 C 
HETATM   23  C   UNL     1      43.727 -19.510   2.553  1.00  0.00     0.002 C 
HETATM   24  C   UNL     1      44.160 -20.031   3.921  1.00  0.00     0.002 C 
HETATM   25  C   UNL     1      44.215 -18.812   4.830  1.00  0.00     0.025 C 
ENDBRANCH  18  21
ENDBRANCH  16  17
ENDBRANCH   3  16
BRANCH  11  26
HETATM   26  C   UNL     1      38.778 -12.134   2.400  1.00  0.00     0.176 C 
BRANCH  26  27
HETATM   27  O   UNL     1      37.505 -12.177   1.758  1.00  0.00    -0.400 OA
HETATM   28  H   UNL     1      37.423 -13.097   1.434  1.00  0.00     0.209 HD
ENDBRANCH  26  27
ENDBRANCH  11  26
BRANCH   7  29
HETATM   29  N   UNL     1      40.615  -9.978   7.614  1.00  0.00    -0.304 N 
HETATM   30  C   UNL     1      39.415 -10.127   8.271  1.00  0.00     0.247 C 
HETATM   31  O   UNL     1      38.501 -10.889   7.973  1.00  0.00    -0.271 OA
HETATM   32  H   UNL     1      41.316  -9.365   8.009  1.00  0.00     0.171 HD
BRANCH  30  33
HETATM   33  C   UNL     1      39.344  -9.250   9.523  1.00  0.00     0.270 C 
BRANCH  33  34
HETATM   34  O   UNL     1      40.349  -9.566  10.486  1.00  0.00    -0.387 OA
HETATM   35  C   UNL     1      39.785 -10.032  11.709  1.00  0.00     0.202 C 
ENDBRANCH  33  34
ENDBRANCH  30  33
ENDBRANCH   7  29
BRANCH  13  36
HETATM   36  O   UNL     1      39.186 -14.799   2.157  1.00  0.00    -0.395 OA
HETATM   37  H   UNL     1      38.578 -14.187   2.612  1.00  0.00     0.210 HD
ENDBRANCH  13  36
TORSDOF 9
ENDMDL
MODEL 4
REMARK VINA RESULT:      -7.8      2.450      7.231
REMARK  9 active torsions:
REMARK  status: ('A' for Active; 'I' for Inactive)
REMARK    1  A    between atoms: C_3  and  C_4 
REMARK    2  A    between atoms: C_4  and  C_5 
REMARK       I    between atoms: C_5  and  N_6 
REMARK    3  A    between atoms: N_6  and  C_7 
REMARK    4  A    between atoms: C_16  and  N_17 
REMARK       I    between atoms: N_17  and  C_18 
REMARK    5  A    between atoms: C_18  and  C_19 
REMARK    6  A    between atoms: C_19  and  O_20 
REMARK    7  A    between atoms: C_26  and  C_27 
REMARK    8  A    between atoms: C_27  and  O_28 
REMARK    9  A    between atoms: C_30  and  O_31 
ROOT
HETATM    1  C   UNL     1      39.470 -12.667   5.097  1.00  0.00     0.016 C 
HETATM    2  C   UNL     1      40.415 -12.179   3.955  1.00  0.00    -0.030 C 
HETATM    3  C   UNL     1      41.848 -12.847   4.125  1.00  0.00     0.056 C 
HETATM    4  C   UNL     1      41.816 -14.287   3.663  1.00  0.00     0.056 A 
HETATM    5  C   UNL     1      40.824 -14.818   2.863  1.00  0.00     0.012 A 
HETATM    6  S   UNL     1      41.181 -16.436   2.466  1.00  0.00    -0.055 SA
HETATM    7  C   UNL     1      42.598 -16.324   3.410  1.00  0.00     0.174 A 
HETATM    8  N   UNL     1      42.832 -15.170   3.985  1.00  0.00    -0.227 NA
HETATM    9  C   UNL     1      39.599 -14.112   2.401  1.00  0.00     0.055 C 
HETATM   10  C   UNL     1      39.746 -12.572   2.567  1.00  0.00     0.012 C 
HETATM   11  C   UNL     1      40.326 -11.842   1.281  1.00  0.00     0.008 C 
HETATM   12  C   UNL     1      39.149 -11.719   0.263  1.00  0.00     0.020 C 
HETATM   13  C   UNL     1      40.780 -10.385   1.607  1.00  0.00     0.128 C 
HETATM   14  C   UNL     1      40.113  -9.840   2.863  1.00  0.00     0.033 C 
HETATM   15  C   UNL     1      40.533 -10.629   4.100  1.00  0.00     0.013 C 
ENDROOT
BRANCH   3  16
HETATM   16  C   UNL     1      42.420 -12.720   5.554  1.00  0.00     0.114 C 
BRANCH  16  17
HETATM   17  C   UNL     1      43.518 -11.680   5.671  1.00  0.00     0.218 C 
HETATM   18  N   UNL     1      43.841 -11.305   6.951  1.00  0.00    -0.356 N 
HETATM   19  H   UNL     1      43.233 -11.636   7.706  1.00  0.00     0.162 HD
HETATM   20  O   UNL     1      44.050 -11.205   4.670  1.00  0.00    -0.274 OA
BRANCH  18  21
HETATM   21  C   UNL     1      44.676 -10.156   7.218  1.00  0.00     0.084 C 
HETATM   22  C   UNL     1      44.224  -9.396   8.463  1.00  0.00     0.025 C 
HETATM   23  C   UNL     1      45.473  -8.690   8.984  1.00  0.00     0.002 C 
HETATM   24  C   UNL     1      46.660  -9.294   8.236  1.00  0.00     0.002 C 
HETATM   25  C   UNL     1      46.119 -10.529   7.531  1.00  0.00     0.025 C 
ENDBRANCH  18  21
ENDBRANCH  16  17
ENDBRANCH   3  16
BRANCH  11  26
HETATM   26  C   UNL     1      41.454 -12.630   0.564  1.00  0.00     0.176 C 
BRANCH  26  27
HETATM   27  O   UNL     1      41.024 -13.109  -0.709  1.00  0.00    -0.400 OA
HETATM   28  H   UNL     1      41.853 -13.282  -1.201  1.00  0.00     0.209 HD
ENDBRANCH  26  27
ENDBRANCH  11  26
BRANCH   7  29
HETATM   29  N   UNL     1      43.342 -17.465   3.439  1.00  0.00    -0.304 N 
HETATM   30  C   UNL     1      43.631 -18.134   4.606  1.00  0.00     0.247 C 
HETATM   31  O   UNL     1      43.189 -17.892   5.724  1.00  0.00    -0.271 OA
HETATM   32  H   UNL     1      43.719 -17.815   2.568  1.00  0.00     0.171 HD
BRANCH  30  33
HETATM   33  C   UNL     1      44.563 -19.324   4.359  1.00  0.00     0.270 C 
BRANCH  33  34
HETATM   34  O   UNL     1      43.864 -20.516   4.003  1.00  0.00    -0.387 OA
HETATM   35  C   UNL     1      43.764 -20.670   2.590  1.00  0.00     0.202 C 
ENDBRANCH  33  34
ENDBRANCH  30  33
ENDBRANCH   7  29
BRANCH  13  36
HETATM   36  O   UNL     1      42.201 -10.325   1.770  1.00  0.00    -0.395 OA
HETATM   37  H   UNL     1      42.592 -10.102   0.905  1.00  0.00     0.210 HD
ENDBRANCH  13  36
TORSDOF 9
ENDMDL
MODEL 5
REMARK VINA RESULT:      -7.5      3.477      8.723
REMARK  9 active torsions:
REMARK  status: ('A' for Active; 'I' for Inactive)
REMARK    1  A    between atoms: C_3  and  C_4 
REMARK    2  A    between atoms: C_4  and  C_5 
REMARK       I    between atoms: C_5  and  N_6 
REMARK    3  A    between atoms: N_6  and  C_7 
REMARK    4  A    between atoms: C_16  and  N_17 
REMARK       I    between atoms: N_17  and  C_18 
REMARK    5  A    between atoms: C_18  and  C_19 
REMARK    6  A    between atoms: C_19  and  O_20 
REMARK    7  A    between atoms: C_26  and  C_27 
REMARK    8  A    between atoms: C_27  and  O_28 
REMARK    9  A    between atoms: C_30  and  O_31 
ROOT
HETATM    1  C   UNL     1      43.755 -11.963   3.466  1.00  0.00     0.016 C 
HETATM    2  C   UNL     1      42.659 -12.731   4.269  1.00  0.00    -0.030 C 
HETATM    3  C   UNL     1      41.218 -12.270   3.782  1.00  0.00     0.056 C 
HETATM    4  C   UNL     1      40.880 -12.911   2.454  1.00  0.00     0.056 A 
HETATM    5  C   UNL     1      41.535 -14.012   1.941  1.00  0.00     0.012 A 
HETATM    6  S   UNL     1      40.812 -14.509   0.480  1.00  0.00    -0.055 SA
HETATM    7  C   UNL     1      39.714 -13.210   0.617  1.00  0.00     0.174 A 
HETATM    8  N   UNL     1      39.836 -12.446   1.674  1.00  0.00    -0.227 NA
HETATM    9  C   UNL     1      42.714 -14.690   2.544  1.00  0.00     0.055 C 
HETATM   10  C   UNL     1      42.886 -14.288   4.037  1.00  0.00     0.012 C 
HETATM   11  C   UNL     1      42.146 -15.260   5.052  1.00  0.00     0.008 C 
HETATM   12  C   UNL     1      43.039 -16.533   5.189  1.00  0.00     0.020 C 
HETATM   13  C   UNL     1      42.050 -14.632   6.477  1.00  0.00     0.128 C 
HETATM   14  C   UNL     1      43.092 -13.543   6.700  1.00  0.00     0.033 C 
HETATM   15  C   UNL     1      42.857 -12.355   5.771  1.00  0.00     0.013 C 
ENDROOT
BRANCH   3  16
HETATM   16  C   UNL     1      41.047 -10.736   3.734  1.00  0.00     0.114 C 
BRANCH  16  17
HETATM   17  C   UNL     1      39.936 -10.227   4.633  1.00  0.00     0.218 C 
HETATM   18  N   UNL     1      40.331  -9.384   5.641  1.00  0.00    -0.356 N 
HETATM   19  H   UNL     1      41.338  -9.278   5.799  1.00  0.00     0.162 HD
HETATM   20  O   UNL     1      38.771 -10.581   4.462  1.00  0.00    -0.274 OA
BRANCH  18  21
HETATM   21  C   UNL     1      39.442  -9.021   6.720  1.00  0.00     0.084 C 
HETATM   22  C   UNL     1      39.763  -9.779   8.007  1.00  0.00     0.025 C 
HETATM   23  C   UNL     1      39.261  -8.887   9.140  1.00  0.00     0.002 C 
HETATM   24  C   UNL     1      38.958  -7.525   8.521  1.00  0.00     0.002 C 
HETATM   25  C   UNL     1      39.567  -7.558   7.128  1.00  0.00     0.025 C 
ENDBRANCH  18  21
ENDBRANCH  16  17
ENDBRANCH   3  16
BRANCH  11  26
HETATM   26  C   UNL     1      40.756 -15.743   4.561  1.00  0.00     0.176 C 
BRANCH  26  27
HETATM   27  O   UNL     1      40.073 -16.477   5.576  1.00  0.00    -0.400 OA
HETATM   28  H   UNL     1      39.367 -16.960   5.099  1.00  0.00     0.209 HD
ENDBRANCH  26  27
ENDBRANCH  11  26
BRANCH   7  29
HETATM   29  N   UNL     1      38.810 -13.132  -0.400  1.00  0.00    -0.304 N 
HETATM   30  C   UNL     1      39.048 -12.419  -1.551  1.00  0.00     0.247 C 
HETATM   31  O   UNL     1      40.096 -11.873  -1.878  1.00  0.00    -0.271 OA
HETATM   32  H   UNL     1      37.919 -13.597  -0.286  1.00  0.00     0.171 HD
BRANCH  30  33
HETATM   33  C   UNL     1      37.829 -12.421  -2.479  1.00  0.00     0.270 C 
BRANCH  33  34
HETATM   34  O   UNL     1      37.292 -13.726  -2.693  1.00  0.00    -0.387 OA
HETATM   35  C   UNL     1      38.106 -14.497  -3.572  1.00  0.00     0.202 C 
ENDBRANCH  33  34
ENDBRANCH  30  33
ENDBRANCH   7  29
BRANCH  13  36
HETATM   36  O   UNL     1      40.747 -14.085   6.700  1.00  0.00    -0.395 OA
HETATM   37  H   UNL     1      40.742 -13.173   6.354  1.00  0.00     0.210 HD
ENDBRANCH  13  36
TORSDOF 9
ENDMDL
MODEL 6
REMARK VINA RESULT:      -7.5      3.007      6.567
REMARK  9 active torsions:
REMARK  status: ('A' for Active; 'I' for Inactive)
REMARK    1  A    between atoms: C_3  and  C_4 
REMARK    2  A    between atoms: C_4  and  C_5 
REMARK       I    between atoms: C_5  and  N_6 
REMARK    3  A    between atoms: N_6  and  C_7 
REMARK    4  A    between atoms: C_16  and  N_17 
REMARK       I    between atoms: N_17  and  C_18 
REMARK    5  A    between atoms: C_18  and  C_19 
REMARK    6  A    between atoms: C_19  and  O_20 
REMARK    7  A    between atoms: C_26  and  C_27 
REMARK    8  A    between atoms: C_27  and  O_28 
REMARK    9  A    between atoms: C_30  and  O_31 
ROOT
HETATM    1  C   UNL     1      39.777 -13.927   6.220  1.00  0.00     0.016 C 
HETATM    2  C   UNL     1      41.014 -13.278   5.523  1.00  0.00    -0.030 C 
HETATM    3  C   UNL     1      41.036 -13.685   3.986  1.00  0.00     0.056 C 
HETATM    4  C   UNL     1      40.014 -12.881   3.213  1.00  0.00     0.056 A 
HETATM    5  C   UNL     1      39.437 -11.717   3.680  1.00  0.00     0.012 A 
HETATM    6  S   UNL     1      38.415 -11.042   2.494  1.00  0.00    -0.055 SA
HETATM    7  C   UNL     1      38.784 -12.357   1.471  1.00  0.00     0.174 A 
HETATM    8  N   UNL     1      39.620 -13.250   1.940  1.00  0.00    -0.227 NA
HETATM    9  C   UNL     1      39.644 -11.113   5.023  1.00  0.00     0.055 C 
HETATM   10  C   UNL     1      40.908 -11.703   5.711  1.00  0.00     0.012 C 
HETATM   11  C   UNL     1      42.235 -10.875   5.431  1.00  0.00     0.008 C 
HETATM   12  C   UNL     1      42.191  -9.624   6.362  1.00  0.00     0.020 C 
HETATM   13  C   UNL     1      43.507 -11.682   5.836  1.00  0.00     0.128 C 
HETATM   14  C   UNL     1      43.197 -12.783   6.843  1.00  0.00     0.033 C 
HETATM   15  C   UNL     1      42.281 -13.843   6.239  1.00  0.00     0.013 C 
ENDROOT
BRANCH   3  16
HETATM   16  C   UNL     1      40.867 -15.201   3.749  1.00  0.00     0.114 C 
BRANCH  16  17
HETATM   17  C   UNL     1      42.147 -15.889   3.312  1.00  0.00     0.218 C 
HETATM   18  N   UNL     1      42.007 -17.190   2.902  1.00  0.00    -0.356 N 
HETATM   19  H   UNL     1      41.099 -17.637   3.055  1.00  0.00     0.162 HD
HETATM   20  O   UNL     1      43.227 -15.302   3.356  1.00  0.00    -0.274 OA
BRANCH  18  21
HETATM   21  C   UNL     1      43.151 -18.050   2.700  1.00  0.00     0.084 C 
HETATM   22  C   UNL     1      43.789 -18.475   4.021  1.00  0.00     0.025 C 
HETATM   23  C   UNL     1      44.481 -19.804   3.729  1.00  0.00     0.002 C 
HETATM   24  C   UNL     1      43.976 -20.268   2.365  1.00  0.00     0.002 C 
HETATM   25  C   UNL     1      42.792 -19.371   2.035  1.00  0.00     0.025 C 
ENDBRANCH  18  21
ENDBRANCH  16  17
ENDBRANCH   3  16
BRANCH  11  26
HETATM   26  C   UNL     1      42.351 -10.345   3.977  1.00  0.00     0.176 C 
BRANCH  26  27
HETATM   27  O   UNL     1      41.915  -8.990   3.883  1.00  0.00    -0.400 OA
HETATM   28  H   UNL     1      42.452  -8.511   4.547  1.00  0.00     0.209 HD
ENDBRANCH  26  27
ENDBRANCH  11  26
BRANCH   7  29
HETATM   29  N   UNL     1      38.168 -12.311   0.257  1.00  0.00    -0.304 N 
HETATM   30  C   UNL     1      38.833 -11.986  -0.902  1.00  0.00     0.247 C 
HETATM   31  O   UNL     1      40.041 -11.816  -1.037  1.00  0.00    -0.271 OA
HETATM   32  H   UNL     1      37.174 -12.496   0.215  1.00  0.00     0.171 HD
BRANCH  30  33
HETATM   33  C   UNL     1      37.881 -11.914  -2.099  1.00  0.00     0.270 C 
BRANCH  33  34
HETATM   34  O   UNL     1      37.251 -13.162  -2.388  1.00  0.00    -0.387 OA
HETATM   35  C   UNL     1      38.150 -14.081  -3.002  1.00  0.00     0.202 C 
ENDBRANCH  33  34
ENDBRANCH  30  33
ENDBRANCH   7  29
BRANCH  13  36
HETATM   36  O   UNL     1      44.123 -12.265   4.683  1.00  0.00    -0.395 OA
HETATM   37  H   UNL     1      44.538 -11.547   4.170  1.00  0.00     0.210 HD
ENDBRANCH  13  36
TORSDOF 9
ENDMDL
MODEL 7
REMARK VINA RESULT:      -7.4      5.199     10.094
REMARK  9 active torsions:
REMARK  status: ('A' for Active; 'I' for Inactive)
REMARK    1  A    between atoms: C_3  and  C_4 
REMARK    2  A    between atoms: C_4  and  C_5 
REMARK       I    between atoms: C_5  and  N_6 
REMARK    3  A    between atoms: N_6  and  C_7 
REMARK    4  A    between atoms: C_16  and  N_17 
REMARK       I    between atoms: N_17  and  C_18 
REMARK    5  A    between atoms: C_18  and  C_19 
REMARK    6  A    between atoms: C_19  and  O_20 
REMARK    7  A    between atoms: C_26  and  C_27 
REMARK    8  A    between atoms: C_27  and  O_28 
REMARK    9  A    between atoms: C_30  and  O_31 
ROOT
HETATM    1  C   UNL     1      42.294  -5.583  11.285  1.00  0.00     0.016 C 
HETATM    2  C   UNL     1      41.283  -6.731  11.591  1.00  0.00    -0.030 C 
HETATM    3  C   UNL     1      41.101  -7.642  10.301  1.00  0.00     0.056 C 
HETATM    4  C   UNL     1      42.293  -8.559  10.132  1.00  0.00     0.056 A 
HETATM    5  C   UNL     1      43.197  -8.841  11.135  1.00  0.00     0.012 A 
HETATM    6  S   UNL     1      44.339  -9.989  10.604  1.00  0.00    -0.055 SA
HETATM    7  C   UNL     1      43.575  -9.998   9.078  1.00  0.00     0.174 A 
HETATM    8  N   UNL     1      42.527  -9.223   8.941  1.00  0.00    -0.227 NA
HETATM    9  C   UNL     1      43.212  -8.240  12.496  1.00  0.00     0.055 C 
HETATM   10  C   UNL     1      41.850  -7.564  12.822  1.00  0.00     0.012 C 
HETATM   11  C   UNL     1      40.815  -8.525  13.551  1.00  0.00     0.008 C 
HETATM   12  C   UNL     1      41.248  -8.602  15.048  1.00  0.00     0.020 C 
HETATM   13  C   UNL     1      39.374  -7.928  13.538  1.00  0.00     0.128 C 
HETATM   14  C   UNL     1      39.376  -6.419  13.330  1.00  0.00     0.033 C 
HETATM   15  C   UNL     1      39.925  -6.050  11.955  1.00  0.00     0.013 C 
ENDROOT
BRANCH   3  16
HETATM   16  C   UNL     1      40.814  -6.837   9.016  1.00  0.00     0.114 C 
BRANCH  16  17
HETATM   17  C   UNL     1      39.741  -7.461   8.143  1.00  0.00     0.218 C 
HETATM   18  N   UNL     1      40.189  -8.045   6.985  1.00  0.00    -0.356 N 
HETATM   19  H   UNL     1      41.169  -7.894   6.730  1.00  0.00     0.162 HD
HETATM   20  O   UNL     1      38.555  -7.410   8.463  1.00  0.00    -0.274 OA
BRANCH  18  21
HETATM   21  C   UNL     1      39.279  -8.452   5.938  1.00  0.00     0.084 C 
HETATM   22  C   UNL     1      39.766  -8.021   4.557  1.00  0.00     0.025 C 
HETATM   23  C   UNL     1      39.144  -9.014   3.578  1.00  0.00     0.002 C 
HETATM   24  C   UNL     1      38.586 -10.161   4.418  1.00  0.00     0.002 C 
HETATM   25  C   UNL     1      39.152  -9.965   5.816  1.00  0.00     0.025 C 
ENDBRANCH  18  21
ENDBRANCH  16  17
ENDBRANCH   3  16
BRANCH  11  26
HETATM   26  C   UNL     1      40.820  -9.980  13.011  1.00  0.00     0.176 C 
BRANCH  26  27
HETATM   27  O   UNL     1      39.804 -10.766  13.630  1.00  0.00    -0.400 OA
HETATM   28  H   UNL     1      40.209 -11.082  14.464  1.00  0.00     0.209 HD
ENDBRANCH  26  27
ENDBRANCH  11  26
BRANCH   7  29
HETATM   29  N   UNL     1      44.144 -10.841   8.172  1.00  0.00    -0.304 N 
HETATM   30  C   UNL     1      45.275 -10.512   7.460  1.00  0.00     0.247 C 
HETATM   31  O   UNL     1      45.977  -9.517   7.608  1.00  0.00    -0.271 OA
HETATM   32  H   UNL     1      43.698 -11.732   7.999  1.00  0.00     0.171 HD
BRANCH  30  33
HETATM   33  C   UNL     1      45.639 -11.599   6.445  1.00  0.00     0.270 C 
BRANCH  33  34
HETATM   34  O   UNL     1      45.390 -11.210   5.095  1.00  0.00    -0.387 OA
HETATM   35  C   UNL     1      44.072 -11.553   4.678  1.00  0.00     0.202 C 
ENDBRANCH  33  34
ENDBRANCH  30  33
ENDBRANCH   7  29
BRANCH  13  36
HETATM   36  O   UNL     1      38.584  -8.539  12.513  1.00  0.00    -0.395 OA
HETATM   37  H   UNL     1      39.066  -9.323  12.191  1.00  0.00     0.210 HD
ENDBRANCH  13  36
TORSDOF 9
ENDMDL
MODEL 8
REMARK VINA RESULT:      -7.4      7.160     11.047
REMARK  9 active torsions:
REMARK  status: ('A' for Active; 'I' for Inactive)
REMARK    1  A    between atoms: C_3  and  C_4 
REMARK    2  A    between atoms: C_4  and  C_5 
REMARK       I    between atoms: C_5  and  N_6 
REMARK    3  A    between atoms: N_6  and  C_7 
REMARK    4  A    between atoms: C_16  and  N_17 
REMARK       I    between atoms: N_17  and  C_18 
REMARK    5  A    between atoms: C_18  and  C_19 
REMARK    6  A    between atoms: C_19  and  O_20 
REMARK    7  A    between atoms: C_26  and  C_27 
REMARK    8  A    between atoms: C_27  and  O_28 
REMARK    9  A    between atoms: C_30  and  O_31 
ROOT
HETATM    1  C   UNL     1      39.192  -9.132  13.091  1.00  0.00     0.016 C 
HETATM    2  C   UNL     1      40.476  -8.263  13.267  1.00  0.00    -0.030 C 
HETATM    3  C   UNL     1      41.339  -8.306  11.933  1.00  0.00     0.056 C 
HETATM    4  C   UNL     1      40.722  -7.414  10.877  1.00  0.00     0.056 A 
HETATM    5  C   UNL     1      39.796  -6.427  11.148  1.00  0.00     0.012 A 
HETATM    6  S   UNL     1      39.409  -5.567   9.729  1.00  0.00    -0.055 SA
HETATM    7  C   UNL     1      40.466  -6.587   8.859  1.00  0.00     0.174 A 
HETATM    8  N   UNL     1      41.094  -7.508   9.548  1.00  0.00    -0.227 NA
HETATM    9  C   UNL     1      39.190  -6.133  12.474  1.00  0.00     0.055 C 
HETATM   10  C   UNL     1      40.018  -6.782  13.621  1.00  0.00     0.012 C 
HETATM   11  C   UNL     1      41.138  -5.828  14.222  1.00  0.00     0.008 C 
HETATM   12  C   UNL     1      40.414  -4.828  15.176  1.00  0.00     0.020 C 
HETATM   13  C   UNL     1      42.152  -6.623  15.102  1.00  0.00     0.128 C 
HETATM   14  C   UNL     1      41.575  -7.941  15.601  1.00  0.00     0.033 C 
HETATM   15  C   UNL     1      41.288  -8.893  14.444  1.00  0.00     0.013 C 
ENDROOT
BRANCH   3  16
HETATM   16  C   UNL     1      41.579  -9.735  11.402  1.00  0.00     0.114 C 
BRANCH  16  17
HETATM   17  C   UNL     1      43.032 -10.016  11.066  1.00  0.00     0.218 C 
HETATM   18  N   UNL     1      43.421  -9.672   9.797  1.00  0.00    -0.356 N 
HETATM   19  H   UNL     1      42.688  -9.394   9.138  1.00  0.00     0.162 HD
HETATM   20  O   UNL     1      43.781 -10.541  11.888  1.00  0.00    -0.274 OA
BRANCH  18  21
HETATM   21  C   UNL     1      44.686 -10.103   9.247  1.00  0.00     0.084 C 
HETATM   22  C   UNL     1      44.505 -10.990   8.017  1.00  0.00     0.025 C 
HETATM   23  C   UNL     1      45.784 -10.820   7.200  1.00  0.00     0.002 C 
HETATM   24  C   UNL     1      46.526  -9.626   7.797  1.00  0.00     0.002 C 
HETATM   25  C   UNL     1      45.536  -8.949   8.732  1.00  0.00     0.025 C 
ENDBRANCH  18  21
ENDBRANCH  16  17
ENDBRANCH   3  16
BRANCH  11  26
HETATM   26  C   UNL     1      41.874  -4.974  13.157  1.00  0.00     0.176 C 
BRANCH  26  27
HETATM   27  O   UNL     1      42.654  -3.945  13.765  1.00  0.00    -0.400 OA
HETATM   28  H   UNL     1      42.752  -3.265  13.067  1.00  0.00     0.209 HD
ENDBRANCH  26  27
ENDBRANCH  11  26
BRANCH   7  29
HETATM   29  N   UNL     1      40.547  -6.305   7.529  1.00  0.00    -0.304 N 
HETATM   30  C   UNL     1      41.734  -6.329   6.835  1.00  0.00     0.247 C 
HETATM   31  O   UNL     1      42.825  -6.705   7.252  1.00  0.00    -0.271 OA
HETATM   32  H   UNL     1      39.700  -6.040   7.042  1.00  0.00     0.171 HD
BRANCH  30  33
HETATM   33  C   UNL     1      41.550  -5.877   5.384  1.00  0.00     0.270 C 
BRANCH  33  34
HETATM   34  O   UNL     1      42.441  -4.828   5.007  1.00  0.00    -0.387 OA
HETATM   35  C   UNL     1      42.698  -4.828   3.605  1.00  0.00     0.202 C 
ENDBRANCH  33  34
ENDBRANCH  30  33
ENDBRANCH   7  29
BRANCH  13  36
HETATM   36  O   UNL     1      43.354  -6.886  14.373  1.00  0.00    -0.395 OA
HETATM   37  H   UNL     1      43.928  -6.101  14.448  1.00  0.00     0.210 HD
ENDBRANCH  13  36
TORSDOF 9
ENDMDL
MODEL 9
REMARK VINA RESULT:      -7.2      3.563      6.362
REMARK  9 active torsions:
REMARK  status: ('A' for Active; 'I' for Inactive)
REMARK    1  A    between atoms: C_3  and  C_4 
REMARK    2  A    between atoms: C_4  and  C_5 
REMARK       I    between atoms: C_5  and  N_6 
REMARK    3  A    between atoms: N_6  and  C_7 
REMARK    4  A    between atoms: C_16  and  N_17 
REMARK       I    between atoms: N_17  and  C_18 
REMARK    5  A    between atoms: C_18  and  C_19 
REMARK    6  A    between atoms: C_19  and  O_20 
REMARK    7  A    between atoms: C_26  and  C_27 
REMARK    8  A    between atoms: C_27  and  O_28 
REMARK    9  A    between atoms: C_30  and  O_31 
ROOT
HETATM    1  C   UNL     1      39.090 -14.835   2.813  1.00  0.00     0.016 C 
HETATM    2  C   UNL     1      40.363 -14.100   3.335  1.00  0.00    -0.030 C 
HETATM    3  C   UNL     1      41.301 -13.719   2.109  1.00  0.00     0.056 C 
HETATM    4  C   UNL     1      40.747 -12.517   1.375  1.00  0.00     0.056 A 
HETATM    5  C   UNL     1      39.809 -11.655   1.907  1.00  0.00     0.012 A 
HETATM    6  S   UNL     1      39.506 -10.367   0.832  1.00  0.00    -0.055 SA
HETATM    7  C   UNL     1      40.608 -11.066  -0.268  1.00  0.00     0.174 A 
HETATM    8  N   UNL     1      41.194 -12.175   0.112  1.00  0.00    -0.227 NA
HETATM    9  C   UNL     1      39.129 -11.802   3.221  1.00  0.00     0.055 C 
HETATM   10  C   UNL     1      39.888 -12.809   4.132  1.00  0.00     0.012 C 
HETATM   11  C   UNL     1      40.973 -12.130   5.073  1.00  0.00     0.008 C 
HETATM   12  C   UNL     1      40.198 -11.485   6.264  1.00  0.00     0.020 C 
HETATM   13  C   UNL     1      41.934 -13.191   5.695  1.00  0.00     0.128 C 
HETATM   14  C   UNL     1      41.327 -14.588   5.699  1.00  0.00     0.033 C 
HETATM   15  C   UNL     1      41.105 -15.099   4.279  1.00  0.00     0.013 C 
ENDROOT
BRANCH   3  16
HETATM   16  C   UNL     1      41.568 -14.898   1.149  1.00  0.00     0.114 C 
BRANCH  16  17
HETATM   17  C   UNL     1      42.776 -15.730   1.541  1.00  0.00     0.218 C 
HETATM   18  N   UNL     1      42.513 -17.039   1.855  1.00  0.00    -0.356 N 
HETATM   19  H   UNL     1      41.531 -17.315   1.942  1.00  0.00     0.162 HD
HETATM   20  O   UNL     1      43.899 -15.232   1.588  1.00  0.00    -0.274 OA
BRANCH  18  21
HETATM   21  C   UNL     1      43.504 -17.883   2.484  1.00  0.00     0.084 C 
HETATM   22  C   UNL     1      43.511 -17.725   4.003  1.00  0.00     0.025 C 
HETATM   23  C   UNL     1      44.055 -19.043   4.546  1.00  0.00     0.002 C 
HETATM   24  C   UNL     1      44.053 -20.029   3.380  1.00  0.00     0.002 C 
HETATM   25  C   UNL     1      43.237 -19.368   2.280  1.00  0.00     0.025 C 
ENDBRANCH  18  21
ENDBRANCH  16  17
ENDBRANCH   3  16
BRANCH  11  26
HETATM   26  C   UNL     1      41.772 -10.988   4.390  1.00  0.00     0.176 C 
BRANCH  26  27
HETATM   27  O   UNL     1      42.696 -10.388   5.296  1.00  0.00    -0.400 OA
HETATM   28  H   UNL     1      42.137  -9.996   5.997  1.00  0.00     0.209 HD
ENDBRANCH  26  27
ENDBRANCH  11  26
BRANCH   7  29
HETATM   29  N   UNL     1      40.766 -10.363  -1.424  1.00  0.00    -0.304 N 
HETATM   30  C   UNL     1      41.727  -9.390  -1.577  1.00  0.00     0.247 C 
HETATM   31  O   UNL     1      42.619  -9.104  -0.786  1.00  0.00    -0.271 OA
HETATM   32  H   UNL     1      40.130 -10.548  -2.188  1.00  0.00     0.171 HD
BRANCH  30  33
HETATM   33  C   UNL     1      41.616  -8.696  -2.937  1.00  0.00     0.270 C 
BRANCH  33  34
HETATM   34  O   UNL     1      42.253  -7.419  -2.967  1.00  0.00    -0.387 OA
HETATM   35  C   UNL     1      42.866  -7.162  -4.228  1.00  0.00     0.202 C 
ENDBRANCH  33  34
ENDBRANCH  30  33
ENDBRANCH   7  29
BRANCH  13  36
HETATM   36  O   UNL     1      43.176 -13.224   4.985  1.00  0.00    -0.395 OA
HETATM   37  H   UNL     1      43.009 -13.617   4.108  1.00  0.00     0.210 HD
ENDBRANCH  13  36
TORSDOF 9
ENDMDL
MODEL 10
REMARK VINA RESULT:      -7.1      5.398     11.097
REMARK  9 active torsions:
REMARK  status: ('A' for Active; 'I' for Inactive)
REMARK    1  A    between atoms: C_3  and  C_4 
REMARK    2  A    between atoms: C_4  and  C_5 
REMARK       I    between atoms: C_5  and  N_6 
REMARK    3  A    between atoms: N_6  and  C_7 
REMARK    4  A    between atoms: C_16  and  N_17 
REMARK       I    between atoms: N_17  and  C_18 
REMARK    5  A    between atoms: C_18  and  C_19 
REMARK    6  A    between atoms: C_19  and  O_20 
REMARK    7  A    between atoms: C_26  and  C_27 
REMARK    8  A    between atoms: C_27  and  O_28 
REMARK    9  A    between atoms: C_30  and  O_31 
ROOT
HETATM    1  C   UNL     1      42.302  -5.580  11.249  1.00  0.00     0.016 C 
HETATM    2  C   UNL     1      41.297  -6.732  11.560  1.00  0.00    -0.030 C 
HETATM    3  C   UNL     1      41.118  -7.647  10.272  1.00  0.00     0.056 C 
HETATM    4  C   UNL     1      42.313  -8.559  10.103  1.00  0.00     0.056 A 
HETATM    5  C   UNL     1      43.220  -8.834  11.107  1.00  0.00     0.012 A 
HETATM    6  S   UNL     1      44.366  -9.978  10.578  1.00  0.00    -0.055 SA
HETATM    7  C   UNL     1      43.601  -9.995   9.052  1.00  0.00     0.174 A 
HETATM    8  N   UNL     1      42.549  -9.225   8.914  1.00  0.00    -0.227 NA
HETATM    9  C   UNL     1      43.233  -8.230  12.466  1.00  0.00     0.055 C 
HETATM   10  C   UNL     1      41.868  -7.559  12.792  1.00  0.00     0.012 C 
HETATM   11  C   UNL     1      40.839  -8.523  13.524  1.00  0.00     0.008 C 
HETATM   12  C   UNL     1      41.273  -8.594  15.021  1.00  0.00     0.020 C 
HETATM   13  C   UNL     1      39.395  -7.932  13.511  1.00  0.00     0.128 C 
HETATM   14  C   UNL     1      39.390  -6.423  13.299  1.00  0.00     0.033 C 
HETATM   15  C   UNL     1      39.936  -6.056  11.923  1.00  0.00     0.013 C 
ENDROOT
BRANCH   3  16
HETATM   16  C   UNL     1      40.825  -6.846   8.985  1.00  0.00     0.114 C 
BRANCH  16  17
HETATM   17  C   UNL     1      39.416  -7.044   8.460  1.00  0.00     0.218 C 
HETATM   18  N   UNL     1      38.943  -6.046   7.647  1.00  0.00    -0.356 N 
HETATM   19  H   UNL     1      39.505  -5.193   7.574  1.00  0.00     0.162 HD
HETATM   20  O   UNL     1      38.755  -8.031   8.778  1.00  0.00    -0.274 OA
BRANCH  18  21
HETATM   21  C   UNL     1      37.548  -5.963   7.278  1.00  0.00     0.084 C 
HETATM   22  C   UNL     1      37.039  -4.523   7.280  1.00  0.00     0.025 C 
HETATM   23  C   UNL     1      35.871  -4.503   6.297  1.00  0.00     0.002 C 
HETATM   24  C   UNL     1      35.928  -5.821   5.527  1.00  0.00     0.002 C 
HETATM   25  C   UNL     1      37.280  -6.435   5.856  1.00  0.00     0.025 C 
ENDBRANCH  18  21
ENDBRANCH  16  17
ENDBRANCH   3  16
BRANCH  11  26
HETATM   26  C   UNL     1      40.850  -9.979  12.988  1.00  0.00     0.176 C 
BRANCH  26  27
HETATM   27  O   UNL     1      39.836 -10.768  13.609  1.00  0.00    -0.400 OA
HETATM   28  H   UNL     1      39.554 -11.398  12.915  1.00  0.00     0.209 HD
ENDBRANCH  26  27
ENDBRANCH  11  26
BRANCH   7  29
HETATM   29  N   UNL     1      44.173 -10.837   8.148  1.00  0.00    -0.304 N 
HETATM   30  C   UNL     1      45.322 -10.520   7.461  1.00  0.00     0.247 C 
HETATM   31  O   UNL     1      46.038  -9.539   7.633  1.00  0.00    -0.271 OA
HETATM   32  H   UNL     1      43.716 -11.719   7.957  1.00  0.00     0.171 HD
BRANCH  30  33
HETATM   33  C   UNL     1      45.688 -11.602   6.441  1.00  0.00     0.270 C 
BRANCH  33  34
HETATM   34  O   UNL     1      45.437 -11.207   5.093  1.00  0.00    -0.387 OA
HETATM   35  C   UNL     1      44.110 -11.527   4.684  1.00  0.00     0.202 C 
ENDBRANCH  33  34
ENDBRANCH  30  33
ENDBRANCH   7  29
BRANCH  13  36
HETATM   36  O   UNL     1      38.607  -8.549  12.488  1.00  0.00    -0.395 OA
HETATM   37  H   UNL     1      38.674  -8.000  11.685  1.00  0.00     0.210 HD
ENDBRANCH  13  36
TORSDOF 9
ENDMDL
