MODEL 1
REMARK VINA RESULT:      -9.1      0.000      0.000
REMARK  3 active torsions:
REMARK  status: ('A' for Active; 'I' for Inactive)
REMARK    1  A    between atoms: C_2  and  N_3 
REMARK       I    between atoms: N_3  and  C_4 
REMARK    2  A    between atoms: C_4  and  C_5 
REMARK    3  A    between atoms: C_20  and  C_21 
REMARK       I    between atoms: C_21  and  N_22 
ROOT
HETATM    1  C   UNL     1      40.411 -12.713   1.118  1.00  0.00     0.032 A 
HETATM    2  C   UNL     1      40.630 -14.031   0.712  1.00  0.00     0.036 A 
HETATM    3  C   UNL     1      40.002 -14.508  -0.452  1.00  0.00     0.046 A 
HETATM    4  C   UNL     1      39.158 -13.656  -1.193  1.00  0.00     0.030 A 
HETATM    5  C   UNL     1      38.963 -12.356  -0.749  1.00  0.00     0.063 A 
HETATM    6  N   UNL     1      38.107 -11.789  -1.652  1.00  0.00    -0.277 N 
HETATM    7  H   UNL     1      37.742 -10.844  -1.640  1.00  0.00     0.189 HD
HETATM    8  N   UNL     1      37.734 -12.606  -2.653  1.00  0.00    -0.168 NA
HETATM    9  C   UNL     1      38.378 -13.763  -2.382  1.00  0.00     0.156 A 
HETATM   10  C   UNL     1      39.571 -11.848   0.400  1.00  0.00     0.034 A 
ENDROOT
BRANCH   2  11
HETATM   11  N   UNL     1      41.458 -14.944   1.403  1.00  0.00    -0.323 N 
HETATM   12  C   UNL     1      41.084 -15.821   2.405  1.00  0.00     0.256 C 
HETATM   13  O   UNL     1      39.956 -15.991   2.852  1.00  0.00    -0.267 OA
HETATM   14  H   UNL     1      42.412 -14.984   1.070  1.00  0.00     0.169 HD
BRANCH  12  15
HETATM   15  C   UNL     1      42.176 -16.662   2.966  1.00  0.00     0.038 A 
HETATM   16  C   UNL     1      42.876 -16.308   4.117  1.00  0.00     0.061 A 
HETATM   17  C   UNL     1      43.865 -17.172   4.549  1.00  0.00     0.128 A 
HETATM   18 CL   UNL     1      44.785 -16.816   5.952  1.00  0.00    -0.062 Cl
HETATM   19  N   UNL     1      44.193 -18.327   3.945  1.00  0.00    -0.225 NA
HETATM   20  C   UNL     1      43.479 -18.645   2.851  1.00  0.00     0.128 A 
HETATM   21 CL   UNL     1      43.916 -20.132   2.120  1.00  0.00    -0.062 Cl
HETATM   22  C   UNL     1      42.471 -17.866   2.322  1.00  0.00     0.061 A 
ENDBRANCH  12  15
ENDBRANCH   2  11
BRANCH   9  23
HETATM   23  C   UNL     1      38.245 -14.941  -3.251  1.00  0.00     0.270 C 
HETATM   24  N   UNL     1      38.239 -16.133  -2.580  1.00  0.00    -0.365 N 
HETATM   25  H   UNL     1      38.320 -16.122  -1.571  1.00  0.00     0.159 HD
HETATM   26  H   UNL     1      38.146 -16.997  -3.090  1.00  0.00     0.159 HD
HETATM   27  O   UNL     1      38.143 -14.891  -4.473  1.00  0.00    -0.266 OA
ENDBRANCH   9  23
TORSDOF 3
ENDMDL
MODEL 2
REMARK VINA RESULT:      -9.0      0.252      1.822
REMARK  3 active torsions:
REMARK  status: ('A' for Active; 'I' for Inactive)
REMARK    1  A    between atoms: C_2  and  N_3 
REMARK       I    between atoms: N_3  and  C_4 
REMARK    2  A    between atoms: C_4  and  C_5 
REMARK    3  A    between atoms: C_20  and  C_21 
REMARK       I    between atoms: C_21  and  N_22 
ROOT
HETATM    1  C   UNL     1      40.792 -12.712   0.882  1.00  0.00     0.032 A 
HETATM    2  C   UNL     1      40.865 -14.060   0.523  1.00  0.00     0.036 A 
HETATM    3  C   UNL     1      40.150 -14.516  -0.598  1.00  0.00     0.046 A 
HETATM    4  C   UNL     1      39.365 -13.613  -1.344  1.00  0.00     0.030 A 
HETATM    5  C   UNL     1      39.315 -12.284  -0.948  1.00  0.00     0.063 A 
HETATM    6  N   UNL     1      38.485 -11.670  -1.844  1.00  0.00    -0.277 N 
HETATM    7  H   UNL     1      38.215 -10.693  -1.859  1.00  0.00     0.189 HD
HETATM    8  N   UNL     1      37.997 -12.483  -2.797  1.00  0.00    -0.168 NA
HETATM    9  C   UNL     1      38.534 -13.687  -2.500  1.00  0.00     0.156 A 
HETATM   10  C   UNL     1      40.014 -11.796   0.157  1.00  0.00     0.034 A 
ENDROOT
BRANCH   2  11
HETATM   11  N   UNL     1      41.626 -15.024   1.222  1.00  0.00    -0.323 N 
HETATM   12  C   UNL     1      41.205 -15.826   2.267  1.00  0.00     0.256 C 
HETATM   13  O   UNL     1      40.082 -15.873   2.753  1.00  0.00    -0.267 OA
HETATM   14  H   UNL     1      42.561 -15.166   0.862  1.00  0.00     0.169 HD
BRANCH  12  15
HETATM   15  C   UNL     1      42.231 -16.749   2.825  1.00  0.00     0.038 A 
HETATM   16  C   UNL     1      42.551 -17.964   2.223  1.00  0.00     0.061 A 
HETATM   17  C   UNL     1      43.527 -18.734   2.827  1.00  0.00     0.128 A 
HETATM   18 CL   UNL     1      43.981 -20.248   2.162  1.00  0.00    -0.062 Cl
HETATM   19  N   UNL     1      44.190 -18.393   3.946  1.00  0.00    -0.225 NA
HETATM   20  C   UNL     1      43.869 -17.203   4.484  1.00  0.00     0.128 A 
HETATM   21 CL   UNL     1      44.749 -16.798   5.898  1.00  0.00    -0.062 Cl
HETATM   22  C   UNL     1      42.914 -16.348   3.975  1.00  0.00     0.061 A 
ENDBRANCH  12  15
ENDBRANCH   2  11
BRANCH   9  23
HETATM   23  C   UNL     1      38.253 -14.878  -3.314  1.00  0.00     0.270 C 
HETATM   24  N   UNL     1      38.227 -16.047  -2.605  1.00  0.00    -0.365 N 
HETATM   25  H   UNL     1      38.393 -16.013  -1.607  1.00  0.00     0.159 HD
HETATM   26  H   UNL     1      38.036 -16.918  -3.076  1.00  0.00     0.159 HD
HETATM   27  O   UNL     1      38.053 -14.857  -4.525  1.00  0.00    -0.266 OA
ENDBRANCH   9  23
TORSDOF 3
ENDMDL
MODEL 3
REMARK VINA RESULT:      -8.8      3.627      7.987
REMARK  3 active torsions:
REMARK  status: ('A' for Active; 'I' for Inactive)
REMARK    1  A    between atoms: C_2  and  N_3 
REMARK       I    between atoms: N_3  and  C_4 
REMARK    2  A    between atoms: C_4  and  C_5 
REMARK    3  A    between atoms: C_20  and  C_21 
REMARK       I    between atoms: C_21  and  N_22 
ROOT
HETATM    1  C   UNL     1      42.743 -14.926   3.466  1.00  0.00     0.032 A 
HETATM    2  C   UNL     1      42.483 -15.642   2.296  1.00  0.00     0.036 A 
HETATM    3  C   UNL     1      42.799 -17.011   2.241  1.00  0.00     0.046 A 
HETATM    4  C   UNL     1      43.378 -17.644   3.360  1.00  0.00     0.030 A 
HETATM    5  C   UNL     1      43.626 -16.892   4.499  1.00  0.00     0.063 A 
HETATM    6  N   UNL     1      44.186 -17.762   5.393  1.00  0.00    -0.277 N 
HETATM    7  H   UNL     1      44.498 -17.556   6.335  1.00  0.00     0.189 HD
HETATM    8  N   UNL     1      44.314 -19.020   4.937  1.00  0.00    -0.168 NA
HETATM    9  C   UNL     1      43.818 -18.961   3.682  1.00  0.00     0.156 A 
HETATM   10  C   UNL     1      43.323 -15.532   4.591  1.00  0.00     0.034 A 
ENDROOT
BRANCH   2  11
HETATM   11  N   UNL     1      41.909 -15.079   1.134  1.00  0.00    -0.323 N 
HETATM   12  C   UNL     1      40.582 -14.745   0.934  1.00  0.00     0.256 C 
HETATM   13  O   UNL     1      39.667 -14.844   1.742  1.00  0.00    -0.267 OA
HETATM   14  H   UNL     1      42.571 -14.850   0.405  1.00  0.00     0.169 HD
BRANCH  12  15
HETATM   15  C   UNL     1      40.256 -14.176  -0.403  1.00  0.00     0.038 A 
HETATM   16  C   UNL     1      39.413 -14.823  -1.305  1.00  0.00     0.061 A 
HETATM   17  C   UNL     1      39.176 -14.195  -2.513  1.00  0.00     0.128 A 
HETATM   18 CL   UNL     1      38.158 -14.919  -3.688  1.00  0.00    -0.062 Cl
HETATM   19  N   UNL     1      39.692 -13.009  -2.876  1.00  0.00    -0.225 NA
HETATM   20  C   UNL     1      40.482 -12.406  -1.970  1.00  0.00     0.128 A 
HETATM   21 CL   UNL     1      41.106 -10.888  -2.464  1.00  0.00    -0.062 Cl
HETATM   22  C   UNL     1      40.794 -12.931  -0.733  1.00  0.00     0.061 A 
ENDBRANCH  12  15
ENDBRANCH   2  11
BRANCH   9  23
HETATM   23  C   UNL     1      43.767 -20.148   2.817  1.00  0.00     0.270 C 
HETATM   24  N   UNL     1      43.988 -21.328   3.472  1.00  0.00    -0.365 N 
HETATM   25  H   UNL     1      44.161 -21.305   4.470  1.00  0.00     0.159 HD
HETATM   26  H   UNL     1      43.967 -22.198   2.963  1.00  0.00     0.159 HD
HETATM   27  O   UNL     1      43.546 -20.116   1.610  1.00  0.00    -0.266 OA
ENDBRANCH   9  23
TORSDOF 3
ENDMDL
MODEL 4
REMARK VINA RESULT:      -8.8      3.658      7.814
REMARK  3 active torsions:
REMARK  status: ('A' for Active; 'I' for Inactive)
REMARK    1  A    between atoms: C_2  and  N_3 
REMARK       I    between atoms: N_3  and  C_4 
REMARK    2  A    between atoms: C_4  and  C_5 
REMARK    3  A    between atoms: C_20  and  C_21 
REMARK       I    between atoms: C_21  and  N_22 
ROOT
HETATM    1  C   UNL     1      42.731 -14.860   3.325  1.00  0.00     0.032 A 
HETATM    2  C   UNL     1      42.470 -15.593   2.166  1.00  0.00     0.036 A 
HETATM    3  C   UNL     1      42.773 -16.965   2.133  1.00  0.00     0.046 A 
HETATM    4  C   UNL     1      43.342 -17.585   3.264  1.00  0.00     0.030 A 
HETATM    5  C   UNL     1      43.592 -16.817   4.393  1.00  0.00     0.063 A 
HETATM    6  N   UNL     1      44.139 -17.678   5.303  1.00  0.00    -0.277 N 
HETATM    7  H   UNL     1      44.450 -17.461   6.243  1.00  0.00     0.189 HD
HETATM    8  N   UNL     1      44.259 -18.945   4.867  1.00  0.00    -0.168 NA
HETATM    9  C   UNL     1      43.769 -18.901   3.609  1.00  0.00     0.156 A 
HETATM   10  C   UNL     1      43.300 -15.454   4.462  1.00  0.00     0.034 A 
ENDROOT
BRANCH   2  11
HETATM   11  N   UNL     1      41.906 -15.042   0.992  1.00  0.00    -0.323 N 
HETATM   12  C   UNL     1      40.604 -14.612   0.811  1.00  0.00     0.256 C 
HETATM   13  O   UNL     1      39.711 -14.596   1.648  1.00  0.00    -0.267 OA
HETATM   14  H   UNL     1      42.562 -14.904   0.234  1.00  0.00     0.169 HD
BRANCH  12  15
HETATM   15  C   UNL     1      40.283 -14.086  -0.544  1.00  0.00     0.038 A 
HETATM   16  C   UNL     1      40.824 -12.898  -1.032  1.00  0.00     0.061 A 
HETATM   17  C   UNL     1      40.459 -12.513  -2.308  1.00  0.00     0.128 A 
HETATM   18 CL   UNL     1      41.069 -11.062  -2.990  1.00  0.00    -0.062 Cl
HETATM   19  N   UNL     1      39.630 -13.201  -3.111  1.00  0.00    -0.225 NA
HETATM   20  C   UNL     1      39.147 -14.353  -2.612  1.00  0.00     0.128 A 
HETATM   21 CL   UNL     1      38.106 -15.209  -3.672  1.00  0.00    -0.062 Cl
HETATM   22  C   UNL     1      39.435 -14.842  -1.355  1.00  0.00     0.061 A 
ENDBRANCH  12  15
ENDBRANCH   2  11
BRANCH   9  23
HETATM   23  C   UNL     1      43.711 -20.101   2.762  1.00  0.00     0.270 C 
HETATM   24  N   UNL     1      44.008 -21.264   3.419  1.00  0.00    -0.365 N 
HETATM   25  H   UNL     1      44.235 -21.220   4.405  1.00  0.00     0.159 HD
HETATM   26  H   UNL     1      43.989 -22.141   2.922  1.00  0.00     0.159 HD
HETATM   27  O   UNL     1      43.424 -20.093   1.569  1.00  0.00    -0.266 OA
ENDBRANCH   9  23
TORSDOF 3
ENDMDL
MODEL 5
REMARK VINA RESULT:      -8.6      3.540      8.261
REMARK  3 active torsions:
REMARK  status: ('A' for Active; 'I' for Inactive)
REMARK    1  A    between atoms: C_2  and  N_3 
REMARK       I    between atoms: N_3  and  C_4 
REMARK    2  A    between atoms: C_4  and  C_5 
REMARK    3  A    between atoms: C_20  and  C_21 
REMARK       I    between atoms: C_21  and  N_22 
ROOT
HETATM    1  C   UNL     1      43.313 -17.428   2.070  1.00  0.00     0.032 A 
HETATM    2  C   UNL     1      42.568 -16.312   2.458  1.00  0.00     0.036 A 
HETATM    3  C   UNL     1      42.331 -16.081   3.825  1.00  0.00     0.046 A 
HETATM    4  C   UNL     1      42.839 -16.978   4.786  1.00  0.00     0.030 A 
HETATM    5  C   UNL     1      43.567 -18.078   4.356  1.00  0.00     0.063 A 
HETATM    6  N   UNL     1      43.913 -18.752   5.495  1.00  0.00    -0.277 N 
HETATM    7  H   UNL     1      44.448 -19.610   5.561  1.00  0.00     0.189 HD
HETATM    8  N   UNL     1      43.481 -18.178   6.632  1.00  0.00    -0.168 NA
HETATM    9  C   UNL     1      42.817 -17.081   6.209  1.00  0.00     0.156 A 
HETATM   10  C   UNL     1      43.825 -18.337   3.009  1.00  0.00     0.034 A 
ENDROOT
BRANCH   2  11
HETATM   11  N   UNL     1      42.023 -15.372   1.555  1.00  0.00    -0.323 N 
HETATM   12  C   UNL     1      40.715 -15.296   1.113  1.00  0.00     0.256 C 
HETATM   13  O   UNL     1      39.780 -16.010   1.454  1.00  0.00    -0.267 OA
HETATM   14  H   UNL     1      42.667 -14.649   1.258  1.00  0.00     0.169 HD
BRANCH  12  15
HETATM   15  C   UNL     1      40.424 -14.203   0.145  1.00  0.00     0.038 A 
HETATM   16  C   UNL     1      41.022 -12.947   0.234  1.00  0.00     0.061 A 
HETATM   17  C   UNL     1      40.681 -12.014  -0.727  1.00  0.00     0.128 A 
HETATM   18 CL   UNL     1      41.360 -10.439  -0.694  1.00  0.00    -0.062 Cl
HETATM   19  N   UNL     1      39.824 -12.231  -1.739  1.00  0.00    -0.225 NA
HETATM   20  C   UNL     1      39.287 -13.462  -1.803  1.00  0.00     0.128 A 
HETATM   21 CL   UNL     1      38.213 -13.705  -3.118  1.00  0.00    -0.062 Cl
HETATM   22  C   UNL     1      39.546 -14.477  -0.905  1.00  0.00     0.061 A 
ENDBRANCH  12  15
ENDBRANCH   2  11
BRANCH   9  23
HETATM   23  C   UNL     1      42.179 -16.154   7.154  1.00  0.00     0.270 C 
HETATM   24  N   UNL     1      42.977 -15.788   8.203  1.00  0.00    -0.365 N 
HETATM   25  H   UNL     1      43.916 -16.164   8.253  1.00  0.00     0.159 HD
HETATM   26  H   UNL     1      42.629 -15.150   8.902  1.00  0.00     0.159 HD
HETATM   27  O   UNL     1      41.035 -15.725   7.037  1.00  0.00    -0.266 OA
ENDBRANCH   9  23
TORSDOF 3
ENDMDL
MODEL 6
REMARK VINA RESULT:      -8.5      3.779      8.351
REMARK  3 active torsions:
REMARK  status: ('A' for Active; 'I' for Inactive)
REMARK    1  A    between atoms: C_2  and  N_3 
REMARK       I    between atoms: N_3  and  C_4 
REMARK    2  A    between atoms: C_4  and  C_5 
REMARK    3  A    between atoms: C_20  and  C_21 
REMARK       I    between atoms: C_21  and  N_22 
ROOT
HETATM    1  C   UNL     1      43.011 -17.254   2.108  1.00  0.00     0.032 A 
HETATM    2  C   UNL     1      42.543 -15.940   2.177  1.00  0.00     0.036 A 
HETATM    3  C   UNL     1      42.676 -15.222   3.379  1.00  0.00     0.046 A 
HETATM    4  C   UNL     1      43.272 -15.835   4.500  1.00  0.00     0.030 A 
HETATM    5  C   UNL     1      43.715 -17.145   4.390  1.00  0.00     0.063 A 
HETATM    6  N   UNL     1      44.229 -17.459   5.617  1.00  0.00    -0.277 N 
HETATM    7  H   UNL     1      44.640 -18.341   5.902  1.00  0.00     0.189 HD
HETATM    8  N   UNL     1      44.167 -16.462   6.517  1.00  0.00    -0.168 NA
HETATM    9  C   UNL     1      43.579 -15.452   5.839  1.00  0.00     0.156 A 
HETATM   10  C   UNL     1      43.603 -17.887   3.212  1.00  0.00     0.034 A 
ENDROOT
BRANCH   2  11
HETATM   11  N   UNL     1      41.933 -15.259   1.100  1.00  0.00    -0.323 N 
HETATM   12  C   UNL     1      40.579 -15.067   0.891  1.00  0.00     0.256 C 
HETATM   13  O   UNL     1      39.663 -15.421   1.623  1.00  0.00    -0.267 OA
HETATM   14  H   UNL     1      42.579 -14.824   0.455  1.00  0.00     0.169 HD
BRANCH  12  15
HETATM   15  C   UNL     1      40.218 -14.320  -0.345  1.00  0.00     0.038 A 
HETATM   16  C   UNL     1      39.412 -14.868  -1.341  1.00  0.00     0.061 A 
HETATM   17  C   UNL     1      39.137 -14.077  -2.441  1.00  0.00     0.128 A 
HETATM   18 CL   UNL     1      38.161 -14.669  -3.720  1.00  0.00    -0.062 Cl
HETATM   19  N   UNL     1      39.583 -12.821  -2.614  1.00  0.00    -0.225 NA
HETATM   20  C   UNL     1      40.338 -12.320  -1.620  1.00  0.00     0.128 A 
HETATM   21 CL   UNL     1      40.873 -10.711  -1.871  1.00  0.00    -0.062 Cl
HETATM   22  C   UNL     1      40.683 -13.010  -0.476  1.00  0.00     0.061 A 
ENDBRANCH  12  15
ENDBRANCH   2  11
BRANCH   9  23
HETATM   23  C   UNL     1      43.322 -14.149   6.468  1.00  0.00     0.270 C 
HETATM   24  N   UNL     1      42.011 -13.933   6.794  1.00  0.00    -0.365 N 
HETATM   25  H   UNL     1      41.335 -14.659   6.591  1.00  0.00     0.159 HD
HETATM   26  H   UNL     1      41.737 -13.069   7.236  1.00  0.00     0.159 HD
HETATM   27  O   UNL     1      44.186 -13.308   6.695  1.00  0.00    -0.266 OA
ENDBRANCH   9  23
TORSDOF 3
ENDMDL
MODEL 7
REMARK VINA RESULT:      -8.3      2.236      3.722
REMARK  3 active torsions:
REMARK  status: ('A' for Active; 'I' for Inactive)
REMARK    1  A    between atoms: C_2  and  N_3 
REMARK       I    between atoms: N_3  and  C_4 
REMARK    2  A    between atoms: C_4  and  C_5 
REMARK    3  A    between atoms: C_20  and  C_21 
REMARK       I    between atoms: C_21  and  N_22 
ROOT
HETATM    1  C   UNL     1      39.734 -14.644  -0.541  1.00  0.00     0.032 A 
HETATM    2  C   UNL     1      40.827 -14.294   0.253  1.00  0.00     0.036 A 
HETATM    3  C   UNL     1      41.227 -12.948   0.323  1.00  0.00     0.046 A 
HETATM    4  C   UNL     1      40.526 -11.969  -0.411  1.00  0.00     0.030 A 
HETATM    5  C   UNL     1      39.450 -12.362  -1.194  1.00  0.00     0.063 A 
HETATM    6  N   UNL     1      38.988 -11.216  -1.778  1.00  0.00    -0.277 N 
HETATM    7  H   UNL     1      38.209 -11.126  -2.420  1.00  0.00     0.189 HD
HETATM    8  N   UNL     1      39.665 -10.106  -1.435  1.00  0.00    -0.168 NA
HETATM    9  C   UNL     1      40.618 -10.557  -0.589  1.00  0.00     0.156 A 
HETATM   10  C   UNL     1      39.024 -13.688  -1.285  1.00  0.00     0.034 A 
ENDROOT
BRANCH   2  11
HETATM   11  N   UNL     1      41.581 -15.217   1.014  1.00  0.00    -0.323 N 
HETATM   12  C   UNL     1      41.240 -15.772   2.233  1.00  0.00     0.256 C 
HETATM   13  O   UNL     1      40.203 -15.593   2.860  1.00  0.00    -0.267 OA
HETATM   14  H   UNL     1      42.432 -15.535   0.569  1.00  0.00     0.169 HD
BRANCH  12  15
HETATM   15  C   UNL     1      42.238 -16.711   2.815  1.00  0.00     0.038 A 
HETATM   16  C   UNL     1      42.540 -17.938   2.228  1.00  0.00     0.061 A 
HETATM   17  C   UNL     1      43.490 -18.723   2.854  1.00  0.00     0.128 A 
HETATM   18 CL   UNL     1      43.922 -20.253   2.209  1.00  0.00    -0.062 Cl
HETATM   19  N   UNL     1      44.145 -18.387   3.978  1.00  0.00    -0.225 NA
HETATM   20  C   UNL     1      43.842 -17.185   4.501  1.00  0.00     0.128 A 
HETATM   21 CL   UNL     1      44.710 -16.786   5.924  1.00  0.00    -0.062 Cl
HETATM   22  C   UNL     1      42.913 -16.314   3.971  1.00  0.00     0.061 A 
ENDBRANCH  12  15
ENDBRANCH   2  11
BRANCH   9  23
HETATM   23  C   UNL     1      41.590  -9.647   0.032  1.00  0.00     0.270 C 
HETATM   24  N   UNL     1      41.410  -9.469   1.376  1.00  0.00    -0.365 N 
HETATM   25  H   UNL     1      40.651  -9.959   1.834  1.00  0.00     0.159 HD
HETATM   26  H   UNL     1      42.032  -8.867   1.893  1.00  0.00     0.159 HD
HETATM   27  O   UNL     1      42.497  -9.084  -0.574  1.00  0.00    -0.266 OA
ENDBRANCH   9  23
TORSDOF 3
ENDMDL
MODEL 8
REMARK VINA RESULT:      -8.1      3.549      8.107
REMARK  3 active torsions:
REMARK  status: ('A' for Active; 'I' for Inactive)
REMARK    1  A    between atoms: C_2  and  N_3 
REMARK       I    between atoms: N_3  and  C_4 
REMARK    2  A    between atoms: C_4  and  C_5 
REMARK    3  A    between atoms: C_20  and  C_21 
REMARK       I    between atoms: C_21  and  N_22 
ROOT
HETATM    1  C   UNL     1      41.142 -14.465   5.035  1.00  0.00     0.032 A 
HETATM    2  C   UNL     1      41.568 -15.050   3.841  1.00  0.00     0.036 A 
HETATM    3  C   UNL     1      42.343 -16.221   3.884  1.00  0.00     0.046 A 
HETATM    4  C   UNL     1      42.687 -16.790   5.128  1.00  0.00     0.030 A 
HETATM    5  C   UNL     1      42.249 -16.171   6.290  1.00  0.00     0.063 A 
HETATM    6  N   UNL     1      42.736 -16.936   7.314  1.00  0.00    -0.277 N 
HETATM    7  H   UNL     1      42.614 -16.779   8.307  1.00  0.00     0.189 HD
HETATM    8  N   UNL     1      43.447 -18.006   6.917  1.00  0.00    -0.168 NA
HETATM    9  C   UNL     1      43.424 -17.929   5.569  1.00  0.00     0.156 A 
HETATM   10  C   UNL     1      41.475 -15.010   6.285  1.00  0.00     0.034 A 
ENDROOT
BRANCH   2  11
HETATM   11  N   UNL     1      41.268 -14.538   2.558  1.00  0.00    -0.323 N 
HETATM   12  C   UNL     1      40.332 -15.022   1.662  1.00  0.00     0.256 C 
HETATM   13  O   UNL     1      39.567 -15.963   1.832  1.00  0.00    -0.267 OA
HETATM   14  H   UNL     1      41.763 -13.690   2.316  1.00  0.00     0.169 HD
BRANCH  12  15
HETATM   15  C   UNL     1      40.239 -14.288   0.370  1.00  0.00     0.038 A 
HETATM   16  C   UNL     1      39.572 -14.808  -0.738  1.00  0.00     0.061 A 
HETATM   17  C   UNL     1      39.543 -14.033  -1.882  1.00  0.00     0.128 A 
HETATM   18 CL   UNL     1      38.752 -14.593  -3.297  1.00  0.00    -0.062 Cl
HETATM   19  N   UNL     1      40.103 -12.817  -1.999  1.00  0.00    -0.225 NA
HETATM   20  C   UNL     1      40.716 -12.340  -0.901  1.00  0.00     0.128 A 
HETATM   21 CL   UNL     1      41.402 -10.780  -1.087  1.00  0.00    -0.062 Cl
HETATM   22  C   UNL     1      40.813 -13.018   0.296  1.00  0.00     0.061 A 
ENDBRANCH  12  15
ENDBRANCH   2  11
BRANCH   9  23
HETATM   23  C   UNL     1      44.093 -18.930   4.727  1.00  0.00     0.270 C 
HETATM   24  N   UNL     1      44.213 -20.161   5.311  1.00  0.00    -0.365 N 
HETATM   25  H   UNL     1      43.843 -20.294   6.244  1.00  0.00     0.159 HD
HETATM   26  H   UNL     1      44.653 -20.916   4.809  1.00  0.00     0.159 HD
HETATM   27  O   UNL     1      44.517 -18.712   3.596  1.00  0.00    -0.266 OA
ENDBRANCH   9  23
TORSDOF 3
ENDMDL
MODEL 9
REMARK VINA RESULT:      -7.9      5.662      8.133
REMARK  3 active torsions:
REMARK  status: ('A' for Active; 'I' for Inactive)
REMARK    1  A    between atoms: C_2  and  N_3 
REMARK       I    between atoms: N_3  and  C_4 
REMARK    2  A    between atoms: C_4  and  C_5 
REMARK    3  A    between atoms: C_20  and  C_21 
REMARK       I    between atoms: C_21  and  N_22 
ROOT
HETATM    1  C   UNL     1      43.009 -15.707   2.375  1.00  0.00     0.032 A 
HETATM    2  C   UNL     1      43.203 -15.691   3.757  1.00  0.00     0.036 A 
HETATM    3  C   UNL     1      43.438 -16.900   4.436  1.00  0.00     0.046 A 
HETATM    4  C   UNL     1      43.469 -18.113   3.718  1.00  0.00     0.030 A 
HETATM    5  C   UNL     1      43.264 -18.084   2.346  1.00  0.00     0.063 A 
HETATM    6  N   UNL     1      43.345 -19.387   1.939  1.00  0.00    -0.277 N 
HETATM    7  H   UNL     1      43.241 -19.742   0.996  1.00  0.00     0.189 HD
HETATM    8  N   UNL     1      43.596 -20.262   2.928  1.00  0.00    -0.168 NA
HETATM    9  C   UNL     1      43.676 -19.488   4.033  1.00  0.00     0.156 A 
HETATM   10  C   UNL     1      43.031 -16.903   1.639  1.00  0.00     0.034 A 
ENDROOT
BRANCH   2  11
HETATM   11  N   UNL     1      43.181 -14.518   4.546  1.00  0.00    -0.323 N 
HETATM   12  C   UNL     1      42.073 -13.778   4.914  1.00  0.00     0.256 C 
HETATM   13  O   UNL     1      40.902 -14.025   4.655  1.00  0.00    -0.267 OA
HETATM   14  H   UNL     1      44.081 -14.243   4.917  1.00  0.00     0.169 HD
BRANCH  12  15
HETATM   15  C   UNL     1      42.351 -12.573   5.743  1.00  0.00     0.038 A 
HETATM   16  C   UNL     1      41.383 -11.602   5.998  1.00  0.00     0.061 A 
HETATM   17  C   UNL     1      41.754 -10.530   6.788  1.00  0.00     0.128 A 
HETATM   18 CL   UNL     1      40.633  -9.283   7.149  1.00  0.00    -0.062 Cl
HETATM   19  N   UNL     1      42.972 -10.361   7.331  1.00  0.00    -0.225 NA
HETATM   20  C   UNL     1      43.870 -11.330   7.080  1.00  0.00     0.128 A 
HETATM   21 CL   UNL     1      45.405 -11.086   7.804  1.00  0.00    -0.062 Cl
HETATM   22  C   UNL     1      43.621 -12.445   6.307  1.00  0.00     0.061 A 
ENDBRANCH  12  15
ENDBRANCH   2  11
BRANCH   9  23
HETATM   23  C   UNL     1      43.948 -20.062   5.358  1.00  0.00     0.270 C 
HETATM   24  N   UNL     1      44.725 -21.188   5.331  1.00  0.00    -0.365 N 
HETATM   25  H   UNL     1      45.049 -21.533   4.436  1.00  0.00     0.159 HD
HETATM   26  H   UNL     1      44.971 -21.650   6.193  1.00  0.00     0.159 HD
HETATM   27  O   UNL     1      43.531 -19.595   6.413  1.00  0.00    -0.266 OA
ENDBRANCH   9  23
TORSDOF 3
ENDMDL
MODEL 10
REMARK VINA RESULT:      -7.9      2.500      3.592
REMARK  3 active torsions:
REMARK  status: ('A' for Active; 'I' for Inactive)
REMARK    1  A    between atoms: C_2  and  N_3 
REMARK       I    between atoms: N_3  and  C_4 
REMARK    2  A    between atoms: C_4  and  C_5 
REMARK    3  A    between atoms: C_20  and  C_21 
REMARK       I    between atoms: C_21  and  N_22 
ROOT
HETATM    1  C   UNL     1      40.020 -15.281   0.057  1.00  0.00     0.032 A 
HETATM    2  C   UNL     1      40.922 -14.908   1.055  1.00  0.00     0.036 A 
HETATM    3  C   UNL     1      41.278 -13.555   1.194  1.00  0.00     0.046 A 
HETATM    4  C   UNL     1      40.729 -12.592   0.324  1.00  0.00     0.030 A 
HETATM    5  C   UNL     1      39.842 -13.007  -0.660  1.00  0.00     0.063 A 
HETATM    6  N   UNL     1      39.493 -11.871  -1.336  1.00  0.00    -0.277 N 
HETATM    7  H   UNL     1      38.860 -11.798  -2.125  1.00  0.00     0.189 HD
HETATM    8  N   UNL     1      40.069 -10.749  -0.871  1.00  0.00    -0.168 NA
HETATM    9  C   UNL     1      40.834 -11.180   0.155  1.00  0.00     0.156 A 
HETATM   10  C   UNL     1      39.463 -14.340  -0.824  1.00  0.00     0.034 A 
ENDROOT
BRANCH   2  11
HETATM   11  N   UNL     1      41.517 -15.814   1.962  1.00  0.00    -0.323 N 
HETATM   12  C   UNL     1      42.850 -16.175   2.031  1.00  0.00     0.256 C 
HETATM   13  O   UNL     1      43.766 -15.747   1.340  1.00  0.00    -0.267 OA
HETATM   14  H   UNL     1      40.889 -16.181   2.665  1.00  0.00     0.169 HD
BRANCH  12  15
HETATM   15  C   UNL     1      43.195 -17.169   3.084  1.00  0.00     0.038 A 
HETATM   16  C   UNL     1      43.237 -16.838   4.438  1.00  0.00     0.061 A 
HETATM   17  C   UNL     1      43.562 -17.846   5.326  1.00  0.00     0.128 A 
HETATM   18 CL   UNL     1      43.646 -17.531   7.010  1.00  0.00    -0.062 Cl
HETATM   19  N   UNL     1      43.831 -19.117   4.981  1.00  0.00    -0.225 NA
HETATM   20  C   UNL     1      43.757 -19.401   3.669  1.00  0.00     0.128 A 
HETATM   21 CL   UNL     1      44.090 -21.035   3.272  1.00  0.00    -0.062 Cl
HETATM   22  C   UNL     1      43.445 -18.483   2.687  1.00  0.00     0.061 A 
ENDBRANCH  12  15
ENDBRANCH   2  11
BRANCH   9  23
HETATM   23  C   UNL     1      41.645 -10.251   0.955  1.00  0.00     0.270 C 
HETATM   24  N   UNL     1      41.546  -8.944   0.565  1.00  0.00    -0.365 N 
HETATM   25  H   UNL     1      40.941  -8.714  -0.214  1.00  0.00     0.159 HD
HETATM   26  H   UNL     1      42.061  -8.231   1.058  1.00  0.00     0.159 HD
HETATM   27  O   UNL     1      42.357 -10.588   1.896  1.00  0.00    -0.266 OA
ENDBRANCH   9  23
TORSDOF 3
ENDMDL
