MODEL 1
REMARK VINA RESULT:      -9.1      0.000      0.000
REMARK  6 active torsions:
REMARK  status: ('A' for Active; 'I' for Inactive)
REMARK    1  A    between atoms: C_2  and  C_3 
REMARK    2  A    between atoms: C_3  and  C_4 
REMARK    3  A    between atoms: C_3  and  C_10 
REMARK    4  A    between atoms: C_10  and  C_11 
REMARK       I    between atoms: C_11  and  N_12 
REMARK    5  A    between atoms: N_12  and  C_13 
REMARK    6  A    between atoms: C_20  and  C_21 
REMARK       I    between atoms: C_21  and  N_22 
ROOT
HETATM    1  C   UNL     1      40.869 -13.901   0.429  1.00  0.00     0.035 A 
HETATM    2  C   UNL     1      40.196 -14.390  -0.700  1.00  0.00     0.046 A 
HETATM    3  C   UNL     1      39.136 -13.642  -1.259  1.00  0.00     0.030 A 
HETATM    4  C   UNL     1      38.792 -12.429  -0.676  1.00  0.00     0.063 A 
HETATM    5  N   UNL     1      37.755 -11.948  -1.426  1.00  0.00    -0.277 N 
HETATM    6  H   UNL     1      37.251 -11.079  -1.290  1.00  0.00     0.189 HD
HETATM    7  N   UNL     1      37.387 -12.743  -2.444  1.00  0.00    -0.168 NA
HETATM    8  C   UNL     1      38.232 -13.796  -2.353  1.00  0.00     0.156 A 
HETATM    9  C   UNL     1      39.440 -11.910   0.445  1.00  0.00     0.034 A 
HETATM   10  C   UNL     1      40.482 -12.673   0.985  1.00  0.00     0.032 A 
ENDROOT
BRANCH   1  11
HETATM   11  N   UNL     1      41.921 -14.585   1.074  1.00  0.00    -0.327 N 
HETATM   12  C   UNL     1      41.846 -15.766   1.791  1.00  0.00     0.222 C 
HETATM   13  O   UNL     1      40.860 -16.477   1.937  1.00  0.00    -0.273 OA
HETATM   14  H   UNL     1      42.839 -14.168   0.985  1.00  0.00     0.169 HD
BRANCH  12  15
HETATM   15  C   UNL     1      43.163 -16.129   2.455  1.00  0.00     0.112 C 
BRANCH  15  16
HETATM   16  C   UNL     1      42.997 -17.316   3.422  1.00  0.00     0.027 C 
BRANCH  16  17
HETATM   17  C   UNL     1      43.928 -18.511   3.110  1.00  0.00     0.005 C 
HETATM   18  C   UNL     1      43.351 -19.579   2.190  1.00  0.00     0.006 C 
ENDBRANCH  16  17
BRANCH  16  19
HETATM   19  C   UNL     1      43.081 -16.910   4.888  1.00  0.00    -0.054 A 
HETATM   20  C   UNL     1      41.950 -16.556   5.639  1.00  0.00     0.007 A 
HETATM   21  C   UNL     1      42.073 -16.179   6.979  1.00  0.00     0.001 A 
HETATM   22  C   UNL     1      43.326 -16.147   7.586  1.00  0.00     0.000 A 
HETATM   23  C   UNL     1      44.460 -16.486   6.852  1.00  0.00     0.001 A 
HETATM   24  C   UNL     1      44.338 -16.861   5.513  1.00  0.00     0.007 A 
ENDBRANCH  16  19
ENDBRANCH  15  16
ENDBRANCH  12  15
ENDBRANCH   1  11
BRANCH   8  25
HETATM   25  C   UNL     1      38.153 -14.915  -3.302  1.00  0.00     0.270 C 
HETATM   26  N   UNL     1      38.163 -16.150  -2.712  1.00  0.00    -0.365 N 
HETATM   27  H   UNL     1      38.226 -16.204  -1.702  1.00  0.00     0.159 HD
HETATM   28  H   UNL     1      38.119 -16.977  -3.285  1.00  0.00     0.159 HD
HETATM   29  O   UNL     1      38.087 -14.797  -4.521  1.00  0.00    -0.266 OA
ENDBRANCH   8  25
TORSDOF 6
ENDMDL
MODEL 2
REMARK VINA RESULT:      -8.7      1.323      2.833
REMARK  6 active torsions:
REMARK  status: ('A' for Active; 'I' for Inactive)
REMARK    1  A    between atoms: C_2  and  C_3 
REMARK    2  A    between atoms: C_3  and  C_4 
REMARK    3  A    between atoms: C_3  and  C_10 
REMARK    4  A    between atoms: C_10  and  C_11 
REMARK       I    between atoms: C_11  and  N_12 
REMARK    5  A    between atoms: N_12  and  C_13 
REMARK    6  A    between atoms: C_20  and  C_21 
REMARK       I    between atoms: C_21  and  N_22 
ROOT
HETATM    1  C   UNL     1      40.555 -14.088   0.834  1.00  0.00     0.035 A 
HETATM    2  C   UNL     1      39.921 -14.545  -0.331  1.00  0.00     0.046 A 
HETATM    3  C   UNL     1      39.619 -13.629  -1.364  1.00  0.00     0.030 A 
HETATM    4  C   UNL     1      39.967 -12.294  -1.200  1.00  0.00     0.063 A 
HETATM    5  N   UNL     1      39.557 -11.669  -2.344  1.00  0.00    -0.277 N 
HETATM    6  H   UNL     1      39.649 -10.686  -2.573  1.00  0.00     0.189 HD
HETATM    7  N   UNL     1      38.965 -12.477  -3.239  1.00  0.00    -0.168 NA
HETATM    8  C   UNL     1      38.995 -13.694  -2.647  1.00  0.00     0.156 A 
HETATM    9  C   UNL     1      40.600 -11.806  -0.056  1.00  0.00     0.034 A 
HETATM   10  C   UNL     1      40.883 -12.731   0.956  1.00  0.00     0.032 A 
ENDROOT
BRANCH   1  11
HETATM   11  N   UNL     1      40.875 -14.918   1.930  1.00  0.00    -0.327 N 
HETATM   12  C   UNL     1      42.091 -15.515   2.210  1.00  0.00     0.222 C 
HETATM   13  O   UNL     1      43.140 -15.374   1.595  1.00  0.00    -0.273 OA
HETATM   14  H   UNL     1      40.129 -15.078   2.595  1.00  0.00     0.169 HD
BRANCH  12  15
HETATM   15  C   UNL     1      42.020 -16.447   3.407  1.00  0.00     0.112 C 
BRANCH  15  16
HETATM   16  C   UNL     1      43.425 -16.872   3.874  1.00  0.00     0.027 C 
BRANCH  16  17
HETATM   17  C   UNL     1      43.819 -16.311   5.261  1.00  0.00     0.005 C 
HETATM   18  C   UNL     1      42.830 -15.338   5.889  1.00  0.00     0.006 C 
ENDBRANCH  16  17
BRANCH  16  19
HETATM   19  C   UNL     1      43.652 -18.376   3.795  1.00  0.00    -0.054 A 
HETATM   20  C   UNL     1      44.061 -19.137   4.900  1.00  0.00     0.007 A 
HETATM   21  C   UNL     1      44.268 -20.514   4.781  1.00  0.00     0.001 A 
HETATM   22  C   UNL     1      44.072 -21.149   3.557  1.00  0.00     0.000 A 
HETATM   23  C   UNL     1      43.674 -20.407   2.448  1.00  0.00     0.001 A 
HETATM   24  C   UNL     1      43.469 -19.031   2.566  1.00  0.00     0.007 A 
ENDBRANCH  16  19
ENDBRANCH  15  16
ENDBRANCH  12  15
ENDBRANCH   1  11
BRANCH   8  25
HETATM   25  C   UNL     1      38.429 -14.875  -3.312  1.00  0.00     0.270 C 
HETATM   26  N   UNL     1      38.364 -15.987  -2.516  1.00  0.00    -0.365 N 
HETATM   27  H   UNL     1      38.702 -15.921  -1.564  1.00  0.00     0.159 HD
HETATM   28  H   UNL     1      37.995 -16.846  -2.890  1.00  0.00     0.159 HD
HETATM   29  O   UNL     1      38.041 -14.905  -4.475  1.00  0.00    -0.266 OA
ENDBRANCH   8  25
TORSDOF 6
ENDMDL
MODEL 3
REMARK VINA RESULT:      -8.7      1.683      3.181
REMARK  6 active torsions:
REMARK  status: ('A' for Active; 'I' for Inactive)
REMARK    1  A    between atoms: C_2  and  C_3 
REMARK    2  A    between atoms: C_3  and  C_4 
REMARK    3  A    between atoms: C_3  and  C_10 
REMARK    4  A    between atoms: C_10  and  C_11 
REMARK       I    between atoms: C_11  and  N_12 
REMARK    5  A    between atoms: N_12  and  C_13 
REMARK    6  A    between atoms: C_20  and  C_21 
REMARK       I    between atoms: C_21  and  N_22 
ROOT
HETATM    1  C   UNL     1      40.176 -14.120   2.454  1.00  0.00     0.035 A 
HETATM    2  C   UNL     1      40.101 -14.353   1.074  1.00  0.00     0.046 A 
HETATM    3  C   UNL     1      39.536 -13.370   0.230  1.00  0.00     0.030 A 
HETATM    4  C   UNL     1      39.075 -12.187   0.795  1.00  0.00     0.063 A 
HETATM    5  N   UNL     1      38.598 -11.448  -0.251  1.00  0.00    -0.277 N 
HETATM    6  H   UNL     1      38.183 -10.524  -0.211  1.00  0.00     0.189 HD
HETATM    7  N   UNL     1      38.700 -12.047  -1.449  1.00  0.00    -0.168 NA
HETATM    8  C   UNL     1      39.278 -13.237  -1.167  1.00  0.00     0.156 A 
HETATM    9  C   UNL     1      39.137 -11.920   2.163  1.00  0.00     0.034 A 
HETATM   10  C   UNL     1      39.693 -12.913   2.979  1.00  0.00     0.032 A 
ENDROOT
BRANCH   1  11
HETATM   11  N   UNL     1      40.698 -15.049   3.380  1.00  0.00    -0.327 N 
HETATM   12  C   UNL     1      42.010 -15.179   3.797  1.00  0.00     0.222 C 
HETATM   13  O   UNL     1      42.954 -14.460   3.493  1.00  0.00    -0.273 OA
HETATM   14  H   UNL     1      40.027 -15.680   3.798  1.00  0.00     0.169 HD
BRANCH  12  15
HETATM   15  C   UNL     1      42.217 -16.380   4.703  1.00  0.00     0.112 C 
BRANCH  15  16
HETATM   16  C   UNL     1      43.664 -16.904   4.622  1.00  0.00     0.027 C 
BRANCH  16  17
HETATM   17  C   UNL     1      44.490 -16.663   5.907  1.00  0.00     0.005 C 
HETATM   18  C   UNL     1      43.695 -16.246   7.138  1.00  0.00     0.006 C 
ENDBRANCH  16  17
BRANCH  16  19
HETATM   19  C   UNL     1      43.748 -18.355   4.166  1.00  0.00    -0.054 A 
HETATM   20  C   UNL     1      44.031 -19.408   5.050  1.00  0.00     0.007 A 
HETATM   21  C   UNL     1      44.110 -20.725   4.587  1.00  0.00     0.001 A 
HETATM   22  C   UNL     1      43.911 -21.007   3.239  1.00  0.00     0.000 A 
HETATM   23  C   UNL     1      43.639 -19.973   2.348  1.00  0.00     0.001 A 
HETATM   24  C   UNL     1      43.561 -18.657   2.808  1.00  0.00     0.007 A 
ENDBRANCH  16  19
ENDBRANCH  15  16
ENDBRANCH  12  15
ENDBRANCH   1  11
BRANCH   8  25
HETATM   25  C   UNL     1      39.563 -14.212  -2.230  1.00  0.00     0.270 C 
HETATM   26  N   UNL     1      38.706 -15.279  -2.253  1.00  0.00    -0.365 N 
HETATM   27  H   UNL     1      37.968 -15.322  -1.561  1.00  0.00     0.159 HD
HETATM   28  H   UNL     1      38.829 -16.002  -2.944  1.00  0.00     0.159 HD
HETATM   29  O   UNL     1      40.478 -14.117  -3.040  1.00  0.00    -0.266 OA
ENDBRANCH   8  25
TORSDOF 6
ENDMDL
MODEL 4
REMARK VINA RESULT:      -8.4      5.839      9.458
REMARK  6 active torsions:
REMARK  status: ('A' for Active; 'I' for Inactive)
REMARK    1  A    between atoms: C_2  and  C_3 
REMARK    2  A    between atoms: C_3  and  C_4 
REMARK    3  A    between atoms: C_3  and  C_10 
REMARK    4  A    between atoms: C_10  and  C_11 
REMARK       I    between atoms: C_11  and  N_12 
REMARK    5  A    between atoms: N_12  and  C_13 
REMARK    6  A    between atoms: C_20  and  C_21 
REMARK       I    between atoms: C_21  and  N_22 
ROOT
HETATM    1  C   UNL     1      44.317 -12.139   6.840  1.00  0.00     0.035 A 
HETATM    2  C   UNL     1      43.773 -11.743   8.070  1.00  0.00     0.046 A 
HETATM    3  C   UNL     1      44.434 -10.759   8.840  1.00  0.00     0.030 A 
HETATM    4  C   UNL     1      45.608 -10.201   8.349  1.00  0.00     0.063 A 
HETATM    5  N   UNL     1      46.004  -9.298   9.295  1.00  0.00    -0.277 N 
HETATM    6  H   UNL     1      46.824  -8.702   9.271  1.00  0.00     0.189 HD
HETATM    7  N   UNL     1      45.195  -9.220  10.364  1.00  0.00    -0.168 NA
HETATM    8  C   UNL     1      44.219 -10.119  10.098  1.00  0.00     0.156 A 
HETATM    9  C   UNL     1      46.176 -10.569   7.129  1.00  0.00     0.034 A 
HETATM   10  C   UNL     1      45.506 -11.551   6.388  1.00  0.00     0.032 A 
ENDROOT
BRANCH   1  11
HETATM   11  N   UNL     1      43.746 -13.129   6.012  1.00  0.00    -0.327 N 
HETATM   12  C   UNL     1      42.622 -13.018   5.213  1.00  0.00     0.222 C 
HETATM   13  O   UNL     1      41.953 -12.010   5.020  1.00  0.00    -0.273 OA
HETATM   14  H   UNL     1      44.229 -14.018   5.990  1.00  0.00     0.169 HD
BRANCH  12  15
HETATM   15  C   UNL     1      42.233 -14.336   4.568  1.00  0.00     0.112 C 
BRANCH  15  16
HETATM   16  C   UNL     1      42.787 -15.536   5.360  1.00  0.00     0.027 C 
BRANCH  16  17
HETATM   17  C   UNL     1      41.877 -15.991   6.525  1.00  0.00     0.005 C 
HETATM   18  C   UNL     1      40.382 -16.005   6.233  1.00  0.00     0.006 C 
ENDBRANCH  16  17
BRANCH  16  19
HETATM   19  C   UNL     1      43.184 -16.707   4.470  1.00  0.00    -0.054 A 
HETATM   20  C   UNL     1      42.668 -16.880   3.176  1.00  0.00     0.007 A 
HETATM   21  C   UNL     1      43.051 -17.975   2.396  1.00  0.00     0.001 A 
HETATM   22  C   UNL     1      43.950 -18.912   2.898  1.00  0.00     0.000 A 
HETATM   23  C   UNL     1      44.464 -18.760   4.183  1.00  0.00     0.001 A 
HETATM   24  C   UNL     1      44.081 -17.667   4.963  1.00  0.00     0.007 A 
ENDBRANCH  16  19
ENDBRANCH  15  16
ENDBRANCH  12  15
ENDBRANCH   1  11
BRANCH   8  25
HETATM   25  C   UNL     1      43.118 -10.347  11.044  1.00  0.00     0.270 C 
HETATM   26  N   UNL     1      43.415 -11.234  12.043  1.00  0.00    -0.365 N 
HETATM   27  H   UNL     1      44.334 -11.658  12.057  1.00  0.00     0.159 HD
HETATM   28  H   UNL     1      42.717 -11.457  12.735  1.00  0.00     0.159 HD
HETATM   29  O   UNL     1      42.016  -9.812  10.978  1.00  0.00    -0.266 OA
ENDBRANCH   8  25
TORSDOF 6
ENDMDL
MODEL 5
REMARK VINA RESULT:      -8.2      2.456      4.111
REMARK  6 active torsions:
REMARK  status: ('A' for Active; 'I' for Inactive)
REMARK    1  A    between atoms: C_2  and  C_3 
REMARK    2  A    between atoms: C_3  and  C_4 
REMARK    3  A    between atoms: C_3  and  C_10 
REMARK    4  A    between atoms: C_10  and  C_11 
REMARK       I    between atoms: C_11  and  N_12 
REMARK    5  A    between atoms: N_12  and  C_13 
REMARK    6  A    between atoms: C_20  and  C_21 
REMARK       I    between atoms: C_21  and  N_22 
ROOT
HETATM    1  C   UNL     1      40.555 -14.133   0.479  1.00  0.00     0.035 A 
HETATM    2  C   UNL     1      40.993 -12.824   0.234  1.00  0.00     0.046 A 
HETATM    3  C   UNL     1      40.684 -12.204  -0.998  1.00  0.00     0.030 A 
HETATM    4  C   UNL     1      39.944 -12.912  -1.937  1.00  0.00     0.063 A 
HETATM    5  N   UNL     1      39.806 -12.067  -3.002  1.00  0.00    -0.277 N 
HETATM    6  H   UNL     1      39.320 -12.251  -3.873  1.00  0.00     0.189 HD
HETATM    7  N   UNL     1      40.397 -10.872  -2.845  1.00  0.00    -0.168 NA
HETATM    8  C   UNL     1      40.946 -10.942  -1.610  1.00  0.00     0.156 A 
HETATM    9  C   UNL     1      39.490 -14.215  -1.726  1.00  0.00     0.034 A 
HETATM   10  C   UNL     1      39.814 -14.809  -0.500  1.00  0.00     0.032 A 
ENDROOT
BRANCH   1  11
HETATM   11  N   UNL     1      40.834 -14.845   1.665  1.00  0.00    -0.327 N 
HETATM   12  C   UNL     1      42.018 -15.467   2.018  1.00  0.00     0.222 C 
HETATM   13  O   UNL     1      43.072 -15.453   1.394  1.00  0.00    -0.273 OA
HETATM   14  H   UNL     1      40.083 -14.888   2.341  1.00  0.00     0.169 HD
BRANCH  12  15
HETATM   15  C   UNL     1      41.901 -16.249   3.315  1.00  0.00     0.112 C 
BRANCH  15  16
HETATM   16  C   UNL     1      43.282 -16.708   3.822  1.00  0.00     0.027 C 
BRANCH  16  17
HETATM   17  C   UNL     1      43.602 -16.250   5.265  1.00  0.00     0.005 C 
HETATM   18  C   UNL     1      43.270 -14.799   5.589  1.00  0.00     0.006 C 
ENDBRANCH  16  17
BRANCH  16  19
HETATM   19  C   UNL     1      43.517 -18.202   3.644  1.00  0.00    -0.054 A 
HETATM   20  C   UNL     1      43.263 -18.868   2.435  1.00  0.00     0.007 A 
HETATM   21  C   UNL     1      43.483 -20.243   2.317  1.00  0.00     0.001 A 
HETATM   22  C   UNL     1      43.957 -20.972   3.405  1.00  0.00     0.000 A 
HETATM   23  C   UNL     1      44.205 -20.329   4.614  1.00  0.00     0.001 A 
HETATM   24  C   UNL     1      43.984 -18.956   4.734  1.00  0.00     0.007 A 
ENDBRANCH  16  19
ENDBRANCH  15  16
ENDBRANCH  12  15
ENDBRANCH   1  11
BRANCH   8  25
HETATM   25  C   UNL     1      41.704  -9.813  -1.052  1.00  0.00     0.270 C 
HETATM   26  N   UNL     1      41.814  -8.742  -1.897  1.00  0.00    -0.365 N 
HETATM   27  H   UNL     1      41.387  -8.802  -2.813  1.00  0.00     0.159 HD
HETATM   28  H   UNL     1      42.324  -7.925  -1.602  1.00  0.00     0.159 HD
HETATM   29  O   UNL     1      42.211  -9.794   0.065  1.00  0.00    -0.266 OA
ENDBRANCH   8  25
TORSDOF 6
ENDMDL
MODEL 6
REMARK VINA RESULT:      -8.2      4.548      6.757
REMARK  6 active torsions:
REMARK  status: ('A' for Active; 'I' for Inactive)
REMARK    1  A    between atoms: C_2  and  C_3 
REMARK    2  A    between atoms: C_3  and  C_4 
REMARK    3  A    between atoms: C_3  and  C_10 
REMARK    4  A    between atoms: C_10  and  C_11 
REMARK       I    between atoms: C_11  and  N_12 
REMARK    5  A    between atoms: N_12  and  C_13 
REMARK    6  A    between atoms: C_20  and  C_21 
REMARK       I    between atoms: C_21  and  N_22 
ROOT
HETATM    1  C   UNL     1      40.564 -13.210   4.832  1.00  0.00     0.035 A 
HETATM    2  C   UNL     1      40.358 -12.377   5.941  1.00  0.00     0.046 A 
HETATM    3  C   UNL     1      39.522 -11.244   5.817  1.00  0.00     0.030 A 
HETATM    4  C   UNL     1      38.917 -10.990   4.593  1.00  0.00     0.063 A 
HETATM    5  N   UNL     1      38.183  -9.852   4.780  1.00  0.00    -0.277 N 
HETATM    6  H   UNL     1      37.607  -9.373   4.097  1.00  0.00     0.189 HD
HETATM    7  N   UNL     1      38.261  -9.337   6.018  1.00  0.00    -0.168 NA
HETATM    8  C   UNL     1      39.087 -10.187   6.672  1.00  0.00     0.156 A 
HETATM    9  C   UNL     1      39.097 -11.798   3.470  1.00  0.00     0.034 A 
HETATM   10  C   UNL     1      39.935 -12.910   3.616  1.00  0.00     0.032 A 
ENDROOT
BRANCH   1  11
HETATM   11  N   UNL     1      41.399 -14.347   4.849  1.00  0.00    -0.327 N 
HETATM   12  C   UNL     1      42.774 -14.388   4.702  1.00  0.00     0.222 C 
HETATM   13  O   UNL     1      43.532 -13.432   4.602  1.00  0.00    -0.273 OA
HETATM   14  H   UNL     1      40.936 -15.234   5.005  1.00  0.00     0.169 HD
BRANCH  12  15
HETATM   15  C   UNL     1      43.312 -15.807   4.641  1.00  0.00     0.112 C 
BRANCH  15  16
HETATM   16  C   UNL     1      42.836 -16.535   3.370  1.00  0.00     0.027 C 
BRANCH  16  17
HETATM   17  C   UNL     1      43.241 -15.829   2.055  1.00  0.00     0.005 C 
HETATM   18  C   UNL     1      42.096 -15.254   1.232  1.00  0.00     0.006 C 
ENDBRANCH  16  17
BRANCH  16  19
HETATM   19  C   UNL     1      43.213 -18.011   3.351  1.00  0.00    -0.054 A 
HETATM   20  C   UNL     1      43.833 -18.646   4.439  1.00  0.00     0.007 A 
HETATM   21  C   UNL     1      44.171 -20.001   4.375  1.00  0.00     0.001 A 
HETATM   22  C   UNL     1      43.900 -20.738   3.226  1.00  0.00     0.000 A 
HETATM   23  C   UNL     1      43.294 -20.121   2.134  1.00  0.00     0.001 A 
HETATM   24  C   UNL     1      42.957 -18.768   2.196  1.00  0.00     0.007 A 
ENDBRANCH  16  19
ENDBRANCH  15  16
ENDBRANCH  12  15
ENDBRANCH   1  11
BRANCH   8  25
HETATM   25  C   UNL     1      39.440  -9.968   8.081  1.00  0.00     0.270 C 
HETATM   26  N   UNL     1      40.772  -9.731   8.292  1.00  0.00    -0.365 N 
HETATM   27  H   UNL     1      41.396  -9.728   7.495  1.00  0.00     0.159 HD
HETATM   28  H   UNL     1      41.107  -9.576   9.229  1.00  0.00     0.159 HD
HETATM   29  O   UNL     1      38.645  -9.991   9.014  1.00  0.00    -0.266 OA
ENDBRANCH   8  25
TORSDOF 6
ENDMDL
MODEL 7
REMARK VINA RESULT:      -8.1      4.853      7.987
REMARK  6 active torsions:
REMARK  status: ('A' for Active; 'I' for Inactive)
REMARK    1  A    between atoms: C_2  and  C_3 
REMARK    2  A    between atoms: C_3  and  C_4 
REMARK    3  A    between atoms: C_3  and  C_10 
REMARK    4  A    between atoms: C_10  and  C_11 
REMARK       I    between atoms: C_11  and  N_12 
REMARK    5  A    between atoms: N_12  and  C_13 
REMARK    6  A    between atoms: C_20  and  C_21 
REMARK       I    between atoms: C_21  and  N_22 
ROOT
HETATM    1  C   UNL     1      42.735 -12.857   5.192  1.00  0.00     0.035 A 
HETATM    2  C   UNL     1      43.664 -12.299   6.081  1.00  0.00     0.046 A 
HETATM    3  C   UNL     1      43.268 -11.241   6.930  1.00  0.00     0.030 A 
HETATM    4  C   UNL     1      41.958 -10.785   6.866  1.00  0.00     0.063 A 
HETATM    5  N   UNL     1      41.877  -9.780   7.788  1.00  0.00    -0.277 N 
HETATM    6  H   UNL     1      41.065  -9.217   8.015  1.00  0.00     0.189 HD
HETATM    7  N   UNL     1      43.023  -9.534   8.446  1.00  0.00    -0.168 NA
HETATM    8  C   UNL     1      43.894 -10.430   7.925  1.00  0.00     0.156 A 
HETATM    9  C   UNL     1      41.006 -11.319   5.996  1.00  0.00     0.034 A 
HETATM   10  C   UNL     1      41.424 -12.361   5.160  1.00  0.00     0.032 A 
ENDROOT
BRANCH   1  11
HETATM   11  N   UNL     1      43.040 -13.897   4.289  1.00  0.00    -0.327 N 
HETATM   12  C   UNL     1      43.095 -13.828   2.908  1.00  0.00     0.222 C 
HETATM   13  O   UNL     1      42.959 -12.827   2.215  1.00  0.00    -0.273 OA
HETATM   14  H   UNL     1      43.261 -14.793   4.704  1.00  0.00     0.169 HD
BRANCH  12  15
HETATM   15  C   UNL     1      43.325 -15.184   2.265  1.00  0.00     0.112 C 
BRANCH  15  16
HETATM   16  C   UNL     1      42.294 -16.220   2.751  1.00  0.00     0.027 C 
BRANCH  16  17
HETATM   17  C   UNL     1      41.049 -16.339   1.841  1.00  0.00     0.005 C 
HETATM   18  C   UNL     1      39.835 -15.522   2.267  1.00  0.00     0.006 C 
ENDBRANCH  16  17
BRANCH  16  19
HETATM   19  C   UNL     1      42.908 -17.584   3.040  1.00  0.00    -0.054 A 
HETATM   20  C   UNL     1      43.605 -17.862   4.226  1.00  0.00     0.007 A 
HETATM   21  C   UNL     1      44.162 -19.125   4.446  1.00  0.00     0.001 A 
HETATM   22  C   UNL     1      44.034 -20.125   3.486  1.00  0.00     0.000 A 
HETATM   23  C   UNL     1      43.353 -19.862   2.300  1.00  0.00     0.001 A 
HETATM   24  C   UNL     1      42.797 -18.601   2.078  1.00  0.00     0.007 A 
ENDBRANCH  16  19
ENDBRANCH  15  16
ENDBRANCH  12  15
ENDBRANCH   1  11
BRANCH   8  25
HETATM   25  C   UNL     1      45.289 -10.485   8.382  1.00  0.00     0.270 C 
HETATM   26  N   UNL     1      46.200 -10.081   7.444  1.00  0.00    -0.365 N 
HETATM   27  H   UNL     1      45.863  -9.788   6.536  1.00  0.00     0.159 HD
HETATM   28  H   UNL     1      47.183 -10.092   7.667  1.00  0.00     0.159 HD
HETATM   29  O   UNL     1      45.647 -10.857   9.495  1.00  0.00    -0.266 OA
ENDBRANCH   8  25
TORSDOF 6
ENDMDL
MODEL 8
REMARK VINA RESULT:      -7.9      5.375      8.261
REMARK  6 active torsions:
REMARK  status: ('A' for Active; 'I' for Inactive)
REMARK    1  A    between atoms: C_2  and  C_3 
REMARK    2  A    between atoms: C_3  and  C_4 
REMARK    3  A    between atoms: C_3  and  C_10 
REMARK    4  A    between atoms: C_10  and  C_11 
REMARK       I    between atoms: C_11  and  N_12 
REMARK    5  A    between atoms: N_12  and  C_13 
REMARK    6  A    between atoms: C_20  and  C_21 
REMARK       I    between atoms: C_21  and  N_22 
ROOT
HETATM    1  C   UNL     1      41.781 -11.788   5.750  1.00  0.00     0.035 A 
HETATM    2  C   UNL     1      42.795 -11.386   6.632  1.00  0.00     0.046 A 
HETATM    3  C   UNL     1      42.871 -10.033   7.035  1.00  0.00     0.030 A 
HETATM    4  C   UNL     1      41.929  -9.135   6.551  1.00  0.00     0.063 A 
HETATM    5  N   UNL     1      42.255  -7.931   7.109  1.00  0.00    -0.277 N 
HETATM    6  H   UNL     1      41.781  -7.044   6.978  1.00  0.00     0.189 HD
HETATM    7  N   UNL     1      43.332  -7.962   7.911  1.00  0.00    -0.168 NA
HETATM    8  C   UNL     1      43.725  -9.257   7.875  1.00  0.00     0.156 A 
HETATM    9  C   UNL     1      40.906  -9.500   5.675  1.00  0.00     0.034 A 
HETATM   10  C   UNL     1      40.856 -10.844   5.284  1.00  0.00     0.032 A 
ENDROOT
BRANCH   1  11
HETATM   11  N   UNL     1      41.637 -13.107   5.270  1.00  0.00    -0.327 N 
HETATM   12  C   UNL     1      40.725 -14.062   5.684  1.00  0.00     0.222 C 
HETATM   13  O   UNL     1      39.823 -13.913   6.499  1.00  0.00    -0.273 OA
HETATM   14  H   UNL     1      42.263 -13.376   4.522  1.00  0.00     0.169 HD
BRANCH  12  15
HETATM   15  C   UNL     1      40.958 -15.412   5.030  1.00  0.00     0.112 C 
BRANCH  15  16
HETATM   16  C   UNL     1      42.316 -16.011   5.442  1.00  0.00     0.027 C 
BRANCH  16  17
HETATM   17  C   UNL     1      42.349 -16.548   6.892  1.00  0.00     0.005 C 
HETATM   18  C   UNL     1      43.087 -15.681   7.904  1.00  0.00     0.006 C 
ENDBRANCH  16  17
BRANCH  16  19
HETATM   19  C   UNL     1      42.839 -17.043   4.451  1.00  0.00    -0.054 A 
HETATM   20  C   UNL     1      42.436 -17.070   3.107  1.00  0.00     0.007 A 
HETATM   21  C   UNL     1      42.933 -18.042   2.233  1.00  0.00     0.001 A 
HETATM   22  C   UNL     1      43.835 -18.999   2.689  1.00  0.00     0.000 A 
HETATM   23  C   UNL     1      44.238 -18.991   4.022  1.00  0.00     0.001 A 
HETATM   24  C   UNL     1      43.741 -18.023   4.896  1.00  0.00     0.007 A 
ENDBRANCH  16  19
ENDBRANCH  15  16
ENDBRANCH  12  15
ENDBRANCH   1  11
BRANCH   8  25
HETATM   25  C   UNL     1      44.898  -9.714   8.633  1.00  0.00     0.270 C 
HETATM   26  N   UNL     1      45.997  -8.908   8.502  1.00  0.00    -0.365 N 
HETATM   27  H   UNL     1      45.928  -8.088   7.912  1.00  0.00     0.159 HD
HETATM   28  H   UNL     1      46.850  -9.148   8.981  1.00  0.00     0.159 HD
HETATM   29  O   UNL     1      44.932 -10.724   9.328  1.00  0.00    -0.266 OA
ENDBRANCH   8  25
TORSDOF 6
ENDMDL
MODEL 9
REMARK VINA RESULT:      -7.7      2.869      7.713
REMARK  6 active torsions:
REMARK  status: ('A' for Active; 'I' for Inactive)
REMARK    1  A    between atoms: C_2  and  C_3 
REMARK    2  A    between atoms: C_3  and  C_4 
REMARK    3  A    between atoms: C_3  and  C_10 
REMARK    4  A    between atoms: C_10  and  C_11 
REMARK       I    between atoms: C_11  and  N_12 
REMARK    5  A    between atoms: N_12  and  C_13 
REMARK    6  A    between atoms: C_20  and  C_21 
REMARK       I    between atoms: C_21  and  N_22 
ROOT
HETATM    1  C   UNL     1      42.392 -15.950   2.085  1.00  0.00     0.035 A 
HETATM    2  C   UNL     1      42.705 -17.316   2.115  1.00  0.00     0.046 A 
HETATM    3  C   UNL     1      43.383 -17.852   3.233  1.00  0.00     0.030 A 
HETATM    4  C   UNL     1      43.715 -17.007   4.283  1.00  0.00     0.063 A 
HETATM    5  N   UNL     1      44.347 -17.798   5.201  1.00  0.00    -0.277 N 
HETATM    6  H   UNL     1      44.728 -17.517   6.097  1.00  0.00     0.189 HD
HETATM    7  N   UNL     1      44.463 -19.087   4.839  1.00  0.00    -0.168 NA
HETATM    8  C   UNL     1      43.871 -19.136   3.622  1.00  0.00     0.156 A 
HETATM    9  C   UNL     1      43.417 -15.643   4.290  1.00  0.00     0.034 A 
HETATM   10  C   UNL     1      42.752 -15.134   3.167  1.00  0.00     0.032 A 
ENDROOT
BRANCH   1  11
HETATM   11  N   UNL     1      41.742 -15.316   1.005  1.00  0.00    -0.327 N 
HETATM   12  C   UNL     1      40.384 -15.104   0.844  1.00  0.00     0.222 C 
HETATM   13  O   UNL     1      39.498 -15.363   1.648  1.00  0.00    -0.273 OA
HETATM   14  H   UNL     1      42.344 -14.962   0.273  1.00  0.00     0.169 HD
BRANCH  12  15
HETATM   15  C   UNL     1      40.044 -14.508  -0.511  1.00  0.00     0.112 C 
BRANCH  15  16
HETATM   16  C   UNL     1      40.427 -13.018  -0.583  1.00  0.00     0.027 C 
BRANCH  16  17
HETATM   17  C   UNL     1      40.125 -12.360  -1.950  1.00  0.00     0.005 C 
HETATM   18  C   UNL     1      41.277 -12.342  -2.947  1.00  0.00     0.006 C 
ENDBRANCH  16  17
BRANCH  16  19
HETATM   19  C   UNL     1      39.859 -12.199   0.569  1.00  0.00    -0.054 A 
HETATM   20  C   UNL     1      38.491 -11.912   0.689  1.00  0.00     0.007 A 
HETATM   21  C   UNL     1      38.014 -11.148   1.758  1.00  0.00     0.001 A 
HETATM   22  C   UNL     1      38.894 -10.658   2.718  1.00  0.00     0.000 A 
HETATM   23  C   UNL     1      40.257 -10.927   2.609  1.00  0.00     0.001 A 
HETATM   24  C   UNL     1      40.735 -11.688   1.541  1.00  0.00     0.007 A 
ENDBRANCH  16  19
ENDBRANCH  15  16
ENDBRANCH  12  15
ENDBRANCH   1  11
BRANCH   8  25
HETATM   25  C   UNL     1      43.792 -20.394   2.868  1.00  0.00     0.270 C 
HETATM   26  N   UNL     1      44.033 -21.512   3.619  1.00  0.00    -0.365 N 
HETATM   27  H   UNL     1      44.245 -21.398   4.603  1.00  0.00     0.159 HD
HETATM   28  H   UNL     1      44.008 -22.420   3.184  1.00  0.00     0.159 HD
HETATM   29  O   UNL     1      43.540 -20.477   1.670  1.00  0.00    -0.266 OA
ENDBRANCH   8  25
TORSDOF 6
ENDMDL
MODEL 10
REMARK VINA RESULT:      -7.6      2.977      8.513
REMARK  6 active torsions:
REMARK  status: ('A' for Active; 'I' for Inactive)
REMARK    1  A    between atoms: C_2  and  C_3 
REMARK    2  A    between atoms: C_3  and  C_4 
REMARK    3  A    between atoms: C_3  and  C_10 
REMARK    4  A    between atoms: C_10  and  C_11 
REMARK       I    between atoms: C_11  and  N_12 
REMARK    5  A    between atoms: N_12  and  C_13 
REMARK    6  A    between atoms: C_20  and  C_21 
REMARK       I    between atoms: C_21  and  N_22 
ROOT
HETATM    1  C   UNL     1      42.819 -15.692   2.852  1.00  0.00     0.035 A 
HETATM    2  C   UNL     1      43.014 -17.061   2.621  1.00  0.00     0.046 A 
HETATM    3  C   UNL     1      43.452 -17.891   3.677  1.00  0.00     0.030 A 
HETATM    4  C   UNL     1      43.672 -17.326   4.927  1.00  0.00     0.063 A 
HETATM    5  N   UNL     1      44.078 -18.357   5.726  1.00  0.00    -0.277 N 
HETATM    6  H   UNL     1      44.327 -18.313   6.708  1.00  0.00     0.189 HD
HETATM    7  N   UNL     1      44.149 -19.547   5.106  1.00  0.00    -0.168 NA
HETATM    8  C   UNL     1      43.765 -19.275   3.837  1.00  0.00     0.156 A 
HETATM    9  C   UNL     1      43.486 -15.969   5.193  1.00  0.00     0.034 A 
HETATM   10  C   UNL     1      43.059 -15.165   4.129  1.00  0.00     0.032 A 
ENDROOT
BRANCH   1  11
HETATM   11  N   UNL     1      42.409 -14.778   1.858  1.00  0.00    -0.327 N 
HETATM   12  C   UNL     1      41.184 -14.144   1.747  1.00  0.00     0.222 C 
HETATM   13  O   UNL     1      40.250 -14.204   2.536  1.00  0.00    -0.273 OA
HETATM   14  H   UNL     1      43.101 -14.549   1.156  1.00  0.00     0.169 HD
BRANCH  12  15
HETATM   15  C   UNL     1      41.063 -13.332   0.469  1.00  0.00     0.112 C 
BRANCH  15  16
HETATM   16  C   UNL     1      39.629 -12.805   0.272  1.00  0.00     0.027 C 
BRANCH  16  17
HETATM   17  C   UNL     1      39.502 -11.270   0.407  1.00  0.00     0.005 C 
HETATM   18  C   UNL     1      38.805 -10.770   1.666  1.00  0.00     0.006 C 
ENDBRANCH  16  17
BRANCH  16  19
HETATM   19  C   UNL     1      38.978 -13.309  -1.010  1.00  0.00    -0.054 A 
HETATM   20  C   UNL     1      37.870 -12.677  -1.594  1.00  0.00     0.007 A 
HETATM   21  C   UNL     1      37.297 -13.179  -2.766  1.00  0.00     0.001 A 
HETATM   22  C   UNL     1      37.820 -14.319  -3.369  1.00  0.00     0.000 A 
HETATM   23  C   UNL     1      38.914 -14.964  -2.798  1.00  0.00     0.001 A 
HETATM   24  C   UNL     1      39.487 -14.465  -1.627  1.00  0.00     0.007 A 
ENDBRANCH  16  19
ENDBRANCH  15  16
ENDBRANCH  12  15
ENDBRANCH   1  11
BRANCH   8  25
HETATM   25  C   UNL     1      43.712 -20.331   2.818  1.00  0.00     0.270 C 
HETATM   26  N   UNL     1      43.177 -19.930   1.624  1.00  0.00    -0.365 N 
HETATM   27  H   UNL     1      42.862 -18.971   1.532  1.00  0.00     0.159 HD
HETATM   28  H   UNL     1      43.094 -20.590   0.868  1.00  0.00     0.159 HD
HETATM   29  O   UNL     1      44.100 -21.484   2.983  1.00  0.00    -0.266 OA
ENDBRANCH   8  25
TORSDOF 6
ENDMDL
