MODEL 1
REMARK VINA RESULT:      -9.4      0.000      0.000
REMARK  8 active torsions:
REMARK  status: ('A' for Active; 'I' for Inactive)
REMARK    1  A    between atoms: C_4  and  S_5 
REMARK    2  A    between atoms: S_5  and  C_6 
REMARK    3  A    between atoms: C_6  and  C_7 
REMARK       I    between atoms: C_7  and  N_8 
REMARK    4  A    between atoms: N_8  and  C_9 
REMARK    5  A    between atoms: C_9  and  C_10 
REMARK    6  A    between atoms: C_20  and  C_21 
REMARK    7  A    between atoms: C_26  and  C_27 
REMARK       I    between atoms: C_27  and  N_28 
REMARK    8  A    between atoms: N_28  and  C_29 
ROOT
HETATM    1  C   UNL     1      43.189 -13.945   6.940  1.00  0.00     0.069 C 
HETATM    2  C   UNL     1      42.661 -12.796   6.111  1.00  0.00     0.019 C 
HETATM    3  N   UNL     1      42.332 -11.662   6.841  1.00  0.00    -0.353 N 
HETATM    4  C   UNL     1      42.023 -10.423   6.307  1.00  0.00     0.088 C 
HETATM    5  C   UNL     1      41.812 -10.335   4.972  1.00  0.00     0.071 C 
HETATM    6  C   UNL     1      41.525  -9.104   4.304  1.00  0.00     0.099 C 
HETATM    7  N   UNL     1      41.298  -8.117   3.738  1.00  0.00    -0.192 NA
HETATM    8  C   UNL     1      41.890 -11.585   4.082  1.00  0.00     0.130 C 
HETATM    9  C   UNL     1      42.511 -12.807   4.761  1.00  0.00     0.048 C 
HETATM   10  H   UNL     1      42.671 -11.658   7.796  1.00  0.00     0.166 HD
ENDROOT
BRANCH   4  11
HETATM   11  S   UNL     1      41.933  -8.964   7.304  1.00  0.00    -0.102 SA
BRANCH  11  12
HETATM   12  C   UNL     1      43.558  -8.920   8.107  1.00  0.00     0.183 C 
BRANCH  12  13
HETATM   13  C   UNL     1      43.618  -9.718   9.397  1.00  0.00     0.227 C 
HETATM   14  N   UNL     1      43.091  -9.116  10.515  1.00  0.00    -0.356 N 
HETATM   15  H   UNL     1      43.074  -8.102  10.526  1.00  0.00     0.162 HD
HETATM   16  O   UNL     1      44.024 -10.880   9.397  1.00  0.00    -0.273 OA
BRANCH  14  17
HETATM   17  C   UNL     1      43.106  -9.807  11.786  1.00  0.00     0.161 C 
BRANCH  17  18
HETATM   18  C   UNL     1      42.666  -8.955  12.950  1.00  0.00    -0.041 A 
HETATM   19  C   UNL     1      41.585  -9.301  13.774  1.00  0.00     0.009 A 
HETATM   20  C   UNL     1      41.242  -8.506  14.870  1.00  0.00     0.001 A 
HETATM   21  C   UNL     1      41.988  -7.369  15.171  1.00  0.00     0.000 A 
HETATM   22  C   UNL     1      43.080  -7.026  14.379  1.00  0.00     0.001 A 
HETATM   23  C   UNL     1      43.417  -7.814  13.277  1.00  0.00     0.009 A 
ENDBRANCH  17  18
ENDBRANCH  14  17
ENDBRANCH  12  13
ENDBRANCH  11  12
ENDBRANCH   4  11
BRANCH   8  24
HETATM   24  C   UNL     1      40.550 -11.914   3.474  1.00  0.00     0.066 A 
HETATM   25  O   UNL     1      40.424 -11.682   2.136  1.00  0.00    -0.326 OA
HETATM   26  C   UNL     1      39.167 -12.052   1.784  1.00  0.00     0.142 A 
HETATM   27  C   UNL     1      38.482 -12.526   2.877  1.00  0.00     0.027 A 
HETATM   28  C   UNL     1      39.375 -12.441   3.973  1.00  0.00     0.035 A 
ENDBRANCH   8  24
BRANCH   9  29
HETATM   29  C   UNL     1      42.990 -13.982   3.932  1.00  0.00     0.255 C 
HETATM   30  N   UNL     1      42.669 -15.244   4.391  1.00  0.00    -0.322 N 
HETATM   31  H   UNL     1      42.180 -15.352   5.274  1.00  0.00     0.169 HD
HETATM   32  O   UNL     1      43.589 -13.784   2.878  1.00  0.00    -0.268 OA
BRANCH  30  33
HETATM   33  C   UNL     1      42.927 -16.488   3.747  1.00  0.00     0.057 A 
HETATM   34  C   UNL     1      43.888 -17.353   4.311  1.00  0.00     0.062 A 
HETATM   35 CL   UNL     1      44.721 -16.936   5.770  1.00  0.00    -0.082 Cl
HETATM   36  C   UNL     1      44.179 -18.593   3.734  1.00  0.00     0.050 A 
HETATM   37  C   UNL     1      43.515 -18.983   2.577  1.00  0.00     0.035 A 
HETATM   38 CL   UNL     1      43.861 -20.508   1.862  1.00  0.00    -0.084 Cl
HETATM   39  C   UNL     1      42.568 -18.145   1.999  1.00  0.00     0.026 A 
HETATM   40  C   UNL     1      42.276 -16.906   2.580  1.00  0.00     0.033 A 
ENDBRANCH  30  33
ENDBRANCH   9  29
TORSDOF 8
ENDMDL
MODEL 2
REMARK VINA RESULT:      -9.4      4.792      8.977
REMARK  8 active torsions:
REMARK  status: ('A' for Active; 'I' for Inactive)
REMARK    1  A    between atoms: C_4  and  S_5 
REMARK    2  A    between atoms: S_5  and  C_6 
REMARK    3  A    between atoms: C_6  and  C_7 
REMARK       I    between atoms: C_7  and  N_8 
REMARK    4  A    between atoms: N_8  and  C_9 
REMARK    5  A    between atoms: C_9  and  C_10 
REMARK    6  A    between atoms: C_20  and  C_21 
REMARK    7  A    between atoms: C_26  and  C_27 
REMARK       I    between atoms: C_27  and  N_28 
REMARK    8  A    between atoms: N_28  and  C_29 
ROOT
HETATM    1  C   UNL     1      39.896 -14.789   0.526  1.00  0.00     0.069 C 
HETATM    2  C   UNL     1      39.855 -13.829   1.693  1.00  0.00     0.019 C 
HETATM    3  N   UNL     1      39.319 -12.584   1.396  1.00  0.00    -0.353 N 
HETATM    4  C   UNL     1      38.987 -11.609   2.321  1.00  0.00     0.088 C 
HETATM    5  C   UNL     1      39.401 -11.773   3.601  1.00  0.00     0.071 C 
HETATM    6  C   UNL     1      39.086 -10.853   4.649  1.00  0.00     0.099 C 
HETATM    7  N   UNL     1      38.838 -10.126   5.519  1.00  0.00    -0.192 NA
HETATM    8  C   UNL     1      40.238 -12.997   4.004  1.00  0.00     0.130 C 
HETATM    9  C   UNL     1      40.279 -14.107   2.953  1.00  0.00     0.048 C 
HETATM   10  H   UNL     1      38.835 -12.531   0.507  1.00  0.00     0.166 HD
ENDROOT
BRANCH   4  11
HETATM   11  S   UNL     1      38.018 -10.193   1.891  1.00  0.00    -0.102 SA
BRANCH  11  12
HETATM   12  C   UNL     1      39.256  -9.031   1.256  1.00  0.00     0.183 C 
BRANCH  12  13
HETATM   13  C   UNL     1      39.804  -9.414  -0.107  1.00  0.00     0.227 C 
HETATM   14  N   UNL     1      38.898  -9.913  -1.013  1.00  0.00    -0.356 N 
HETATM   15  H   UNL     1      38.069 -10.361  -0.635  1.00  0.00     0.162 HD
HETATM   16  O   UNL     1      40.976  -9.184  -0.399  1.00  0.00    -0.273 OA
BRANCH  14  17
HETATM   17  C   UNL     1      39.334 -10.302  -2.336  1.00  0.00     0.161 C 
BRANCH  17  18
HETATM   18  C   UNL     1      39.228 -11.782  -2.605  1.00  0.00    -0.041 A 
HETATM   19  C   UNL     1      40.353 -12.606  -2.759  1.00  0.00     0.009 A 
HETATM   20  C   UNL     1      40.207 -13.980  -2.960  1.00  0.00     0.001 A 
HETATM   21  C   UNL     1      38.938 -14.553  -2.986  1.00  0.00     0.000 A 
HETATM   22  C   UNL     1      37.812 -13.754  -2.809  1.00  0.00     0.001 A 
HETATM   23  C   UNL     1      37.956 -12.378  -2.617  1.00  0.00     0.009 A 
ENDBRANCH  17  18
ENDBRANCH  14  17
ENDBRANCH  12  13
ENDBRANCH  11  12
ENDBRANCH   4  11
BRANCH   8  24
HETATM   24  C   UNL     1      41.626 -12.598   4.438  1.00  0.00     0.066 A 
HETATM   25  O   UNL     1      42.539 -12.420   3.441  1.00  0.00    -0.326 OA
HETATM   26  C   UNL     1      43.706 -12.054   4.029  1.00  0.00     0.142 A 
HETATM   27  C   UNL     1      43.556 -11.988   5.394  1.00  0.00     0.027 A 
HETATM   28  C   UNL     1      42.209 -12.337   5.662  1.00  0.00     0.035 A 
ENDBRANCH   8  24
BRANCH   9  29
HETATM   29  C   UNL     1      40.742 -15.502   3.331  1.00  0.00     0.255 C 
HETATM   30  N   UNL     1      42.095 -15.759   3.237  1.00  0.00    -0.322 N 
HETATM   31  H   UNL     1      42.722 -15.047   2.878  1.00  0.00     0.169 HD
HETATM   32  O   UNL     1      39.929 -16.323   3.747  1.00  0.00    -0.268 OA
BRANCH  30  33
HETATM   33  C   UNL     1      42.774 -16.952   3.618  1.00  0.00     0.057 A 
HETATM   34  C   UNL     1      43.094 -17.140   4.979  1.00  0.00     0.062 A 
HETATM   35 CL   UNL     1      42.652 -15.969   6.173  1.00  0.00    -0.082 Cl
HETATM   36  C   UNL     1      43.751 -18.294   5.420  1.00  0.00     0.050 A 
HETATM   37  C   UNL     1      44.101 -19.275   4.500  1.00  0.00     0.035 A 
HETATM   38 CL   UNL     1      44.903 -20.700   5.030  1.00  0.00    -0.084 Cl
HETATM   39  C   UNL     1      43.802 -19.110   3.152  1.00  0.00     0.026 A 
HETATM   40  C   UNL     1      43.142 -17.955   2.715  1.00  0.00     0.033 A 
ENDBRANCH  30  33
ENDBRANCH   9  29
TORSDOF 8
ENDMDL
MODEL 3
REMARK VINA RESULT:      -9.4      2.445      4.053
REMARK  8 active torsions:
REMARK  status: ('A' for Active; 'I' for Inactive)
REMARK    1  A    between atoms: C_4  and  S_5 
REMARK    2  A    between atoms: S_5  and  C_6 
REMARK    3  A    between atoms: C_6  and  C_7 
REMARK       I    between atoms: C_7  and  N_8 
REMARK    4  A    between atoms: N_8  and  C_9 
REMARK    5  A    between atoms: C_9  and  C_10 
REMARK    6  A    between atoms: C_20  and  C_21 
REMARK    7  A    between atoms: C_26  and  C_27 
REMARK       I    between atoms: C_27  and  N_28 
REMARK    8  A    between atoms: N_28  and  C_29 
ROOT
HETATM    1  C   UNL     1      40.823 -11.198   1.525  1.00  0.00     0.069 C 
HETATM    2  C   UNL     1      40.908 -10.921   3.010  1.00  0.00     0.019 C 
HETATM    3  N   UNL     1      40.687  -9.596   3.361  1.00  0.00    -0.353 N 
HETATM    4  C   UNL     1      40.511  -9.124   4.650  1.00  0.00     0.088 C 
HETATM    5  C   UNL     1      40.780  -9.962   5.681  1.00  0.00     0.071 C 
HETATM    6  C   UNL     1      40.599  -9.599   7.052  1.00  0.00     0.099 C 
HETATM    7  N   UNL     1      40.454  -9.331   8.172  1.00  0.00    -0.192 NA
HETATM    8  C   UNL     1      41.290 -11.387   5.421  1.00  0.00     0.130 C 
HETATM    9  C   UNL     1      41.163 -11.848   3.968  1.00  0.00     0.048 C 
HETATM   10  H   UNL     1      40.296  -9.020   2.624  1.00  0.00     0.166 HD
ENDROOT
BRANCH   4  11
HETATM   11  S   UNL     1      39.918  -7.492   4.983  1.00  0.00    -0.102 SA
BRANCH  11  12
HETATM   12  C   UNL     1      41.445  -6.528   5.141  1.00  0.00     0.183 C 
BRANCH  12  13
HETATM   13  C   UNL     1      41.767  -6.134   6.571  1.00  0.00     0.227 C 
HETATM   14  N   UNL     1      42.492  -7.041   7.307  1.00  0.00    -0.356 N 
HETATM   15  H   UNL     1      42.422  -8.015   7.035  1.00  0.00     0.162 HD
HETATM   16  O   UNL     1      41.477  -5.016   6.994  1.00  0.00    -0.273 OA
BRANCH  14  17
HETATM   17  C   UNL     1      42.845  -6.745   8.679  1.00  0.00     0.161 C 
BRANCH  17  18
HETATM   18  C   UNL     1      43.711  -7.794   9.328  1.00  0.00    -0.041 A 
HETATM   19  C   UNL     1      43.394  -8.379  10.563  1.00  0.00     0.009 A 
HETATM   20  C   UNL     1      44.201  -9.383  11.104  1.00  0.00     0.001 A 
HETATM   21  C   UNL     1      45.321  -9.831  10.409  1.00  0.00     0.000 A 
HETATM   22  C   UNL     1      45.635  -9.280   9.170  1.00  0.00     0.001 A 
HETATM   23  C   UNL     1      44.835  -8.270   8.632  1.00  0.00     0.009 A 
ENDBRANCH  17  18
ENDBRANCH  14  17
ENDBRANCH  12  13
ENDBRANCH  11  12
ENDBRANCH   4  11
BRANCH   8  24
HETATM   24  C   UNL     1      42.695 -11.574   5.936  1.00  0.00     0.066 A 
HETATM   25  O   UNL     1      43.699 -11.233   5.078  1.00  0.00    -0.326 OA
HETATM   26  C   UNL     1      44.870 -11.456   5.727  1.00  0.00     0.142 A 
HETATM   27  C   UNL     1      44.634 -11.932   6.995  1.00  0.00     0.027 A 
HETATM   28  C   UNL     1      43.226 -12.007   7.134  1.00  0.00     0.035 A 
ENDBRANCH   8  24
BRANCH   9  29
HETATM   29  C   UNL     1      41.273 -13.320   3.620  1.00  0.00     0.255 C 
HETATM   30  N   UNL     1      42.546 -13.844   3.510  1.00  0.00    -0.322 N 
HETATM   31  H   UNL     1      43.353 -13.237   3.611  1.00  0.00     0.169 HD
HETATM   32  O   UNL     1      40.256 -13.998   3.499  1.00  0.00    -0.268 OA
BRANCH  30  33
HETATM   33  C   UNL     1      42.902 -15.204   3.283  1.00  0.00     0.057 A 
HETATM   34  C   UNL     1      43.278 -15.997   4.388  1.00  0.00     0.062 A 
HETATM   35 CL   UNL     1      43.283 -15.349   5.993  1.00  0.00    -0.082 Cl
HETATM   36  C   UNL     1      43.628 -17.342   4.235  1.00  0.00     0.050 A 
HETATM   37  C   UNL     1      43.612 -17.912   2.967  1.00  0.00     0.035 A 
HETATM   38 CL   UNL     1      44.036 -19.567   2.766  1.00  0.00    -0.084 Cl
HETATM   39  C   UNL     1      43.251 -17.151   1.862  1.00  0.00     0.026 A 
HETATM   40  C   UNL     1      42.898 -15.805   2.019  1.00  0.00     0.033 A 
ENDBRANCH  30  33
ENDBRANCH   9  29
TORSDOF 8
ENDMDL
MODEL 4
REMARK VINA RESULT:      -9.4      4.522      8.621
REMARK  8 active torsions:
REMARK  status: ('A' for Active; 'I' for Inactive)
REMARK    1  A    between atoms: C_4  and  S_5 
REMARK    2  A    between atoms: S_5  and  C_6 
REMARK    3  A    between atoms: C_6  and  C_7 
REMARK       I    between atoms: C_7  and  N_8 
REMARK    4  A    between atoms: N_8  and  C_9 
REMARK    5  A    between atoms: C_9  and  C_10 
REMARK    6  A    between atoms: C_20  and  C_21 
REMARK    7  A    between atoms: C_26  and  C_27 
REMARK       I    between atoms: C_27  and  N_28 
REMARK    8  A    between atoms: N_28  and  C_29 
ROOT
HETATM    1  C   UNL     1      40.661 -14.179   0.940  1.00  0.00     0.069 C 
HETATM    2  C   UNL     1      40.566 -13.307   2.172  1.00  0.00     0.019 C 
HETATM    3  N   UNL     1      40.179 -11.998   1.922  1.00  0.00    -0.353 N 
HETATM    4  C   UNL     1      39.827 -11.065   2.882  1.00  0.00     0.088 C 
HETATM    5  C   UNL     1      40.072 -11.361   4.182  1.00  0.00     0.071 C 
HETATM    6  C   UNL     1      39.716 -10.494   5.262  1.00  0.00     0.099 C 
HETATM    7  N   UNL     1      39.432  -9.811   6.156  1.00  0.00    -0.192 NA
HETATM    8  C   UNL     1      40.746 -12.685   4.571  1.00  0.00     0.130 C 
HETATM    9  C   UNL     1      40.814 -13.715   3.443  1.00  0.00     0.048 C 
HETATM   10  H   UNL     1      39.810 -11.834   0.993  1.00  0.00     0.166 HD
ENDROOT
BRANCH   4  11
HETATM   11  S   UNL     1      39.042  -9.536   2.467  1.00  0.00    -0.102 SA
BRANCH  11  12
HETATM   12  C   UNL     1      40.343  -8.640   1.578  1.00  0.00     0.183 C 
BRANCH  12  13
HETATM   13  C   UNL     1      40.872  -9.385   0.366  1.00  0.00     0.227 C 
HETATM   14  N   UNL     1      40.047  -9.431  -0.733  1.00  0.00    -0.356 N 
HETATM   15  H   UNL     1      39.050  -9.345  -0.564  1.00  0.00     0.162 HD
HETATM   16  O   UNL     1      42.021  -9.825   0.352  1.00  0.00    -0.273 OA
BRANCH  14  17
HETATM   17  C   UNL     1      40.473 -10.120  -1.932  1.00  0.00     0.161 C 
BRANCH  17  18
HETATM   18  C   UNL     1      39.957 -11.532  -2.042  1.00  0.00    -0.041 A 
HETATM   19  C   UNL     1      38.653 -11.893  -1.673  1.00  0.00     0.009 A 
HETATM   20  C   UNL     1      38.203 -13.205  -1.837  1.00  0.00     0.001 A 
HETATM   21  C   UNL     1      39.042 -14.169  -2.392  1.00  0.00     0.000 A 
HETATM   22  C   UNL     1      40.331 -13.822  -2.788  1.00  0.00     0.001 A 
HETATM   23  C   UNL     1      40.785 -12.512  -2.616  1.00  0.00     0.009 A 
ENDBRANCH  17  18
ENDBRANCH  14  17
ENDBRANCH  12  13
ENDBRANCH  11  12
ENDBRANCH   4  11
BRANCH   8  24
HETATM   24  C   UNL     1      42.103 -12.453   5.188  1.00  0.00     0.066 A 
HETATM   25  O   UNL     1      42.432 -13.263   6.234  1.00  0.00    -0.326 OA
HETATM   26  C   UNL     1      43.681 -12.911   6.633  1.00  0.00     0.142 A 
HETATM   27  C   UNL     1      44.163 -11.886   5.854  1.00  0.00     0.027 A 
HETATM   28  C   UNL     1      43.144 -11.589   4.915  1.00  0.00     0.035 A 
ENDBRANCH   8  24
BRANCH   9  29
HETATM   29  C   UNL     1      41.106 -15.171   3.753  1.00  0.00     0.255 C 
HETATM   30  N   UNL     1      42.425 -15.511   3.978  1.00  0.00    -0.322 N 
HETATM   31  H   UNL     1      43.152 -14.809   3.881  1.00  0.00     0.169 HD
HETATM   32  O   UNL     1      40.181 -15.974   3.842  1.00  0.00    -0.268 OA
BRANCH  30  33
HETATM   33  C   UNL     1      42.933 -16.782   4.370  1.00  0.00     0.057 A 
HETATM   34  C   UNL     1      43.402 -17.659   3.369  1.00  0.00     0.062 A 
HETATM   35 CL   UNL     1      43.390 -17.200   1.701  1.00  0.00    -0.082 Cl
HETATM   36  C   UNL     1      43.923 -18.917   3.689  1.00  0.00     0.050 A 
HETATM   37  C   UNL     1      43.978 -19.317   5.019  1.00  0.00     0.035 A 
HETATM   38 CL   UNL     1      44.622 -20.859   5.425  1.00  0.00    -0.084 Cl
HETATM   39  C   UNL     1      43.517 -18.473   6.023  1.00  0.00     0.026 A 
HETATM   40  C   UNL     1      42.998 -17.214   5.700  1.00  0.00     0.033 A 
ENDBRANCH  30  33
ENDBRANCH   9  29
TORSDOF 8
ENDMDL
MODEL 5
REMARK VINA RESULT:      -9.3      3.011      4.917
REMARK  8 active torsions:
REMARK  status: ('A' for Active; 'I' for Inactive)
REMARK    1  A    between atoms: C_4  and  S_5 
REMARK    2  A    between atoms: S_5  and  C_6 
REMARK    3  A    between atoms: C_6  and  C_7 
REMARK       I    between atoms: C_7  and  N_8 
REMARK    4  A    between atoms: N_8  and  C_9 
REMARK    5  A    between atoms: C_9  and  C_10 
REMARK    6  A    between atoms: C_20  and  C_21 
REMARK    7  A    between atoms: C_26  and  C_27 
REMARK       I    between atoms: C_27  and  N_28 
REMARK    8  A    between atoms: N_28  and  C_29 
ROOT
HETATM    1  C   UNL     1      42.337 -10.702   2.495  1.00  0.00     0.069 C 
HETATM    2  C   UNL     1      42.316 -11.896   3.423  1.00  0.00     0.019 C 
HETATM    3  N   UNL     1      43.109 -11.760   4.553  1.00  0.00    -0.353 N 
HETATM    4  C   UNL     1      43.108 -12.612   5.645  1.00  0.00     0.088 C 
HETATM    5  C   UNL     1      42.447 -13.790   5.536  1.00  0.00     0.071 C 
HETATM    6  C   UNL     1      42.345 -14.731   6.608  1.00  0.00     0.099 C 
HETATM    7  N   UNL     1      42.242 -15.508   7.464  1.00  0.00    -0.192 NA
HETATM    8  C   UNL     1      41.742 -14.176   4.228  1.00  0.00     0.130 C 
HETATM    9  C   UNL     1      41.592 -13.029   3.228  1.00  0.00     0.048 C 
HETATM   10  H   UNL     1      43.439 -10.818   4.731  1.00  0.00     0.166 HD
ENDROOT
BRANCH   4  11
HETATM   11  S   UNL     1      43.903 -12.193   7.168  1.00  0.00    -0.102 SA
BRANCH  11  12
HETATM   12  C   UNL     1      43.584 -10.415   7.318  1.00  0.00     0.183 C 
BRANCH  12  13
HETATM   13  C   UNL     1      44.285  -9.772   8.501  1.00  0.00     0.227 C 
HETATM   14  N   UNL     1      43.846 -10.145   9.749  1.00  0.00    -0.356 N 
HETATM   15  H   UNL     1      42.889 -10.473   9.821  1.00  0.00     0.162 HD
HETATM   16  O   UNL     1      45.259  -9.040   8.331  1.00  0.00    -0.273 OA
BRANCH  14  17
HETATM   17  C   UNL     1      44.460  -9.581  10.932  1.00  0.00     0.161 C 
BRANCH  17  18
HETATM   18  C   UNL     1      43.478  -9.220  12.017  1.00  0.00    -0.041 A 
HETATM   19  C   UNL     1      43.532  -8.005  12.715  1.00  0.00     0.009 A 
HETATM   20  C   UNL     1      42.573  -7.693  13.681  1.00  0.00     0.001 A 
HETATM   21  C   UNL     1      41.532  -8.580  13.945  1.00  0.00     0.000 A 
HETATM   22  C   UNL     1      41.448  -9.779  13.244  1.00  0.00     0.001 A 
HETATM   23  C   UNL     1      42.412 -10.096  12.285  1.00  0.00     0.009 A 
ENDBRANCH  17  18
ENDBRANCH  14  17
ENDBRANCH  12  13
ENDBRANCH  11  12
ENDBRANCH   4  11
BRANCH   8  24
HETATM   24  C   UNL     1      42.384 -15.382   3.589  1.00  0.00     0.066 A 
HETATM   25  O   UNL     1      43.135 -15.143   2.476  1.00  0.00    -0.326 OA
HETATM   26  C   UNL     1      43.632 -16.338   2.067  1.00  0.00     0.142 A 
HETATM   27  C   UNL     1      43.215 -17.344   2.905  1.00  0.00     0.027 A 
HETATM   28  C   UNL     1      42.409 -16.728   3.894  1.00  0.00     0.035 A 
ENDBRANCH   8  24
BRANCH   9  29
HETATM   29  C   UNL     1      40.617 -13.142   2.072  1.00  0.00     0.255 C 
HETATM   30  N   UNL     1      41.142 -13.489   0.843  1.00  0.00    -0.322 N 
HETATM   31  H   UNL     1      42.145 -13.603   0.734  1.00  0.00     0.169 HD
HETATM   32  O   UNL     1      39.416 -12.979   2.267  1.00  0.00    -0.268 OA
BRANCH  30  33
HETATM   33  C   UNL     1      40.424 -13.742  -0.361  1.00  0.00     0.057 A 
HETATM   34  C   UNL     1      39.736 -14.967  -0.491  1.00  0.00     0.062 A 
HETATM   35 CL   UNL     1      39.735 -16.132   0.788  1.00  0.00    -0.082 Cl
HETATM   36  C   UNL     1      39.004 -15.273  -1.643  1.00  0.00     0.050 A 
HETATM   37  C   UNL     1      38.954 -14.355  -2.685  1.00  0.00     0.035 A 
HETATM   38 CL   UNL     1      38.052 -14.717  -4.104  1.00  0.00    -0.084 Cl
HETATM   39  C   UNL     1      39.628 -13.143  -2.584  1.00  0.00     0.026 A 
HETATM   40  C   UNL     1      40.358 -12.839  -1.428  1.00  0.00     0.033 A 
ENDBRANCH  30  33
ENDBRANCH   9  29
TORSDOF 8
ENDMDL
MODEL 6
REMARK VINA RESULT:      -9.2      4.654      6.524
REMARK  8 active torsions:
REMARK  status: ('A' for Active; 'I' for Inactive)
REMARK    1  A    between atoms: C_4  and  S_5 
REMARK    2  A    between atoms: S_5  and  C_6 
REMARK    3  A    between atoms: C_6  and  C_7 
REMARK       I    between atoms: C_7  and  N_8 
REMARK    4  A    between atoms: N_8  and  C_9 
REMARK    5  A    between atoms: C_9  and  C_10 
REMARK    6  A    between atoms: C_20  and  C_21 
REMARK    7  A    between atoms: C_26  and  C_27 
REMARK       I    between atoms: C_27  and  N_28 
REMARK    8  A    between atoms: N_28  and  C_29 
ROOT
HETATM    1  C   UNL     1      39.015 -12.326   2.991  1.00  0.00     0.069 C 
HETATM    2  C   UNL     1      39.391 -12.008   1.561  1.00  0.00     0.019 C 
HETATM    3  N   UNL     1      39.061 -10.724   1.151  1.00  0.00    -0.353 N 
HETATM    4  C   UNL     1      39.473 -10.125  -0.027  1.00  0.00     0.088 C 
HETATM    5  C   UNL     1      40.068 -10.900  -0.966  1.00  0.00     0.071 C 
HETATM    6  C   UNL     1      40.569 -10.386  -2.203  1.00  0.00     0.099 C 
HETATM    7  N   UNL     1      40.988  -9.992  -3.210  1.00  0.00    -0.192 NA
HETATM    8  C   UNL     1      40.256 -12.407  -0.735  1.00  0.00     0.130 C 
HETATM    9  C   UNL     1      40.013 -12.860   0.706  1.00  0.00     0.048 C 
HETATM   10  H   UNL     1      38.803 -10.091   1.900  1.00  0.00     0.166 HD
ENDROOT
BRANCH   4  11
HETATM   11  S   UNL     1      39.279  -8.391  -0.320  1.00  0.00    -0.102 SA
BRANCH  11  12
HETATM   12  C   UNL     1      40.410  -7.646   0.885  1.00  0.00     0.183 C 
BRANCH  12  13
HETATM   13  C   UNL     1      40.190  -8.136   2.305  1.00  0.00     0.227 C 
HETATM   14  N   UNL     1      41.299  -8.601   2.971  1.00  0.00    -0.356 N 
HETATM   15  H   UNL     1      42.059  -8.962   2.403  1.00  0.00     0.162 HD
HETATM   16  O   UNL     1      39.093  -8.015   2.848  1.00  0.00    -0.273 OA
BRANCH  14  17
HETATM   17  C   UNL     1      41.180  -9.086   4.329  1.00  0.00     0.161 C 
BRANCH  17  18
HETATM   18  C   UNL     1      42.119 -10.218   4.659  1.00  0.00    -0.041 A 
HETATM   19  C   UNL     1      42.767 -10.976   3.672  1.00  0.00     0.009 A 
HETATM   20  C   UNL     1      43.666 -11.986   4.025  1.00  0.00     0.001 A 
HETATM   21  C   UNL     1      43.947 -12.236   5.366  1.00  0.00     0.000 A 
HETATM   22  C   UNL     1      43.332 -11.476   6.357  1.00  0.00     0.001 A 
HETATM   23  C   UNL     1      42.427 -10.473   6.006  1.00  0.00     0.009 A 
ENDBRANCH  17  18
ENDBRANCH  14  17
ENDBRANCH  12  13
ENDBRANCH  11  12
ENDBRANCH   4  11
BRANCH   8  24
HETATM   24  C   UNL     1      39.444 -13.221  -1.712  1.00  0.00     0.066 A 
HETATM   25  O   UNL     1      38.107 -12.958  -1.746  1.00  0.00    -0.326 OA
HETATM   26  C   UNL     1      37.565 -13.772  -2.687  1.00  0.00     0.142 A 
HETATM   27  C   UNL     1      38.537 -14.553  -3.264  1.00  0.00     0.027 A 
HETATM   28  C   UNL     1      39.756 -14.196  -2.637  1.00  0.00     0.035 A 
ENDBRANCH   8  24
BRANCH   9  29
HETATM   29  C   UNL     1      40.502 -14.217   1.174  1.00  0.00     0.255 C 
HETATM   30  N   UNL     1      41.681 -14.244   1.893  1.00  0.00    -0.322 N 
HETATM   31  H   UNL     1      42.203 -13.386   2.040  1.00  0.00     0.169 HD
HETATM   32  O   UNL     1      39.829 -15.220   0.951  1.00  0.00    -0.268 OA
BRANCH  30  33
HETATM   33  C   UNL     1      42.290 -15.374   2.510  1.00  0.00     0.057 A 
HETATM   34  C   UNL     1      42.122 -15.556   3.899  1.00  0.00     0.062 A 
HETATM   35 CL   UNL     1      41.176 -14.452   4.838  1.00  0.00    -0.082 Cl
HETATM   36  C   UNL     1      42.685 -16.650   4.563  1.00  0.00     0.050 A 
HETATM   37  C   UNL     1      43.430 -17.578   3.844  1.00  0.00     0.035 A 
HETATM   38 CL   UNL     1      44.122 -18.930   4.649  1.00  0.00    -0.084 Cl
HETATM   39  C   UNL     1      43.614 -17.417   2.475  1.00  0.00     0.026 A 
HETATM   40  C   UNL     1      43.047 -16.322   1.813  1.00  0.00     0.033 A 
ENDBRANCH  30  33
ENDBRANCH   9  29
TORSDOF 8
ENDMDL
MODEL 7
REMARK VINA RESULT:      -9.2      3.568      4.630
REMARK  8 active torsions:
REMARK  status: ('A' for Active; 'I' for Inactive)
REMARK    1  A    between atoms: C_4  and  S_5 
REMARK    2  A    between atoms: S_5  and  C_6 
REMARK    3  A    between atoms: C_6  and  C_7 
REMARK       I    between atoms: C_7  and  N_8 
REMARK    4  A    between atoms: N_8  and  C_9 
REMARK    5  A    between atoms: C_9  and  C_10 
REMARK    6  A    between atoms: C_20  and  C_21 
REMARK    7  A    between atoms: C_26  and  C_27 
REMARK       I    between atoms: C_27  and  N_28 
REMARK    8  A    between atoms: N_28  and  C_29 
ROOT
HETATM    1  C   UNL     1      39.748 -13.033   5.215  1.00  0.00     0.069 C 
HETATM    2  C   UNL     1      40.196 -12.422   3.906  1.00  0.00     0.019 C 
HETATM    3  N   UNL     1      39.995 -11.051   3.813  1.00  0.00    -0.353 N 
HETATM    4  C   UNL     1      40.495 -10.231   2.817  1.00  0.00     0.088 C 
HETATM    5  C   UNL     1      41.047 -10.814   1.724  1.00  0.00     0.071 C 
HETATM    6  C   UNL     1      41.629 -10.070   0.651  1.00  0.00     0.099 C 
HETATM    7  N   UNL     1      42.113  -9.490  -0.230  1.00  0.00    -0.192 NA
HETATM    8  C   UNL     1      41.090 -12.343   1.589  1.00  0.00     0.130 C 
HETATM    9  C   UNL     1      40.763 -13.101   2.877  1.00  0.00     0.048 C 
HETATM   10  H   UNL     1      39.773 -10.594   4.689  1.00  0.00     0.166 HD
ENDROOT
BRANCH   4  11
HETATM   11  S   UNL     1      40.468  -8.467   2.946  1.00  0.00    -0.102 SA
BRANCH  11  12
HETATM   12  C   UNL     1      39.797  -8.192   4.607  1.00  0.00     0.183 C 
BRANCH  12  13
HETATM   13  C   UNL     1      40.852  -8.212   5.698  1.00  0.00     0.227 C 
HETATM   14  N   UNL     1      40.861  -9.313   6.521  1.00  0.00    -0.356 N 
HETATM   15  H   UNL     1      39.985  -9.814   6.629  1.00  0.00     0.162 HD
HETATM   16  O   UNL     1      41.710  -7.332   5.758  1.00  0.00    -0.273 OA
BRANCH  14  17
HETATM   17  C   UNL     1      41.835  -9.415   7.586  1.00  0.00     0.161 C 
BRANCH  17  18
HETATM   18  C   UNL     1      43.030 -10.267   7.243  1.00  0.00    -0.041 A 
HETATM   19  C   UNL     1      44.280 -10.101   7.857  1.00  0.00     0.009 A 
HETATM   20  C   UNL     1      45.348 -10.945   7.541  1.00  0.00     0.001 A 
HETATM   21  C   UNL     1      45.174 -11.980   6.626  1.00  0.00     0.000 A 
HETATM   22  C   UNL     1      43.933 -12.176   6.026  1.00  0.00     0.001 A 
HETATM   23  C   UNL     1      42.868 -11.327   6.334  1.00  0.00     0.009 A 
ENDBRANCH  17  18
ENDBRANCH  14  17
ENDBRANCH  12  13
ENDBRANCH  11  12
ENDBRANCH   4  11
BRANCH   8  24
HETATM   24  C   UNL     1      40.239 -12.820   0.439  1.00  0.00     0.066 A 
HETATM   25  O   UNL     1      40.698 -13.913  -0.235  1.00  0.00    -0.326 OA
HETATM   26  C   UNL     1      39.796 -14.189  -1.210  1.00  0.00     0.142 A 
HETATM   27  C   UNL     1      38.756 -13.290  -1.171  1.00  0.00     0.027 A 
HETATM   28  C   UNL     1      39.039 -12.404  -0.102  1.00  0.00     0.035 A 
ENDBRANCH   8  24
BRANCH   9  29
HETATM   29  C   UNL     1      41.114 -14.570   3.010  1.00  0.00     0.255 C 
HETATM   30  N   UNL     1      42.375 -14.872   3.483  1.00  0.00    -0.322 N 
HETATM   31  H   UNL     1      43.036 -14.126   3.675  1.00  0.00     0.169 HD
HETATM   32  O   UNL     1      40.272 -15.426   2.749  1.00  0.00    -0.268 OA
BRANCH  30  33
HETATM   33  C   UNL     1      42.900 -16.163   3.777  1.00  0.00     0.057 A 
HETATM   34  C   UNL     1      43.009 -16.556   5.128  1.00  0.00     0.062 A 
HETATM   35 CL   UNL     1      42.493 -15.512   6.407  1.00  0.00    -0.082 Cl
HETATM   36  C   UNL     1      43.506 -17.814   5.483  1.00  0.00     0.050 A 
HETATM   37  C   UNL     1      43.906 -18.697   4.487  1.00  0.00     0.035 A 
HETATM   38 CL   UNL     1      44.513 -20.249   4.911  1.00  0.00    -0.084 Cl
HETATM   39  C   UNL     1      43.814 -18.332   3.149  1.00  0.00     0.026 A 
HETATM   40  C   UNL     1      43.314 -17.072   2.797  1.00  0.00     0.033 A 
ENDBRANCH  30  33
ENDBRANCH   9  29
TORSDOF 8
ENDMDL
MODEL 8
REMARK VINA RESULT:      -8.9      3.851     10.418
REMARK  8 active torsions:
REMARK  status: ('A' for Active; 'I' for Inactive)
REMARK    1  A    between atoms: C_4  and  S_5 
REMARK    2  A    between atoms: S_5  and  C_6 
REMARK    3  A    between atoms: C_6  and  C_7 
REMARK       I    between atoms: C_7  and  N_8 
REMARK    4  A    between atoms: N_8  and  C_9 
REMARK    5  A    between atoms: C_9  and  C_10 
REMARK    6  A    between atoms: C_20  and  C_21 
REMARK    7  A    between atoms: C_26  and  C_27 
REMARK       I    between atoms: C_27  and  N_28 
REMARK    8  A    between atoms: N_28  and  C_29 
ROOT
HETATM    1  C   UNL     1      45.063 -10.532   8.385  1.00  0.00     0.069 C 
HETATM    2  C   UNL     1      43.739 -10.766   7.692  1.00  0.00     0.019 C 
HETATM    3  N   UNL     1      43.745 -11.810   6.779  1.00  0.00    -0.353 N 
HETATM    4  C   UNL     1      42.626 -12.353   6.169  1.00  0.00     0.088 C 
HETATM    5  C   UNL     1      41.447 -11.696   6.294  1.00  0.00     0.071 C 
HETATM    6  C   UNL     1      40.220 -12.179   5.742  1.00  0.00     0.099 C 
HETATM    7  N   UNL     1      39.211 -12.553   5.310  1.00  0.00    -0.192 NA
HETATM    8  C   UNL     1      41.365 -10.373   7.071  1.00  0.00     0.130 C 
HETATM    9  C   UNL     1      42.602 -10.056   7.912  1.00  0.00     0.048 C 
HETATM   10  H   UNL     1      44.555 -12.417   6.831  1.00  0.00     0.166 HD
ENDROOT
BRANCH   4  11
HETATM   11  S   UNL     1      42.687 -13.878   5.276  1.00  0.00    -0.102 SA
BRANCH  11  12
HETATM   12  C   UNL     1      43.143 -13.350   3.602  1.00  0.00     0.183 C 
BRANCH  12  13
HETATM   13  C   UNL     1      43.306 -14.503   2.627  1.00  0.00     0.227 C 
HETATM   14  N   UNL     1      42.792 -15.715   3.021  1.00  0.00    -0.356 N 
HETATM   15  H   UNL     1      42.713 -15.880   4.019  1.00  0.00     0.162 HD
HETATM   16  O   UNL     1      43.782 -14.315   1.509  1.00  0.00    -0.273 OA
BRANCH  14  17
HETATM   17  C   UNL     1      42.902 -16.866   2.152  1.00  0.00     0.161 C 
BRANCH  17  18
HETATM   18  C   UNL     1      43.352 -18.122   2.855  1.00  0.00    -0.041 A 
HETATM   19  C   UNL     1      43.815 -18.124   4.179  1.00  0.00     0.009 A 
HETATM   20  C   UNL     1      44.177 -19.319   4.806  1.00  0.00     0.001 A 
HETATM   21  C   UNL     1      44.059 -20.529   4.127  1.00  0.00     0.000 A 
HETATM   22  C   UNL     1      43.578 -20.548   2.821  1.00  0.00     0.001 A 
HETATM   23  C   UNL     1      43.225 -19.354   2.190  1.00  0.00     0.009 A 
ENDBRANCH  17  18
ENDBRANCH  14  17
ENDBRANCH  12  13
ENDBRANCH  11  12
ENDBRANCH   4  11
BRANCH   8  24
HETATM   24  C   UNL     1      41.006  -9.222   6.164  1.00  0.00     0.066 A 
HETATM   25  O   UNL     1      41.800  -9.051   5.069  1.00  0.00    -0.326 OA
HETATM   26  C   UNL     1      41.309  -7.988   4.383  1.00  0.00     0.142 A 
HETATM   27  C   UNL     1      40.205  -7.474   5.020  1.00  0.00     0.027 A 
HETATM   28  C   UNL     1      40.005  -8.273   6.173  1.00  0.00     0.035 A 
ENDBRANCH   8  24
BRANCH   9  29
HETATM   29  C   UNL     1      42.538  -9.002   9.001  1.00  0.00     0.255 C 
HETATM   30  N   UNL     1      42.181  -9.428  10.264  1.00  0.00    -0.322 N 
HETATM   31  H   UNL     1      41.925 -10.399  10.417  1.00  0.00     0.169 HD
HETATM   32  O   UNL     1      42.848  -7.841   8.746  1.00  0.00    -0.268 OA
BRANCH  30  33
HETATM   33  C   UNL     1      42.138  -8.651  11.457  1.00  0.00     0.057 A 
HETATM   34  C   UNL     1      40.916  -8.051  11.827  1.00  0.00     0.062 A 
HETATM   35 CL   UNL     1      39.487  -8.270  10.877  1.00  0.00    -0.082 Cl
HETATM   36  C   UNL     1      40.805  -7.285  12.992  1.00  0.00     0.050 A 
HETATM   37  C   UNL     1      41.920  -7.104  13.801  1.00  0.00     0.035 A 
HETATM   38 CL   UNL     1      41.794  -6.169  15.239  1.00  0.00    -0.084 Cl
HETATM   39  C   UNL     1      43.137  -7.681  13.455  1.00  0.00     0.026 A 
HETATM   40  C   UNL     1      43.244  -8.449  12.290  1.00  0.00     0.033 A 
ENDBRANCH  30  33
ENDBRANCH   9  29
TORSDOF 8
ENDMDL
MODEL 9
REMARK VINA RESULT:      -8.8      4.279     10.928
REMARK  8 active torsions:
REMARK  status: ('A' for Active; 'I' for Inactive)
REMARK    1  A    between atoms: C_4  and  S_5 
REMARK    2  A    between atoms: S_5  and  C_6 
REMARK    3  A    between atoms: C_6  and  C_7 
REMARK       I    between atoms: C_7  and  N_8 
REMARK    4  A    between atoms: N_8  and  C_9 
REMARK    5  A    between atoms: C_9  and  C_10 
REMARK    6  A    between atoms: C_20  and  C_21 
REMARK    7  A    between atoms: C_26  and  C_27 
REMARK       I    between atoms: C_27  and  N_28 
REMARK    8  A    between atoms: N_28  and  C_29 
ROOT
HETATM    1  C   UNL     1      45.093 -10.103  10.792  1.00  0.00     0.069 C 
HETATM    2  C   UNL     1      44.033  -9.910   9.730  1.00  0.00     0.019 C 
HETATM    3  N   UNL     1      44.417 -10.304   8.456  1.00  0.00    -0.353 N 
HETATM    4  C   UNL     1      43.577 -10.419   7.362  1.00  0.00     0.088 C 
HETATM    5  C   UNL     1      42.323  -9.913   7.461  1.00  0.00     0.071 C 
HETATM    6  C   UNL     1      41.356 -10.007   6.412  1.00  0.00     0.099 C 
HETATM    7  N   UNL     1      40.552 -10.076   5.579  1.00  0.00    -0.192 NA
HETATM    8  C   UNL     1      41.861  -9.210   8.746  1.00  0.00     0.130 C 
HETATM    9  C   UNL     1      42.789  -9.411   9.945  1.00  0.00     0.048 C 
HETATM   10  H   UNL     1      45.266 -10.856   8.419  1.00  0.00     0.166 HD
ENDROOT
BRANCH   4  11
HETATM   11  S   UNL     1      44.076 -11.229   5.871  1.00  0.00    -0.102 SA
BRANCH  11  12
HETATM   12  C   UNL     1      44.297 -12.949   6.398  1.00  0.00     0.183 C 
BRANCH  12  13
HETATM   13  C   UNL     1      43.260 -13.897   5.824  1.00  0.00     0.227 C 
HETATM   14  N   UNL     1      43.307 -15.198   6.268  1.00  0.00    -0.356 N 
HETATM   15  H   UNL     1      44.203 -15.539   6.599  1.00  0.00     0.162 HD
HETATM   16  O   UNL     1      42.369 -13.480   5.085  1.00  0.00    -0.273 OA
BRANCH  14  17
HETATM   17  C   UNL     1      42.354 -16.167   5.774  1.00  0.00     0.161 C 
BRANCH  17  18
HETATM   18  C   UNL     1      42.907 -17.081   4.709  1.00  0.00    -0.041 A 
HETATM   19  C   UNL     1      43.775 -18.144   4.999  1.00  0.00     0.009 A 
HETATM   20  C   UNL     1      44.225 -18.993   3.987  1.00  0.00     0.001 A 
HETATM   21  C   UNL     1      43.796 -18.808   2.675  1.00  0.00     0.000 A 
HETATM   22  C   UNL     1      42.913 -17.774   2.373  1.00  0.00     0.001 A 
HETATM   23  C   UNL     1      42.470 -16.918   3.383  1.00  0.00     0.009 A 
ENDBRANCH  17  18
ENDBRANCH  14  17
ENDBRANCH  12  13
ENDBRANCH  11  12
ENDBRANCH   4  11
BRANCH   8  24
HETATM   24  C   UNL     1      41.582  -7.747   8.505  1.00  0.00     0.066 A 
HETATM   25  O   UNL     1      40.268  -7.396   8.404  1.00  0.00    -0.326 OA
HETATM   26  C   UNL     1      40.229  -6.054   8.206  1.00  0.00     0.142 A 
HETATM   27  C   UNL     1      41.502  -5.534   8.184  1.00  0.00     0.027 A 
HETATM   28  C   UNL     1      42.380  -6.628   8.380  1.00  0.00     0.035 A 
ENDBRANCH   8  24
BRANCH   9  29
HETATM   29  C   UNL     1      42.303  -9.102  11.348  1.00  0.00     0.255 C 
HETATM   30  N   UNL     1      42.572  -7.840  11.840  1.00  0.00    -0.322 N 
HETATM   31  H   UNL     1      43.118  -7.187  11.287  1.00  0.00     0.169 HD
HETATM   32  O   UNL     1      41.659  -9.942  11.971  1.00  0.00    -0.268 OA
BRANCH  30  33
HETATM   33  C   UNL     1      42.145  -7.289  13.082  1.00  0.00     0.057 A 
HETATM   34  C   UNL     1      40.877  -6.674  13.147  1.00  0.00     0.062 A 
HETATM   35 CL   UNL     1      39.842  -6.610  11.762  1.00  0.00    -0.082 Cl
HETATM   36  C   UNL     1      40.394  -6.124  14.339  1.00  0.00     0.050 A 
HETATM   37  C   UNL     1      41.180  -6.178  15.484  1.00  0.00     0.035 A 
HETATM   38 CL   UNL     1      40.595  -5.510  16.957  1.00  0.00    -0.084 Cl
HETATM   39  C   UNL     1      42.436  -6.773  15.444  1.00  0.00     0.026 A 
HETATM   40  C   UNL     1      42.915  -7.325  14.250  1.00  0.00     0.033 A 
ENDBRANCH  30  33
ENDBRANCH   9  29
TORSDOF 8
ENDMDL
MODEL 10
REMARK VINA RESULT:      -8.8      2.444      4.679
REMARK  8 active torsions:
REMARK  status: ('A' for Active; 'I' for Inactive)
REMARK    1  A    between atoms: C_4  and  S_5 
REMARK    2  A    between atoms: S_5  and  C_6 
REMARK    3  A    between atoms: C_6  and  C_7 
REMARK       I    between atoms: C_7  and  N_8 
REMARK    4  A    between atoms: N_8  and  C_9 
REMARK    5  A    between atoms: C_9  and  C_10 
REMARK    6  A    between atoms: C_20  and  C_21 
REMARK    7  A    between atoms: C_26  and  C_27 
REMARK       I    between atoms: C_27  and  N_28 
REMARK    8  A    between atoms: N_28  and  C_29 
ROOT
HETATM    1  C   UNL     1      42.000 -10.243   3.894  1.00  0.00     0.069 C 
HETATM    2  C   UNL     1      41.838 -10.048   5.385  1.00  0.00     0.019 C 
HETATM    3  N   UNL     1      41.002  -8.999   5.741  1.00  0.00    -0.353 N 
HETATM    4  C   UNL     1      40.534  -8.741   7.018  1.00  0.00     0.088 C 
HETATM    5  C   UNL     1      41.084  -9.422   8.052  1.00  0.00     0.071 C 
HETATM    6  C   UNL     1      40.655  -9.268   9.407  1.00  0.00     0.099 C 
HETATM    7  N   UNL     1      40.321  -9.166  10.514  1.00  0.00    -0.192 NA
HETATM    8  C   UNL     1      42.215 -10.433   7.811  1.00  0.00     0.130 C 
HETATM    9  C   UNL     1      42.423 -10.811   6.344  1.00  0.00     0.048 C 
HETATM   10  H   UNL     1      40.444  -8.624   4.983  1.00  0.00     0.166 HD
ENDROOT
BRANCH   4  11
HETATM   11  S   UNL     1      39.228  -7.589   7.327  1.00  0.00    -0.102 SA
BRANCH  11  12
HETATM   12  C   UNL     1      40.049  -5.984   7.141  1.00  0.00     0.183 C 
BRANCH  12  13
HETATM   13  C   UNL     1      41.418  -5.924   7.796  1.00  0.00     0.227 C 
HETATM   14  N   UNL     1      41.436  -5.790   9.164  1.00  0.00    -0.356 N 
HETATM   15  H   UNL     1      40.629  -5.351   9.595  1.00  0.00     0.162 HD
HETATM   16  O   UNL     1      42.439  -6.094   7.132  1.00  0.00    -0.273 OA
BRANCH  14  17
HETATM   17  C   UNL     1      42.698  -5.726   9.870  1.00  0.00     0.161 C 
BRANCH  17  18
HETATM   18  C   UNL     1      42.658  -6.331  11.250  1.00  0.00    -0.041 A 
HETATM   19  C   UNL     1      43.105  -7.634  11.519  1.00  0.00     0.009 A 
HETATM   20  C   UNL     1      43.093  -8.136  12.823  1.00  0.00     0.001 A 
HETATM   21  C   UNL     1      42.657  -7.337  13.877  1.00  0.00     0.000 A 
HETATM   22  C   UNL     1      42.235  -6.034  13.631  1.00  0.00     0.001 A 
HETATM   23  C   UNL     1      42.237  -5.534  12.328  1.00  0.00     0.009 A 
ENDBRANCH  17  18
ENDBRANCH  14  17
ENDBRANCH  12  13
ENDBRANCH  11  12
ENDBRANCH   4  11
BRANCH   8  24
HETATM   24  C   UNL     1      43.504  -9.983   8.452  1.00  0.00     0.066 A 
HETATM   25  O   UNL     1      44.022 -10.811   9.404  1.00  0.00    -0.326 OA
HETATM   26  C   UNL     1      45.175 -10.243   9.841  1.00  0.00     0.142 A 
HETATM   27  C   UNL     1      45.410  -9.061   9.178  1.00  0.00     0.027 A 
HETATM   28  C   UNL     1      44.331  -8.892   8.276  1.00  0.00     0.035 A 
ENDBRANCH   8  24
BRANCH   9  29
HETATM   29  C   UNL     1      43.229 -12.043   5.977  1.00  0.00     0.255 C 
HETATM   30  N   UNL     1      42.581 -13.260   6.052  1.00  0.00    -0.322 N 
HETATM   31  H   UNL     1      41.625 -13.304   6.391  1.00  0.00     0.169 HD
HETATM   32  O   UNL     1      44.387 -11.922   5.586  1.00  0.00    -0.268 OA
BRANCH  30  33
HETATM   33  C   UNL     1      43.093 -14.534   5.677  1.00  0.00     0.057 A 
HETATM   34  C   UNL     1      42.812 -15.019   4.382  1.00  0.00     0.062 A 
HETATM   35 CL   UNL     1      41.890 -14.083   3.256  1.00  0.00    -0.082 Cl
HETATM   36  C   UNL     1      43.295 -16.258   3.947  1.00  0.00     0.050 A 
HETATM   37  C   UNL     1      44.063 -17.033   4.808  1.00  0.00     0.035 A 
HETATM   38 CL   UNL     1      44.667 -18.555   4.283  1.00  0.00    -0.084 Cl
HETATM   39  C   UNL     1      44.349 -16.579   6.091  1.00  0.00     0.026 A 
HETATM   40  C   UNL     1      43.867 -15.338   6.522  1.00  0.00     0.033 A 
ENDBRANCH  30  33
ENDBRANCH   9  29
TORSDOF 8
ENDMDL
