MODEL 1
REMARK VINA RESULT:      -9.9      0.000      0.000
REMARK  5 active torsions:
REMARK  status: ('A' for Active; 'I' for Inactive)
REMARK    1  A    between atoms: C_2  and  N_3 
REMARK    2  A    between atoms: C_7  and  N_8 
REMARK       I    between atoms: N_8  and  C_9 
REMARK    3  A    between atoms: C_9  and  C_10 
REMARK    4  A    between atoms: C_13  and  C_14 
REMARK    5  A    between atoms: C_14  and  C_15 
ROOT
HETATM    1  N   UNL     1      42.911 -11.500   6.800  1.00  0.00    -0.323 N 
HETATM    2  C   UNL     1      44.069 -10.846   7.181  1.00  0.00     0.256 C 
HETATM    3  O   UNL     1      45.110 -10.773   6.539  1.00  0.00    -0.267 OA
HETATM    4  H   UNL     1      42.072 -11.304   7.329  1.00  0.00     0.169 HD
ENDROOT
BRANCH   1   5
HETATM    5  C   UNL     1      42.765 -12.429   5.746  1.00  0.00     0.035 A 
HETATM    6  C   UNL     1      43.290 -13.724   5.780  1.00  0.00     0.044 A 
HETATM    7  C   UNL     1      43.027 -14.628   4.727  1.00  0.00     0.005 A 
HETATM    8  C   UNL     1      42.238 -14.209   3.655  1.00  0.00     0.046 A 
HETATM    9  C   UNL     1      43.400 -15.987   4.485  1.00  0.00     0.003 A 
HETATM   10  N   UNL     1      42.110 -15.290   2.802  1.00  0.00    -0.346 N 
HETATM   11  C   UNL     1      41.727 -12.904   3.585  1.00  0.00     0.033 A 
HETATM   12  C   UNL     1      42.818 -16.378   3.277  1.00  0.00     0.046 A 
HETATM   13  C   UNL     1      42.995 -17.671   2.755  1.00  0.00     0.030 A 
HETATM   14  C   UNL     1      43.776 -18.576   3.482  1.00  0.00     0.002 A 
HETATM   15  C   UNL     1      44.362 -18.208   4.687  1.00  0.00     0.001 A 
HETATM   16  C   UNL     1      44.182 -16.920   5.199  1.00  0.00     0.014 A 
HETATM   17  C   UNL     1      42.001 -12.031   4.646  1.00  0.00     0.032 A 
BRANCH  10  18
HETATM   18  C   UNL     1      41.307 -15.297   1.589  1.00  0.00     0.125 C 
HETATM   19  C   UNL     1      39.871 -15.714   1.851  1.00  0.00     0.027 C 
ENDBRANCH  10  18
ENDBRANCH   1   5
BRANCH   2  20
HETATM   20  C   UNL     1      44.011 -10.162   8.508  1.00  0.00     0.032 A 
HETATM   21  C   UNL     1      43.711  -8.800   8.630  1.00  0.00     0.017 A 
HETATM   22  C   UNL     1      43.583  -8.218   9.895  1.00  0.00     0.008 A 
HETATM   23  C   UNL     1      43.724  -8.992  11.054  1.00  0.00    -0.057 A 
HETATM   24  C   UNL     1      44.039 -10.352  10.926  1.00  0.00     0.008 A 
HETATM   25  C   UNL     1      44.176 -10.933   9.664  1.00  0.00     0.017 A 
BRANCH  23  26
HETATM   26  C   UNL     1      43.491  -8.390  12.423  1.00  0.00     0.053 C 
BRANCH  26  27
HETATM   27  C   UNL     1      42.033  -8.036  12.753  1.00  0.00     0.091 C 
HETATM   28  C   UNL     1      41.789  -7.988  14.240  1.00  0.00     0.229 C 
HETATM   29  O   UNL     1      42.295  -7.194  15.016  1.00  0.00    -0.273 OA
HETATM   30  N   UNL     1      40.949  -8.997  14.580  1.00  0.00    -0.297 N 
HETATM   31  C   UNL     1      40.490  -9.695  13.513  1.00  0.00     0.225 C 
HETATM   32  H   UNL     1      40.698  -9.215  15.531  1.00  0.00     0.171 HD
HETATM   33  O   UNL     1      39.743 -10.657  13.558  1.00  0.00    -0.273 OA
HETATM   34  C   UNL     1      40.993  -9.043  12.258  1.00  0.00     0.117 C 
ENDBRANCH  26  27
ENDBRANCH  23  26
ENDBRANCH   2  20
TORSDOF 5
ENDMDL
MODEL 2
REMARK VINA RESULT:      -9.9      1.224      1.560
REMARK  5 active torsions:
REMARK  status: ('A' for Active; 'I' for Inactive)
REMARK    1  A    between atoms: C_2  and  N_3 
REMARK    2  A    between atoms: C_7  and  N_8 
REMARK       I    between atoms: N_8  and  C_9 
REMARK    3  A    between atoms: C_9  and  C_10 
REMARK    4  A    between atoms: C_13  and  C_14 
REMARK    5  A    between atoms: C_14  and  C_15 
ROOT
HETATM    1  N   UNL     1      42.809 -11.695   6.858  1.00  0.00    -0.323 N 
HETATM    2  C   UNL     1      43.933 -11.010   7.283  1.00  0.00     0.256 C 
HETATM    3  O   UNL     1      44.979 -10.866   6.660  1.00  0.00    -0.267 OA
HETATM    4  H   UNL     1      41.956 -11.558   7.383  1.00  0.00     0.169 HD
ENDROOT
BRANCH   1   5
HETATM    5  C   UNL     1      42.717 -12.584   5.764  1.00  0.00     0.035 A 
HETATM    6  C   UNL     1      43.233 -13.882   5.778  1.00  0.00     0.044 A 
HETATM    7  C   UNL     1      43.024 -14.745   4.679  1.00  0.00     0.005 A 
HETATM    8  C   UNL     1      42.297 -14.282   3.582  1.00  0.00     0.046 A 
HETATM    9  C   UNL     1      43.403 -16.097   4.408  1.00  0.00     0.003 A 
HETATM   10  N   UNL     1      42.211 -15.330   2.684  1.00  0.00    -0.346 N 
HETATM   11  C   UNL     1      41.796 -12.972   3.534  1.00  0.00     0.033 A 
HETATM   12  C   UNL     1      42.886 -16.439   3.156  1.00  0.00     0.046 A 
HETATM   13  C   UNL     1      43.086 -17.713   2.597  1.00  0.00     0.030 A 
HETATM   14  C   UNL     1      43.821 -18.649   3.330  1.00  0.00     0.002 A 
HETATM   15  C   UNL     1      44.342 -18.330   4.579  1.00  0.00     0.001 A 
HETATM   16  C   UNL     1      44.141 -17.060   5.127  1.00  0.00     0.014 A 
HETATM   17  C   UNL     1      42.016 -12.140   4.639  1.00  0.00     0.032 A 
BRANCH  10  18
HETATM   18  C   UNL     1      41.474 -15.286   1.430  1.00  0.00     0.125 C 
HETATM   19  C   UNL     1      40.024 -15.700   1.598  1.00  0.00     0.027 C 
ENDBRANCH  10  18
ENDBRANCH   1   5
BRANCH   2  20
HETATM   20  C   UNL     1      43.830 -10.387   8.637  1.00  0.00     0.032 A 
HETATM   21  C   UNL     1      44.922 -10.320   9.510  1.00  0.00     0.017 A 
HETATM   22  C   UNL     1      44.806  -9.653  10.734  1.00  0.00     0.008 A 
HETATM   23  C   UNL     1      43.608  -9.018  11.090  1.00  0.00    -0.057 A 
HETATM   24  C   UNL     1      42.514  -9.100  10.217  1.00  0.00     0.008 A 
HETATM   25  C   UNL     1      42.625  -9.774   8.999  1.00  0.00     0.017 A 
BRANCH  23  26
HETATM   26  C   UNL     1      43.505  -8.213  12.366  1.00  0.00     0.053 C 
BRANCH  26  27
HETATM   27  C   UNL     1      42.121  -8.200  13.033  1.00  0.00     0.091 C 
HETATM   28  C   UNL     1      41.562  -6.803  13.141  1.00  0.00     0.229 C 
HETATM   29  O   UNL     1      41.261  -6.086  12.201  1.00  0.00    -0.273 OA
HETATM   30  N   UNL     1      41.489  -6.459  14.450  1.00  0.00    -0.297 N 
HETATM   31  C   UNL     1      41.834  -7.467  15.289  1.00  0.00     0.225 C 
HETATM   32  H   UNL     1      41.216  -5.543  14.770  1.00  0.00     0.171 HD
HETATM   33  O   UNL     1      41.869  -7.400  16.506  1.00  0.00    -0.273 OA
HETATM   34  C   UNL     1      42.093  -8.702  14.478  1.00  0.00     0.117 C 
ENDBRANCH  26  27
ENDBRANCH  23  26
ENDBRANCH   2  20
TORSDOF 5
ENDMDL
MODEL 3
REMARK VINA RESULT:      -9.5      6.918     11.935
REMARK  5 active torsions:
REMARK  status: ('A' for Active; 'I' for Inactive)
REMARK    1  A    between atoms: C_2  and  N_3 
REMARK    2  A    between atoms: C_7  and  N_8 
REMARK       I    between atoms: N_8  and  C_9 
REMARK    3  A    between atoms: C_9  and  C_10 
REMARK    4  A    between atoms: C_13  and  C_14 
REMARK    5  A    between atoms: C_14  and  C_15 
ROOT
HETATM    1  N   UNL     1      39.442 -13.965   0.847  1.00  0.00    -0.323 N 
HETATM    2  C   UNL     1      39.844 -13.043  -0.102  1.00  0.00     0.256 C 
HETATM    3  O   UNL     1      40.995 -12.699  -0.343  1.00  0.00    -0.267 OA
HETATM    4  H   UNL     1      38.490 -14.300   0.795  1.00  0.00     0.169 HD
ENDROOT
BRANCH   1   5
HETATM    5  C   UNL     1      40.218 -14.495   1.902  1.00  0.00     0.035 A 
HETATM    6  C   UNL     1      40.946 -15.684   1.804  1.00  0.00     0.044 A 
HETATM    7  C   UNL     1      41.772 -16.106   2.870  1.00  0.00     0.005 A 
HETATM    8  C   UNL     1      41.849 -15.318   4.020  1.00  0.00     0.046 A 
HETATM    9  C   UNL     1      42.627 -17.235   3.060  1.00  0.00     0.003 A 
HETATM   10  N   UNL     1      42.747 -15.936   4.870  1.00  0.00    -0.346 N 
HETATM   11  C   UNL     1      41.103 -14.137   4.152  1.00  0.00     0.033 A 
HETATM   12  C   UNL     1      43.223 -17.109   4.317  1.00  0.00     0.046 A 
HETATM   13  C   UNL     1      44.127 -18.068   4.807  1.00  0.00     0.030 A 
HETATM   14  C   UNL     1      44.426 -19.168   3.997  1.00  0.00     0.002 A 
HETATM   15  C   UNL     1      43.846 -19.312   2.742  1.00  0.00     0.001 A 
HETATM   16  C   UNL     1      42.946 -18.355   2.264  1.00  0.00     0.014 A 
HETATM   17  C   UNL     1      40.296 -13.743   3.077  1.00  0.00     0.032 A 
BRANCH  10  18
HETATM   18  C   UNL     1      43.167 -15.403   6.158  1.00  0.00     0.125 C 
HETATM   19  C   UNL     1      42.281 -15.878   7.295  1.00  0.00     0.027 C 
ENDBRANCH  10  18
ENDBRANCH   1   5
BRANCH   2  20
HETATM   20  C   UNL     1      38.743 -12.428  -0.903  1.00  0.00     0.032 A 
HETATM   21  C   UNL     1      38.360 -11.091  -0.736  1.00  0.00     0.017 A 
HETATM   22  C   UNL     1      37.383 -10.530  -1.565  1.00  0.00     0.008 A 
HETATM   23  C   UNL     1      36.796 -11.286  -2.589  1.00  0.00    -0.057 A 
HETATM   24  C   UNL     1      37.174 -12.627  -2.742  1.00  0.00     0.008 A 
HETATM   25  C   UNL     1      38.143 -13.192  -1.909  1.00  0.00     0.017 A 
BRANCH  23  26
HETATM   26  C   UNL     1      35.811 -10.659  -3.551  1.00  0.00     0.053 C 
BRANCH  26  27
HETATM   27  C   UNL     1      34.363 -11.160  -3.439  1.00  0.00     0.091 C 
HETATM   28  C   UNL     1      33.845 -11.680  -4.757  1.00  0.00     0.229 C 
HETATM   29  O   UNL     1      34.275 -12.653  -5.353  1.00  0.00    -0.273 OA
HETATM   30  N   UNL     1      32.853 -10.864  -5.191  1.00  0.00    -0.297 N 
HETATM   31  C   UNL     1      32.535  -9.889  -4.305  1.00  0.00     0.225 C 
HETATM   32  H   UNL     1      32.402 -10.965  -6.086  1.00  0.00     0.171 HD
HETATM   33  O   UNL     1      31.694  -9.022  -4.471  1.00  0.00    -0.273 OA
HETATM   34  C   UNL     1      33.335 -10.095  -3.052  1.00  0.00     0.117 C 
ENDBRANCH  26  27
ENDBRANCH  23  26
ENDBRANCH   2  20
TORSDOF 5
ENDMDL
MODEL 4
REMARK VINA RESULT:      -9.2      7.678     10.808
REMARK  5 active torsions:
REMARK  status: ('A' for Active; 'I' for Inactive)
REMARK    1  A    between atoms: C_2  and  N_3 
REMARK    2  A    between atoms: C_7  and  N_8 
REMARK       I    between atoms: N_8  and  C_9 
REMARK    3  A    between atoms: C_9  and  C_10 
REMARK    4  A    between atoms: C_13  and  C_14 
REMARK    5  A    between atoms: C_14  and  C_15 
ROOT
HETATM    1  N   UNL     1      40.969 -13.207  -0.173  1.00  0.00    -0.323 N 
HETATM    2  C   UNL     1      40.933 -13.397   1.197  1.00  0.00     0.256 C 
HETATM    3  O   UNL     1      40.432 -12.645   2.025  1.00  0.00    -0.267 OA
HETATM    4  H   UNL     1      41.227 -13.999  -0.744  1.00  0.00     0.169 HD
ENDROOT
BRANCH   1   5
HETATM    5  C   UNL     1      40.690 -12.012  -0.874  1.00  0.00     0.035 A 
HETATM    6  C   UNL     1      41.560 -10.920  -0.915  1.00  0.00     0.044 A 
HETATM    7  C   UNL     1      41.254  -9.793  -1.712  1.00  0.00     0.005 A 
HETATM    8  C   UNL     1      40.071  -9.788  -2.452  1.00  0.00     0.046 A 
HETATM    9  C   UNL     1      41.930  -8.561  -1.967  1.00  0.00     0.003 A 
HETATM   10  N   UNL     1      40.045  -8.601  -3.160  1.00  0.00    -0.346 N 
HETATM   11  C   UNL     1      39.168 -10.861  -2.400  1.00  0.00     0.033 A 
HETATM   12  C   UNL     1      41.156  -7.831  -2.872  1.00  0.00     0.046 A 
HETATM   13  C   UNL     1      41.551  -6.562  -3.330  1.00  0.00     0.030 A 
HETATM   14  C   UNL     1      42.757  -6.035  -2.856  1.00  0.00     0.002 A 
HETATM   15  C   UNL     1      43.544  -6.745  -1.957  1.00  0.00     0.001 A 
HETATM   16  C   UNL     1      43.143  -8.005  -1.506  1.00  0.00     0.014 A 
HETATM   17  C   UNL     1      39.500 -11.966  -1.606  1.00  0.00     0.032 A 
BRANCH  10  18
HETATM   18  C   UNL     1      39.009  -8.228  -4.111  1.00  0.00     0.125 C 
HETATM   19  C   UNL     1      39.366  -8.615  -5.535  1.00  0.00     0.027 C 
ENDBRANCH  10  18
ENDBRANCH   1   5
BRANCH   2  20
HETATM   20  C   UNL     1      41.567 -14.658   1.685  1.00  0.00     0.032 A 
HETATM   21  C   UNL     1      40.825 -15.674   2.300  1.00  0.00     0.017 A 
HETATM   22  C   UNL     1      41.442 -16.875   2.665  1.00  0.00     0.008 A 
HETATM   23  C   UNL     1      42.801 -17.090   2.396  1.00  0.00    -0.057 A 
HETATM   24  C   UNL     1      43.541 -16.064   1.792  1.00  0.00     0.008 A 
HETATM   25  C   UNL     1      42.929 -14.860   1.435  1.00  0.00     0.017 A 
BRANCH  23  26
HETATM   26  C   UNL     1      43.451 -18.421   2.699  1.00  0.00     0.053 C 
BRANCH  26  27
HETATM   27  C   UNL     1      44.343 -18.454   3.951  1.00  0.00     0.091 C 
HETATM   28  C   UNL     1      44.066 -19.666   4.805  1.00  0.00     0.229 C 
HETATM   29  O   UNL     1      44.259 -20.824   4.476  1.00  0.00    -0.273 OA
HETATM   30  N   UNL     1      43.529 -19.259   5.982  1.00  0.00    -0.297 N 
HETATM   31  C   UNL     1      43.478 -17.910   6.110  1.00  0.00     0.225 C 
HETATM   32  H   UNL     1      43.190 -19.894   6.688  1.00  0.00     0.171 HD
HETATM   33  O   UNL     1      43.021 -17.302   7.063  1.00  0.00    -0.273 OA
HETATM   34  C   UNL     1      44.145 -17.287   4.920  1.00  0.00     0.117 C 
ENDBRANCH  26  27
ENDBRANCH  23  26
ENDBRANCH   2  20
TORSDOF 5
ENDMDL
MODEL 5
REMARK VINA RESULT:      -8.8      2.367      2.792
REMARK  5 active torsions:
REMARK  status: ('A' for Active; 'I' for Inactive)
REMARK    1  A    between atoms: C_2  and  N_3 
REMARK    2  A    between atoms: C_7  and  N_8 
REMARK       I    between atoms: N_8  and  C_9 
REMARK    3  A    between atoms: C_9  and  C_10 
REMARK    4  A    between atoms: C_13  and  C_14 
REMARK    5  A    between atoms: C_14  and  C_15 
ROOT
HETATM    1  N   UNL     1      40.540 -11.737   6.772  1.00  0.00    -0.323 N 
HETATM    2  C   UNL     1      39.472 -10.934   7.130  1.00  0.00     0.256 C 
HETATM    3  O   UNL     1      38.333 -10.989   6.679  1.00  0.00    -0.267 OA
HETATM    4  H   UNL     1      41.356 -11.717   7.367  1.00  0.00     0.169 HD
ENDROOT
BRANCH   1   5
HETATM    5  C   UNL     1      40.625 -12.588   5.647  1.00  0.00     0.035 A 
HETATM    6  C   UNL     1      41.496 -13.678   5.568  1.00  0.00     0.044 A 
HETATM    7  C   UNL     1      41.461 -14.539   4.447  1.00  0.00     0.005 A 
HETATM    8  C   UNL     1      40.548 -14.283   3.424  1.00  0.00     0.046 A 
HETATM    9  C   UNL     1      42.194 -15.713   4.090  1.00  0.00     0.003 A 
HETATM   10  N   UNL     1      40.700 -15.288   2.488  1.00  0.00    -0.346 N 
HETATM   11  C   UNL     1      39.686 -13.176   3.469  1.00  0.00     0.033 A 
HETATM   12  C   UNL     1      41.704 -16.162   2.863  1.00  0.00     0.046 A 
HETATM   13  C   UNL     1      42.220 -17.308   2.234  1.00  0.00     0.030 A 
HETATM   14  C   UNL     1      43.251 -18.005   2.873  1.00  0.00     0.002 A 
HETATM   15  C   UNL     1      43.752 -17.576   4.097  1.00  0.00     0.001 A 
HETATM   16  C   UNL     1      43.234 -16.435   4.714  1.00  0.00     0.014 A 
HETATM   17  C   UNL     1      39.740 -12.343   4.594  1.00  0.00     0.032 A 
BRANCH  10  18
HETATM   18  C   UNL     1      39.888 -15.433   1.289  1.00  0.00     0.125 C 
HETATM   19  C   UNL     1      40.454 -14.660   0.112  1.00  0.00     0.027 C 
ENDBRANCH  10  18
ENDBRANCH   1   5
BRANCH   2  20
HETATM   20  C   UNL     1      39.763  -9.913   8.180  1.00  0.00     0.032 A 
HETATM   21  C   UNL     1      38.837  -9.589   9.180  1.00  0.00     0.017 A 
HETATM   22  C   UNL     1      39.182  -8.689  10.194  1.00  0.00     0.008 A 
HETATM   23  C   UNL     1      40.463  -8.124  10.242  1.00  0.00    -0.057 A 
HETATM   24  C   UNL     1      41.381  -8.442   9.231  1.00  0.00     0.008 A 
HETATM   25  C   UNL     1      41.036  -9.332   8.212  1.00  0.00     0.017 A 
BRANCH  23  26
HETATM   26  C   UNL     1      40.874  -7.228  11.389  1.00  0.00     0.053 C 
BRANCH  26  27
HETATM   27  C   UNL     1      41.219  -7.947  12.703  1.00  0.00     0.091 C 
HETATM   28  C   UNL     1      42.237  -9.039  12.495  1.00  0.00     0.229 C 
HETATM   29  O   UNL     1      43.389  -8.874  12.130  1.00  0.00    -0.273 OA
HETATM   30  N   UNL     1      41.651 -10.238  12.739  1.00  0.00    -0.297 N 
HETATM   31  C   UNL     1      40.376 -10.130  13.185  1.00  0.00     0.225 C 
HETATM   32  H   UNL     1      42.112 -11.122  12.593  1.00  0.00     0.171 HD
HETATM   33  O   UNL     1      39.634 -11.059  13.453  1.00  0.00    -0.273 OA
HETATM   34  C   UNL     1      40.050  -8.676  13.369  1.00  0.00     0.117 C 
ENDBRANCH  26  27
ENDBRANCH  23  26
ENDBRANCH   2  20
TORSDOF 5
ENDMDL
MODEL 6
REMARK VINA RESULT:      -8.7      6.914     11.869
REMARK  5 active torsions:
REMARK  status: ('A' for Active; 'I' for Inactive)
REMARK    1  A    between atoms: C_2  and  N_3 
REMARK    2  A    between atoms: C_7  and  N_8 
REMARK       I    between atoms: N_8  and  C_9 
REMARK    3  A    between atoms: C_9  and  C_10 
REMARK    4  A    between atoms: C_13  and  C_14 
REMARK    5  A    between atoms: C_14  and  C_15 
ROOT
HETATM    1  N   UNL     1      39.474 -14.194   0.849  1.00  0.00    -0.323 N 
HETATM    2  C   UNL     1      39.843 -13.215  -0.056  1.00  0.00     0.256 C 
HETATM    3  O   UNL     1      40.977 -12.798  -0.258  1.00  0.00    -0.267 OA
HETATM    4  H   UNL     1      38.544 -14.580   0.763  1.00  0.00     0.169 HD
ENDROOT
BRANCH   1   5
HETATM    5  C   UNL     1      40.258 -14.719   1.900  1.00  0.00     0.035 A 
HETATM    6  C   UNL     1      40.980 -15.912   1.805  1.00  0.00     0.044 A 
HETATM    7  C   UNL     1      41.814 -16.329   2.867  1.00  0.00     0.005 A 
HETATM    8  C   UNL     1      41.904 -15.533   4.010  1.00  0.00     0.046 A 
HETATM    9  C   UNL     1      42.666 -17.460   3.058  1.00  0.00     0.003 A 
HETATM   10  N   UNL     1      42.807 -16.148   4.858  1.00  0.00    -0.346 N 
HETATM   11  C   UNL     1      41.164 -14.348   4.140  1.00  0.00     0.033 A 
HETATM   12  C   UNL     1      43.273 -17.327   4.309  1.00  0.00     0.046 A 
HETATM   13  C   UNL     1      44.178 -18.286   4.798  1.00  0.00     0.030 A 
HETATM   14  C   UNL     1      44.466 -19.393   3.994  1.00  0.00     0.002 A 
HETATM   15  C   UNL     1      43.874 -19.544   2.745  1.00  0.00     0.001 A 
HETATM   16  C   UNL     1      42.974 -18.587   2.267  1.00  0.00     0.014 A 
HETATM   17  C   UNL     1      40.349 -13.958   3.069  1.00  0.00     0.032 A 
BRANCH  10  18
HETATM   18  C   UNL     1      43.239 -15.607   6.137  1.00  0.00     0.125 C 
HETATM   19  C   UNL     1      42.354 -16.060   7.284  1.00  0.00     0.027 C 
ENDBRANCH  10  18
ENDBRANCH   1   5
BRANCH   2  20
HETATM   20  C   UNL     1      38.726 -12.633  -0.859  1.00  0.00     0.032 A 
HETATM   21  C   UNL     1      38.131 -11.409  -0.528  1.00  0.00     0.017 A 
HETATM   22  C   UNL     1      37.146 -10.858  -1.354  1.00  0.00     0.008 A 
HETATM   23  C   UNL     1      36.762 -11.506  -2.536  1.00  0.00    -0.057 A 
HETATM   24  C   UNL     1      37.351 -12.737  -2.855  1.00  0.00     0.008 A 
HETATM   25  C   UNL     1      38.327 -13.294  -2.026  1.00  0.00     0.017 A 
BRANCH  23  26
HETATM   26  C   UNL     1      35.769 -10.869  -3.483  1.00  0.00     0.053 C 
BRANCH  26  27
HETATM   27  C   UNL     1      36.071  -9.416  -3.884  1.00  0.00     0.091 C 
HETATM   28  C   UNL     1      35.215  -8.963  -5.040  1.00  0.00     0.229 C 
HETATM   29  O   UNL     1      34.002  -8.843  -5.018  1.00  0.00    -0.273 OA
HETATM   30  N   UNL     1      36.010  -8.751  -6.118  1.00  0.00    -0.297 N 
HETATM   31  C   UNL     1      37.330  -8.904  -5.849  1.00  0.00     0.225 C 
HETATM   32  H   UNL     1      35.657  -8.515  -7.031  1.00  0.00     0.171 HD
HETATM   33  O   UNL     1      38.239  -8.789  -6.653  1.00  0.00    -0.273 OA
HETATM   34  C   UNL     1      37.496  -9.164  -4.380  1.00  0.00     0.117 C 
ENDBRANCH  26  27
ENDBRANCH  23  26
ENDBRANCH   2  20
TORSDOF 5
ENDMDL
MODEL 7
REMARK VINA RESULT:      -8.6      7.419     10.927
REMARK  5 active torsions:
REMARK  status: ('A' for Active; 'I' for Inactive)
REMARK    1  A    between atoms: C_2  and  N_3 
REMARK    2  A    between atoms: C_7  and  N_8 
REMARK       I    between atoms: N_8  and  C_9 
REMARK    3  A    between atoms: C_9  and  C_10 
REMARK    4  A    between atoms: C_13  and  C_14 
REMARK    5  A    between atoms: C_14  and  C_15 
ROOT
HETATM    1  N   UNL     1      40.110 -13.839  -0.108  1.00  0.00    -0.323 N 
HETATM    2  C   UNL     1      40.172 -13.953   1.269  1.00  0.00     0.256 C 
HETATM    3  O   UNL     1      39.549 -13.284   2.085  1.00  0.00    -0.267 OA
HETATM    4  H   UNL     1      40.517 -14.585  -0.654  1.00  0.00     0.169 HD
ENDROOT
BRANCH   1   5
HETATM    5  C   UNL     1      39.543 -12.778  -0.850  1.00  0.00     0.035 A 
HETATM    6  C   UNL     1      38.341 -12.885  -1.555  1.00  0.00     0.044 A 
HETATM    7  C   UNL     1      37.790 -11.755  -2.200  1.00  0.00     0.005 A 
HETATM    8  C   UNL     1      38.463 -10.535  -2.124  1.00  0.00     0.046 A 
HETATM    9  C   UNL     1      36.601 -11.547  -2.966  1.00  0.00     0.003 A 
HETATM   10  N   UNL     1      37.691  -9.607  -2.797  1.00  0.00    -0.346 N 
HETATM   11  C   UNL     1      39.687 -10.413  -1.448  1.00  0.00     0.033 A 
HETATM   12  C   UNL     1      36.562 -10.200  -3.330  1.00  0.00     0.046 A 
HETATM   13  C   UNL     1      35.508  -9.671  -4.096  1.00  0.00     0.030 A 
HETATM   14  C   UNL     1      34.480 -10.533  -4.491  1.00  0.00     0.002 A 
HETATM   15  C   UNL     1      34.499 -11.877  -4.137  1.00  0.00     0.001 A 
HETATM   16  C   UNL     1      35.551 -12.395  -3.377  1.00  0.00     0.014 A 
HETATM   17  C   UNL     1      40.207 -11.549  -0.815  1.00  0.00     0.032 A 
BRANCH  10  18
HETATM   18  C   UNL     1      38.003  -8.190  -2.899  1.00  0.00     0.125 C 
HETATM   19  C   UNL     1      38.919  -7.882  -4.069  1.00  0.00     0.027 C 
ENDBRANCH  10  18
ENDBRANCH   1   5
BRANCH   2  20
HETATM   20  C   UNL     1      41.092 -15.011   1.783  1.00  0.00     0.032 A 
HETATM   21  C   UNL     1      40.669 -15.984   2.698  1.00  0.00     0.017 A 
HETATM   22  C   UNL     1      41.538 -17.008   3.089  1.00  0.00     0.008 A 
HETATM   23  C   UNL     1      42.829 -17.093   2.551  1.00  0.00    -0.057 A 
HETATM   24  C   UNL     1      43.251 -16.109   1.646  1.00  0.00     0.008 A 
HETATM   25  C   UNL     1      42.388 -15.080   1.261  1.00  0.00     0.017 A 
BRANCH  23  26
HETATM   26  C   UNL     1      43.738 -18.252   2.894  1.00  0.00     0.053 C 
BRANCH  26  27
HETATM   27  C   UNL     1      44.450 -18.158   4.253  1.00  0.00     0.091 C 
HETATM   28  C   UNL     1      44.108 -19.322   5.148  1.00  0.00     0.229 C 
HETATM   29  O   UNL     1      44.392 -20.489   4.932  1.00  0.00    -0.273 OA
HETATM   30  N   UNL     1      43.397 -18.867   6.209  1.00  0.00    -0.297 N 
HETATM   31  C   UNL     1      43.274 -17.517   6.232  1.00  0.00     0.225 C 
HETATM   32  H   UNL     1      42.992 -19.470   6.907  1.00  0.00     0.171 HD
HETATM   33  O   UNL     1      42.665 -16.871   7.068  1.00  0.00    -0.273 OA
HETATM   34  C   UNL     1      44.072 -16.940   5.100  1.00  0.00     0.117 C 
ENDBRANCH  26  27
ENDBRANCH  23  26
ENDBRANCH   2  20
TORSDOF 5
ENDMDL
MODEL 8
REMARK VINA RESULT:      -8.4     19.144     20.913
REMARK  5 active torsions:
REMARK  status: ('A' for Active; 'I' for Inactive)
REMARK    1  A    between atoms: C_2  and  N_3 
REMARK    2  A    between atoms: C_7  and  N_8 
REMARK       I    between atoms: N_8  and  C_9 
REMARK    3  A    between atoms: C_9  and  C_10 
REMARK    4  A    between atoms: C_13  and  C_14 
REMARK    5  A    between atoms: C_14  and  C_15 
ROOT
HETATM    1  N   UNL     1      48.707 -30.522   4.365  1.00  0.00    -0.323 N 
HETATM    2  C   UNL     1      49.686 -31.482   4.186  1.00  0.00     0.256 C 
HETATM    3  O   UNL     1      49.925 -32.097   3.153  1.00  0.00    -0.267 OA
HETATM    4  H   UNL     1      48.759 -29.956   5.201  1.00  0.00     0.169 HD
ENDROOT
BRANCH   1   5
HETATM    5  C   UNL     1      47.622 -30.242   3.505  1.00  0.00     0.035 A 
HETATM    6  C   UNL     1      47.764 -29.640   2.252  1.00  0.00     0.044 A 
HETATM    7  C   UNL     1      46.642 -29.473   1.409  1.00  0.00     0.005 A 
HETATM    8  C   UNL     1      45.394 -29.916   1.846  1.00  0.00     0.046 A 
HETATM    9  C   UNL     1      46.473 -28.922   0.101  1.00  0.00     0.003 A 
HETATM   10  N   UNL     1      44.498 -29.670   0.822  1.00  0.00    -0.346 N 
HETATM   11  C   UNL     1      45.223 -30.495   3.113  1.00  0.00     0.033 A 
HETATM   12  C   UNL     1      45.126 -29.054  -0.244  1.00  0.00     0.046 A 
HETATM   13  C   UNL     1      44.631 -28.604  -1.480  1.00  0.00     0.030 A 
HETATM   14  C   UNL     1      45.528 -28.015  -2.377  1.00  0.00     0.002 A 
HETATM   15  C   UNL     1      46.874 -27.877  -2.055  1.00  0.00     0.001 A 
HETATM   16  C   UNL     1      47.357 -28.325  -0.823  1.00  0.00     0.014 A 
HETATM   17  C   UNL     1      46.353 -30.651   3.925  1.00  0.00     0.032 A 
BRANCH  10  18
HETATM   18  C   UNL     1      43.092 -30.044   0.845  1.00  0.00     0.125 C 
HETATM   19  C   UNL     1      42.226 -28.995   1.518  1.00  0.00     0.027 C 
ENDBRANCH  10  18
ENDBRANCH   1   5
BRANCH   2  20
HETATM   20  C   UNL     1      50.526 -31.771   5.387  1.00  0.00     0.032 A 
HETATM   21  C   UNL     1      50.159 -32.732   6.337  1.00  0.00     0.017 A 
HETATM   22  C   UNL     1      51.015 -33.033   7.401  1.00  0.00     0.008 A 
HETATM   23  C   UNL     1      52.260 -32.401   7.516  1.00  0.00    -0.057 A 
HETATM   24  C   UNL     1      52.616 -31.430   6.570  1.00  0.00     0.008 A 
HETATM   25  C   UNL     1      51.759 -31.121   5.511  1.00  0.00     0.017 A 
BRANCH  23  26
HETATM   26  C   UNL     1      53.231 -32.791   8.608  1.00  0.00     0.053 C 
BRANCH  26  27
HETATM   27  C   UNL     1      53.133 -31.975   9.907  1.00  0.00     0.091 C 
HETATM   28  C   UNL     1      54.492 -31.571  10.421  1.00  0.00     0.229 C 
HETATM   29  O   UNL     1      55.269 -30.821   9.854  1.00  0.00    -0.273 OA
HETATM   30  N   UNL     1      54.726 -32.209  11.594  1.00  0.00    -0.297 N 
HETATM   31  C   UNL     1      53.669 -32.940  12.026  1.00  0.00     0.225 C 
HETATM   32  H   UNL     1      55.601 -32.156  12.091  1.00  0.00     0.171 HD
HETATM   33  O   UNL     1      53.639 -33.618  13.039  1.00  0.00    -0.273 OA
HETATM   34  C   UNL     1      52.515 -32.717  11.094  1.00  0.00     0.117 C 
ENDBRANCH  26  27
ENDBRANCH  23  26
ENDBRANCH   2  20
TORSDOF 5
ENDMDL
MODEL 9
REMARK VINA RESULT:      -8.2      2.736     11.128
REMARK  5 active torsions:
REMARK  status: ('A' for Active; 'I' for Inactive)
REMARK    1  A    between atoms: C_2  and  N_3 
REMARK    2  A    between atoms: C_7  and  N_8 
REMARK       I    between atoms: N_8  and  C_9 
REMARK    3  A    between atoms: C_9  and  C_10 
REMARK    4  A    between atoms: C_13  and  C_14 
REMARK    5  A    between atoms: C_14  and  C_15 
ROOT
HETATM    1  N   UNL     1      42.759  -9.949   9.774  1.00  0.00    -0.323 N 
HETATM    2  C   UNL     1      43.623  -9.649   8.736  1.00  0.00     0.256 C 
HETATM    3  O   UNL     1      44.408  -8.709   8.688  1.00  0.00    -0.267 OA
HETATM    4  H   UNL     1      42.324 -10.861   9.767  1.00  0.00     0.169 HD
ENDROOT
BRANCH   1   5
HETATM    5  C   UNL     1      42.405  -9.111  10.855  1.00  0.00     0.035 A 
HETATM    6  C   UNL     1      41.152  -8.505  10.984  1.00  0.00     0.044 A 
HETATM    7  C   UNL     1      40.839  -7.752  12.138  1.00  0.00     0.005 A 
HETATM    8  C   UNL     1      41.798  -7.623  13.143  1.00  0.00     0.046 A 
HETATM    9  C   UNL     1      39.671  -7.043  12.559  1.00  0.00     0.003 A 
HETATM   10  N   UNL     1      41.219  -6.882  14.158  1.00  0.00    -0.346 N 
HETATM   11  C   UNL     1      43.073  -8.196  13.021  1.00  0.00     0.033 A 
HETATM   12  C   UNL     1      39.932  -6.506  13.821  1.00  0.00     0.046 A 
HETATM   13  C   UNL     1      38.975  -5.746  14.515  1.00  0.00     0.030 A 
HETATM   14  C   UNL     1      37.733  -5.536  13.909  1.00  0.00     0.002 A 
HETATM   15  C   UNL     1      37.450  -6.064  12.654  1.00  0.00     0.001 A 
HETATM   16  C   UNL     1      38.409  -6.817  11.970  1.00  0.00     0.014 A 
HETATM   17  C   UNL     1      43.353  -8.940  11.867  1.00  0.00     0.032 A 
BRANCH  10  18
HETATM   18  C   UNL     1      41.862  -6.574  15.426  1.00  0.00     0.125 C 
HETATM   19  C   UNL     1      41.513  -7.578  16.510  1.00  0.00     0.027 C 
ENDBRANCH  10  18
ENDBRANCH   1   5
BRANCH   2  20
HETATM   20  C   UNL     1      43.578 -10.589   7.575  1.00  0.00     0.032 A 
HETATM   21  C   UNL     1      44.602 -11.510   7.324  1.00  0.00     0.017 A 
HETATM   22  C   UNL     1      44.482 -12.429   6.277  1.00  0.00     0.008 A 
HETATM   23  C   UNL     1      43.326 -12.461   5.485  1.00  0.00    -0.057 A 
HETATM   24  C   UNL     1      42.311 -11.527   5.732  1.00  0.00     0.008 A 
HETATM   25  C   UNL     1      42.433 -10.602   6.772  1.00  0.00     0.017 A 
BRANCH  23  26
HETATM   26  C   UNL     1      43.147 -13.515   4.414  1.00  0.00     0.053 C 
BRANCH  26  27
HETATM   27  C   UNL     1      42.418 -14.794   4.857  1.00  0.00     0.091 C 
HETATM   28  C   UNL     1      43.384 -15.896   5.212  1.00  0.00     0.229 C 
HETATM   29  O   UNL     1      44.178 -15.871   6.138  1.00  0.00    -0.273 OA
HETATM   30  N   UNL     1      43.255 -16.900   4.310  1.00  0.00    -0.297 N 
HETATM   31  C   UNL     1      42.256 -16.694   3.418  1.00  0.00     0.225 C 
HETATM   32  H   UNL     1      43.848 -17.715   4.296  1.00  0.00     0.171 HD
HETATM   33  O   UNL     1      41.955 -17.438   2.500  1.00  0.00    -0.273 OA
HETATM   34  C   UNL     1      41.529 -15.435   3.790  1.00  0.00     0.117 C 
ENDBRANCH  26  27
ENDBRANCH  23  26
ENDBRANCH   2  20
TORSDOF 5
ENDMDL
MODEL 10
REMARK VINA RESULT:      -8.0      6.461     10.053
REMARK  5 active torsions:
REMARK  status: ('A' for Active; 'I' for Inactive)
REMARK    1  A    between atoms: C_2  and  N_3 
REMARK    2  A    between atoms: C_7  and  N_8 
REMARK       I    between atoms: N_8  and  C_9 
REMARK    3  A    between atoms: C_9  and  C_10 
REMARK    4  A    between atoms: C_13  and  C_14 
REMARK    5  A    between atoms: C_14  and  C_15 
ROOT
HETATM    1  N   UNL     1      41.628 -13.077   1.832  1.00  0.00    -0.323 N 
HETATM    2  C   UNL     1      41.932 -11.728   1.838  1.00  0.00     0.256 C 
HETATM    3  O   UNL     1      42.833 -11.185   2.467  1.00  0.00    -0.267 OA
HETATM    4  H   UNL     1      40.998 -13.408   1.115  1.00  0.00     0.169 HD
ENDROOT
BRANCH   1   5
HETATM    5  C   UNL     1      42.099 -14.059   2.733  1.00  0.00     0.035 A 
HETATM    6  C   UNL     1      42.303 -15.396   2.380  1.00  0.00     0.044 A 
HETATM    7  C   UNL     1      42.861 -16.302   3.310  1.00  0.00     0.005 A 
HETATM    8  C   UNL     1      43.203 -15.842   4.582  1.00  0.00     0.046 A 
HETATM    9  C   UNL     1      43.196 -17.690   3.246  1.00  0.00     0.003 A 
HETATM   10  N   UNL     1      43.758 -16.912   5.261  1.00  0.00    -0.346 N 
HETATM   11  C   UNL     1      42.978 -14.512   4.968  1.00  0.00     0.033 A 
HETATM   12  C   UNL     1      43.752 -18.049   4.476  1.00  0.00     0.046 A 
HETATM   13  C   UNL     1      44.190 -19.359   4.735  1.00  0.00     0.030 A 
HETATM   14  C   UNL     1      44.059 -20.313   3.721  1.00  0.00     0.002 A 
HETATM   15  C   UNL     1      43.510 -19.977   2.489  1.00  0.00     0.001 A 
HETATM   16  C   UNL     1      43.076 -18.672   2.240  1.00  0.00     0.014 A 
HETATM   17  C   UNL     1      42.427 -13.636   4.023  1.00  0.00     0.032 A 
BRANCH  10  18
HETATM   18  C   UNL     1      44.310 -16.842   6.605  1.00  0.00     0.125 C 
HETATM   19  C   UNL     1      43.258 -16.501   7.644  1.00  0.00     0.027 C 
ENDBRANCH  10  18
ENDBRANCH   1   5
BRANCH   2  20
HETATM   20  C   UNL     1      41.063 -10.873   0.975  1.00  0.00     0.032 A 
HETATM   21  C   UNL     1      41.588 -10.069  -0.045  1.00  0.00     0.017 A 
HETATM   22  C   UNL     1      40.733  -9.349  -0.886  1.00  0.00     0.008 A 
HETATM   23  C   UNL     1      39.342  -9.444  -0.740  1.00  0.00    -0.057 A 
HETATM   24  C   UNL     1      38.823 -10.240   0.291  1.00  0.00     0.008 A 
HETATM   25  C   UNL     1      39.675 -10.952   1.138  1.00  0.00     0.017 A 
BRANCH  23  26
HETATM   26  C   UNL     1      38.411  -8.747  -1.706  1.00  0.00     0.053 C 
BRANCH  26  27
HETATM   27  C   UNL     1      37.954  -9.585  -2.911  1.00  0.00     0.091 C 
HETATM   28  C   UNL     1      36.459  -9.784  -2.921  1.00  0.00     0.229 C 
HETATM   29  O   UNL     1      35.627  -8.902  -3.054  1.00  0.00    -0.273 OA
HETATM   30  N   UNL     1      36.189 -11.098  -2.719  1.00  0.00    -0.297 N 
HETATM   31  C   UNL     1      37.302 -11.870  -2.661  1.00  0.00     0.225 C 
HETATM   32  H   UNL     1      35.257 -11.464  -2.611  1.00  0.00     0.171 HD
HETATM   33  O   UNL     1      37.324 -13.074  -2.467  1.00  0.00    -0.273 OA
HETATM   34  C   UNL     1      38.500 -11.014  -2.951  1.00  0.00     0.117 C 
ENDBRANCH  26  27
ENDBRANCH  23  26
ENDBRANCH   2  20
TORSDOF 5
ENDMDL
