MODEL 1
REMARK VINA RESULT:      -8.0      0.000      0.000
REMARK  6 active torsions:
REMARK  status: ('A' for Active; 'I' for Inactive)
REMARK    1  A    between atoms: C_8  and  C_9 
REMARK    2  A    between atoms: C_9  and  C_10 
REMARK       I    between atoms: C_10  and  N_11 
REMARK    3  A    between atoms: N_11  and  C_12 
REMARK    4  A    between atoms: C_12  and  C_13 
REMARK    5  A    between atoms: C_13  and  N_14 
REMARK    6  A    between atoms: C_13  and  C_20 
ROOT
HETATM    1  C   UNL     1      41.104 -15.168   1.674  1.00  0.00     0.160 C 
ENDROOT
BRANCH   1   2
HETATM    2  N   UNL     1      40.934 -14.710   0.297  1.00  0.00    -0.358 N 
HETATM    3  C   UNL     1      40.162 -13.589   0.041  1.00  0.00     0.226 C 
HETATM    4  O   UNL     1      39.400 -13.153   0.903  1.00  0.00    -0.273 OA
HETATM    5  H   UNL     1      41.722 -14.852  -0.324  1.00  0.00     0.162 HD
BRANCH   3   6
HETATM    6  C   UNL     1      40.276 -12.955  -1.351  1.00  0.00     0.111 C 
HETATM    7  C   UNL     1      41.175 -11.720  -1.408  1.00  0.00     0.025 C 
BRANCH   6   8
HETATM    8  C   UNL     1      38.930 -12.732  -1.980  1.00  0.00     0.004 A 
HETATM    9  C   UNL     1      38.223 -13.650  -2.743  1.00  0.00     0.033 A 
HETATM   10  C   UNL     1      38.526 -15.043  -3.155  1.00  0.00     0.070 C 
HETATM   11  N   UNL     1      37.060 -13.034  -3.105  1.00  0.00    -0.282 N 
HETATM   12  H   UNL     1      36.297 -13.406  -3.664  1.00  0.00     0.189 HD
HETATM   13  N   UNL     1      36.957 -11.783  -2.648  1.00  0.00    -0.179 NA
HETATM   14  C   UNL     1      38.088 -11.580  -1.967  1.00  0.00     0.060 A 
HETATM   15  C   UNL     1      38.289 -10.256  -1.326  1.00  0.00     0.073 C 
ENDBRANCH   6   8
ENDBRANCH   3   6
ENDBRANCH   1   2
BRANCH   1  16
HETATM   16  C   UNL     1      42.527 -15.020   2.313  1.00  0.00     0.238 C 
BRANCH  16  17
HETATM   17  N   UNL     1      42.631 -13.910   3.367  1.00  0.00    -0.061 N 
HETATM   18  H   UNL     1      43.141 -14.357   4.141  1.00  0.00     0.280 HD
HETATM   19  C   UNL     1      41.355 -13.378   3.974  1.00  0.00     0.236 C 
HETATM   20  C   UNL     1      41.291 -11.940   3.506  1.00  0.00     0.029 C 
HETATM   21  C   UNL     1      42.745 -11.515   3.513  1.00  0.00     0.029 C 
HETATM   22  C   UNL     1      43.482 -12.722   2.965  1.00  0.00     0.236 C 
ENDBRANCH  16  17
BRANCH  16  23
HETATM   23  C   UNL     1      43.062 -16.329   2.890  1.00  0.00    -0.024 A 
HETATM   24  C   UNL     1      43.042 -17.538   2.174  1.00  0.00     0.033 A 
HETATM   25  C   UNL     1      43.517 -18.717   2.758  1.00  0.00     0.034 A 
HETATM   26 CL   UNL     1      43.475 -20.180   1.856  1.00  0.00    -0.084 Cl
HETATM   27  C   UNL     1      44.014 -18.715   4.055  1.00  0.00     0.024 A 
HETATM   28  C   UNL     1      44.038 -17.526   4.781  1.00  0.00     0.002 A 
HETATM   29  C   UNL     1      43.562 -16.344   4.206  1.00  0.00     0.009 A 
ENDBRANCH  16  23
ENDBRANCH   1  16
TORSDOF 6
ENDMDL
MODEL 2
REMARK VINA RESULT:      -8.0      1.547      2.354
REMARK  6 active torsions:
REMARK  status: ('A' for Active; 'I' for Inactive)
REMARK    1  A    between atoms: C_8  and  C_9 
REMARK    2  A    between atoms: C_9  and  C_10 
REMARK       I    between atoms: C_10  and  N_11 
REMARK    3  A    between atoms: N_11  and  C_12 
REMARK    4  A    between atoms: C_12  and  C_13 
REMARK    5  A    between atoms: C_13  and  N_14 
REMARK    6  A    between atoms: C_13  and  C_20 
ROOT
HETATM    1  C   UNL     1      41.484 -15.553   1.885  1.00  0.00     0.160 C 
ENDROOT
BRANCH   1   2
HETATM    2  N   UNL     1      41.282 -14.453   0.946  1.00  0.00    -0.358 N 
HETATM    3  C   UNL     1      40.104 -13.726   0.986  1.00  0.00     0.226 C 
HETATM    4  O   UNL     1      39.128 -14.165   1.594  1.00  0.00    -0.273 OA
HETATM    5  H   UNL     1      42.110 -13.932   0.679  1.00  0.00     0.162 HD
BRANCH   3   6
HETATM    6  C   UNL     1      40.066 -12.395   0.225  1.00  0.00     0.111 C 
HETATM    7  C   UNL     1      38.792 -11.581   0.443  1.00  0.00     0.025 C 
BRANCH   6   8
HETATM    8  C   UNL     1      40.413 -12.568  -1.227  1.00  0.00     0.004 A 
HETATM    9  C   UNL     1      41.201 -11.714  -1.985  1.00  0.00     0.033 A 
HETATM   10  C   UNL     1      41.913 -10.456  -1.649  1.00  0.00     0.070 C 
HETATM   11  N   UNL     1      41.254 -12.252  -3.239  1.00  0.00    -0.282 N 
HETATM   12  H   UNL     1      41.744 -11.900  -4.056  1.00  0.00     0.189 HD
HETATM   13  N   UNL     1      40.554 -13.384  -3.361  1.00  0.00    -0.179 NA
HETATM   14  C   UNL     1      40.030 -13.588  -2.149  1.00  0.00     0.060 A 
HETATM   15  C   UNL     1      39.176 -14.785  -1.949  1.00  0.00     0.073 C 
ENDBRANCH   6   8
ENDBRANCH   3   6
ENDBRANCH   1   2
BRANCH   1  16
HETATM   16  C   UNL     1      42.721 -15.466   2.843  1.00  0.00     0.238 C 
BRANCH  16  17
HETATM   17  N   UNL     1      42.481 -14.627   4.105  1.00  0.00    -0.061 N 
HETATM   18  H   UNL     1      43.084 -15.073   4.810  1.00  0.00     0.280 HD
HETATM   19  C   UNL     1      41.096 -14.615   4.704  1.00  0.00     0.236 C 
HETATM   20  C   UNL     1      40.629 -13.186   4.534  1.00  0.00     0.029 C 
HETATM   21  C   UNL     1      41.898 -12.386   4.743  1.00  0.00     0.029 C 
HETATM   22  C   UNL     1      42.961 -13.192   4.021  1.00  0.00     0.236 C 
ENDBRANCH  16  17
BRANCH  16  23
HETATM   23  C   UNL     1      43.272 -16.835   3.232  1.00  0.00    -0.024 A 
HETATM   24  C   UNL     1      43.244 -17.941   2.364  1.00  0.00     0.033 A 
HETATM   25  C   UNL     1      43.736 -19.182   2.778  1.00  0.00     0.034 A 
HETATM   26 CL   UNL     1      43.682 -20.515   1.692  1.00  0.00    -0.084 Cl
HETATM   27  C   UNL     1      44.258 -19.348   4.055  1.00  0.00     0.024 A 
HETATM   28  C   UNL     1      44.290 -18.264   4.931  1.00  0.00     0.002 A 
HETATM   29  C   UNL     1      43.798 -17.021   4.525  1.00  0.00     0.009 A 
ENDBRANCH  16  23
ENDBRANCH   1  16
TORSDOF 6
ENDMDL
MODEL 3
REMARK VINA RESULT:      -8.0      0.889      1.890
REMARK  6 active torsions:
REMARK  status: ('A' for Active; 'I' for Inactive)
REMARK    1  A    between atoms: C_8  and  C_9 
REMARK    2  A    between atoms: C_9  and  C_10 
REMARK       I    between atoms: C_10  and  N_11 
REMARK    3  A    between atoms: N_11  and  C_12 
REMARK    4  A    between atoms: C_12  and  C_13 
REMARK    5  A    between atoms: C_13  and  N_14 
REMARK    6  A    between atoms: C_13  and  C_20 
ROOT
HETATM    1  C   UNL     1      40.717 -15.627   2.295  1.00  0.00     0.160 C 
ENDROOT
BRANCH   1   2
HETATM    2  N   UNL     1      40.564 -15.114   0.936  1.00  0.00    -0.358 N 
HETATM    3  C   UNL     1      40.153 -13.807   0.742  1.00  0.00     0.226 C 
HETATM    4  O   UNL     1      39.647 -13.173   1.669  1.00  0.00    -0.273 OA
HETATM    5  H   UNL     1      41.207 -15.480   0.242  1.00  0.00     0.162 HD
BRANCH   3   6
HETATM    6  C   UNL     1      40.321 -13.212  -0.662  1.00  0.00     0.111 C 
HETATM    7  C   UNL     1      41.202 -11.966  -0.716  1.00  0.00     0.025 C 
BRANCH   6   8
HETATM    8  C   UNL     1      39.002 -13.031  -1.358  1.00  0.00     0.004 A 
HETATM    9  C   UNL     1      38.140 -11.954  -1.207  1.00  0.00     0.033 A 
HETATM   10  C   UNL     1      38.223 -10.722  -0.385  1.00  0.00     0.070 C 
HETATM   11  N   UNL     1      37.072 -12.199  -2.022  1.00  0.00    -0.282 N 
HETATM   12  H   UNL     1      36.248 -11.625  -2.172  1.00  0.00     0.189 HD
HETATM   13  N   UNL     1      37.165 -13.356  -2.685  1.00  0.00    -0.179 NA
HETATM   14  C   UNL     1      38.329 -13.878  -2.289  1.00  0.00     0.060 A 
HETATM   15  C   UNL     1      38.732 -15.192  -2.850  1.00  0.00     0.073 C 
ENDBRANCH   6   8
ENDBRANCH   3   6
ENDBRANCH   1   2
BRANCH   1  16
HETATM   16  C   UNL     1      42.090 -15.381   3.009  1.00  0.00     0.238 C 
BRANCH  16  17
HETATM   17  N   UNL     1      41.988 -14.551   4.297  1.00  0.00    -0.061 N 
HETATM   18  H   UNL     1      42.729 -14.942   4.895  1.00  0.00     0.280 HD
HETATM   19  C   UNL     1      40.719 -14.641   5.107  1.00  0.00     0.236 C 
HETATM   20  C   UNL     1      40.121 -13.254   5.018  1.00  0.00     0.029 C 
HETATM   21  C   UNL     1      41.340 -12.356   5.026  1.00  0.00     0.029 C 
HETATM   22  C   UNL     1      42.336 -13.084   4.142  1.00  0.00     0.236 C 
ENDBRANCH  16  17
BRANCH  16  23
HETATM   23  C   UNL     1      42.860 -16.669   3.287  1.00  0.00    -0.024 A 
HETATM   24  C   UNL     1      42.805 -17.786   2.435  1.00  0.00     0.033 A 
HETATM   25  C   UNL     1      43.506 -18.954   2.748  1.00  0.00     0.034 A 
HETATM   26 CL   UNL     1      43.413 -20.303   1.686  1.00  0.00    -0.084 Cl
HETATM   27  C   UNL     1      44.267 -19.035   3.908  1.00  0.00     0.024 A 
HETATM   28  C   UNL     1      44.330 -17.939   4.766  1.00  0.00     0.002 A 
HETATM   29  C   UNL     1      43.630 -16.768   4.461  1.00  0.00     0.009 A 
ENDBRANCH  16  23
ENDBRANCH   1  16
TORSDOF 6
ENDMDL
MODEL 4
REMARK VINA RESULT:      -7.7      2.039      2.569
REMARK  6 active torsions:
REMARK  status: ('A' for Active; 'I' for Inactive)
REMARK    1  A    between atoms: C_8  and  C_9 
REMARK    2  A    between atoms: C_9  and  C_10 
REMARK       I    between atoms: C_10  and  N_11 
REMARK    3  A    between atoms: N_11  and  C_12 
REMARK    4  A    between atoms: C_12  and  C_13 
REMARK    5  A    between atoms: C_13  and  N_14 
REMARK    6  A    between atoms: C_13  and  C_20 
ROOT
HETATM    1  C   UNL     1      41.342 -15.194   2.049  1.00  0.00     0.160 C 
ENDROOT
BRANCH   1   2
HETATM    2  N   UNL     1      40.946 -13.936   1.420  1.00  0.00    -0.358 N 
HETATM    3  C   UNL     1      40.099 -13.957   0.325  1.00  0.00     0.226 C 
HETATM    4  O   UNL     1      39.910 -15.007  -0.290  1.00  0.00    -0.273 OA
HETATM    5  H   UNL     1      40.848 -13.137   2.036  1.00  0.00     0.162 HD
BRANCH   3   6
HETATM    6  C   UNL     1      39.451 -12.632  -0.094  1.00  0.00     0.111 C 
HETATM    7  C   UNL     1      38.406 -12.765  -1.201  1.00  0.00     0.025 C 
BRANCH   6   8
HETATM    8  C   UNL     1      40.475 -11.569  -0.376  1.00  0.00     0.004 A 
HETATM    9  C   UNL     1      41.160 -11.392  -1.570  1.00  0.00     0.033 A 
HETATM   10  C   UNL     1      41.114 -12.121  -2.861  1.00  0.00     0.070 C 
HETATM   11  N   UNL     1      41.981 -10.317  -1.385  1.00  0.00    -0.282 N 
HETATM   12  H   UNL     1      42.627  -9.895  -2.047  1.00  0.00     0.189 HD
HETATM   13  N   UNL     1      41.893  -9.786  -0.162  1.00  0.00    -0.179 NA
HETATM   14  C   UNL     1      40.987 -10.538   0.467  1.00  0.00     0.060 A 
HETATM   15  C   UNL     1      40.659 -10.205   1.876  1.00  0.00     0.073 C 
ENDBRANCH   6   8
ENDBRANCH   3   6
ENDBRANCH   1   2
BRANCH   1  16
HETATM   16  C   UNL     1      42.572 -15.159   3.020  1.00  0.00     0.238 C 
BRANCH  16  17
HETATM   17  N   UNL     1      42.311 -14.420   4.339  1.00  0.00    -0.061 N 
HETATM   18  H   UNL     1      42.911 -14.912   5.015  1.00  0.00     0.280 HD
HETATM   19  C   UNL     1      40.919 -14.465   4.920  1.00  0.00     0.236 C 
HETATM   20  C   UNL     1      40.441 -13.030   4.853  1.00  0.00     0.029 C 
HETATM   21  C   UNL     1      41.700 -12.238   5.137  1.00  0.00     0.029 C 
HETATM   22  C   UNL     1      42.779 -12.979   4.369  1.00  0.00     0.236 C 
ENDBRANCH  16  17
BRANCH  16  23
HETATM   23  C   UNL     1      43.143 -16.544   3.310  1.00  0.00    -0.024 A 
HETATM   24  C   UNL     1      43.015 -17.622   2.417  1.00  0.00     0.033 A 
HETATM   25  C   UNL     1      43.532 -18.880   2.743  1.00  0.00     0.034 A 
HETATM   26 CL   UNL     1      43.353 -20.178   1.628  1.00  0.00    -0.084 Cl
HETATM   27  C   UNL     1      44.177 -19.089   3.955  1.00  0.00     0.024 A 
HETATM   28  C   UNL     1      44.309 -18.033   4.854  1.00  0.00     0.002 A 
HETATM   29  C   UNL     1      43.794 -16.774   4.538  1.00  0.00     0.009 A 
ENDBRANCH  16  23
ENDBRANCH   1  16
TORSDOF 6
ENDMDL
MODEL 5
REMARK VINA RESULT:      -7.7      2.051      3.066
REMARK  6 active torsions:
REMARK  status: ('A' for Active; 'I' for Inactive)
REMARK    1  A    between atoms: C_8  and  C_9 
REMARK    2  A    between atoms: C_9  and  C_10 
REMARK       I    between atoms: C_10  and  N_11 
REMARK    3  A    between atoms: N_11  and  C_12 
REMARK    4  A    between atoms: C_12  and  C_13 
REMARK    5  A    between atoms: C_13  and  N_14 
REMARK    6  A    between atoms: C_13  and  C_20 
ROOT
HETATM    1  C   UNL     1      41.657 -15.794   3.189  1.00  0.00     0.160 C 
ENDROOT
BRANCH   1   2
HETATM    2  N   UNL     1      41.870 -14.651   2.304  1.00  0.00    -0.358 N 
HETATM    3  C   UNL     1      41.026 -14.457   1.224  1.00  0.00     0.226 C 
HETATM    4  O   UNL     1      40.295 -15.370   0.839  1.00  0.00    -0.273 OA
HETATM    5  H   UNL     1      42.229 -13.808   2.737  1.00  0.00     0.162 HD
BRANCH   3   6
HETATM    6  C   UNL     1      41.072 -13.092   0.525  1.00  0.00     0.111 C 
HETATM    7  C   UNL     1      41.579 -11.951   1.406  1.00  0.00     0.025 C 
BRANCH   6   8
HETATM    8  C   UNL     1      39.777 -12.771  -0.167  1.00  0.00     0.004 A 
HETATM    9  C   UNL     1      38.657 -12.201   0.421  1.00  0.00     0.033 A 
HETATM   10  C   UNL     1      38.382 -11.749   1.807  1.00  0.00     0.070 C 
HETATM   11  N   UNL     1      37.722 -12.085  -0.567  1.00  0.00    -0.282 N 
HETATM   12  H   UNL     1      36.780 -11.707  -0.504  1.00  0.00     0.189 HD
HETATM   13  N   UNL     1      38.140 -12.544  -1.750  1.00  0.00    -0.179 NA
HETATM   14  C   UNL     1      39.385 -12.971  -1.524  1.00  0.00     0.060 A 
HETATM   15  C   UNL     1      40.141 -13.555  -2.661  1.00  0.00     0.073 C 
ENDBRANCH   6   8
ENDBRANCH   3   6
ENDBRANCH   1   2
BRANCH   1  16
HETATM   16  C   UNL     1      42.901 -16.348   3.963  1.00  0.00     0.238 C 
BRANCH  16  17
HETATM   17  N   UNL     1      42.827 -16.165   5.485  1.00  0.00    -0.061 N 
HETATM   18  H   UNL     1      43.050 -17.101   5.852  1.00  0.00     0.280 HD
HETATM   19  C   UNL     1      41.499 -15.793   6.096  1.00  0.00     0.236 C 
HETATM   20  C   UNL     1      41.726 -14.407   6.662  1.00  0.00     0.029 C 
HETATM   21  C   UNL     1      43.157 -14.469   7.153  1.00  0.00     0.029 C 
HETATM   22  C   UNL     1      43.881 -15.248   6.072  1.00  0.00     0.236 C 
ENDBRANCH  16  17
BRANCH  16  23
HETATM   23  C   UNL     1      43.209 -17.807   3.634  1.00  0.00    -0.024 A 
HETATM   24  C   UNL     1      43.748 -18.701   4.575  1.00  0.00     0.033 A 
HETATM   25  C   UNL     1      44.039 -20.020   4.216  1.00  0.00     0.034 A 
HETATM   26 CL   UNL     1      44.702 -21.087   5.391  1.00  0.00    -0.084 Cl
HETATM   27  C   UNL     1      43.805 -20.471   2.923  1.00  0.00     0.024 A 
HETATM   28  C   UNL     1      43.274 -19.598   1.976  1.00  0.00     0.002 A 
HETATM   29  C   UNL     1      42.983 -18.277   2.326  1.00  0.00     0.009 A 
ENDBRANCH  16  23
ENDBRANCH   1  16
TORSDOF 6
ENDMDL
MODEL 6
REMARK VINA RESULT:      -7.6      1.859      2.811
REMARK  6 active torsions:
REMARK  status: ('A' for Active; 'I' for Inactive)
REMARK    1  A    between atoms: C_8  and  C_9 
REMARK    2  A    between atoms: C_9  and  C_10 
REMARK       I    between atoms: C_10  and  N_11 
REMARK    3  A    between atoms: N_11  and  C_12 
REMARK    4  A    between atoms: C_12  and  C_13 
REMARK    5  A    between atoms: C_13  and  N_14 
REMARK    6  A    between atoms: C_13  and  C_20 
ROOT
HETATM    1  C   UNL     1      40.251 -14.303   2.030  1.00  0.00     0.160 C 
ENDROOT
BRANCH   1   2
HETATM    2  N   UNL     1      39.818 -13.779   0.738  1.00  0.00    -0.358 N 
HETATM    3  C   UNL     1      39.037 -12.636   0.692  1.00  0.00     0.226 C 
HETATM    4  O   UNL     1      38.475 -12.230   1.709  1.00  0.00    -0.273 OA
HETATM    5  H   UNL     1      40.460 -13.903  -0.036  1.00  0.00     0.162 HD
BRANCH   3   6
HETATM    6  C   UNL     1      38.882 -11.938  -0.665  1.00  0.00     0.111 C 
HETATM    7  C   UNL     1      37.451 -11.910  -1.199  1.00  0.00     0.025 C 
BRANCH   6   8
HETATM    8  C   UNL     1      39.876 -12.442  -1.673  1.00  0.00     0.004 A 
HETATM    9  C   UNL     1      41.050 -11.807  -2.051  1.00  0.00     0.033 A 
HETATM   10  C   UNL     1      41.673 -10.531  -1.621  1.00  0.00     0.070 C 
HETATM   11  N   UNL     1      41.641 -12.613  -2.981  1.00  0.00    -0.282 N 
HETATM   12  H   UNL     1      42.518 -12.469  -3.474  1.00  0.00     0.189 HD
HETATM   13  N   UNL     1      40.940 -13.719  -3.247  1.00  0.00    -0.179 NA
HETATM   14  C   UNL     1      39.861 -13.629  -2.466  1.00  0.00     0.060 A 
HETATM   15  C   UNL     1      38.858 -14.722  -2.531  1.00  0.00     0.073 C 
ENDBRANCH   6   8
ENDBRANCH   3   6
ENDBRANCH   1   2
BRANCH   1  16
HETATM   16  C   UNL     1      41.766 -14.150   2.400  1.00  0.00     0.238 C 
BRANCH  16  17
HETATM   17  N   UNL     1      42.050 -13.071   3.454  1.00  0.00    -0.061 N 
HETATM   18  H   UNL     1      42.482 -13.596   4.226  1.00  0.00     0.280 HD
HETATM   19  C   UNL     1      40.879 -12.339   4.061  1.00  0.00     0.236 C 
HETATM   20  C   UNL     1      41.049 -10.910   3.593  1.00  0.00     0.029 C 
HETATM   21  C   UNL     1      42.552 -10.726   3.599  1.00  0.00     0.029 C 
HETATM   22  C   UNL     1      43.083 -12.038   3.050  1.00  0.00     0.236 C 
ENDBRANCH  16  17
BRANCH  16  23
HETATM   23  C   UNL     1      42.415 -15.466   2.823  1.00  0.00    -0.024 A 
HETATM   24  C   UNL     1      43.048 -15.636   4.066  1.00  0.00     0.033 A 
HETATM   25  C   UNL     1      43.652 -16.853   4.394  1.00  0.00     0.034 A 
HETATM   26 CL   UNL     1      44.422 -17.026   5.923  1.00  0.00    -0.084 Cl
HETATM   27  C   UNL     1      43.642 -17.915   3.498  1.00  0.00     0.024 A 
HETATM   28  C   UNL     1      43.023 -17.762   2.259  1.00  0.00     0.002 A 
HETATM   29  C   UNL     1      42.418 -16.548   1.922  1.00  0.00     0.009 A 
ENDBRANCH  16  23
ENDBRANCH   1  16
TORSDOF 6
ENDMDL
MODEL 7
REMARK VINA RESULT:      -7.3      5.077      8.664
REMARK  6 active torsions:
REMARK  status: ('A' for Active; 'I' for Inactive)
REMARK    1  A    between atoms: C_8  and  C_9 
REMARK    2  A    between atoms: C_9  and  C_10 
REMARK       I    between atoms: C_10  and  N_11 
REMARK    3  A    between atoms: N_11  and  C_12 
REMARK    4  A    between atoms: C_12  and  C_13 
REMARK    5  A    between atoms: C_13  and  N_14 
REMARK    6  A    between atoms: C_13  and  C_20 
ROOT
HETATM    1  C   UNL     1      43.616 -12.263   6.568  1.00  0.00     0.160 C 
ENDROOT
BRANCH   1   2
HETATM    2  N   UNL     1      43.032 -11.227   7.417  1.00  0.00    -0.358 N 
HETATM    3  C   UNL     1      43.833 -10.201   7.890  1.00  0.00     0.226 C 
HETATM    4  O   UNL     1      45.059 -10.303   7.846  1.00  0.00    -0.273 OA
HETATM    5  H   UNL     1      42.068 -10.979   7.226  1.00  0.00     0.162 HD
BRANCH   3   6
HETATM    6  C   UNL     1      43.132  -8.976   8.490  1.00  0.00     0.111 C 
HETATM    7  C   UNL     1      44.072  -7.827   8.851  1.00  0.00     0.025 C 
BRANCH   6   8
HETATM    8  C   UNL     1      42.204  -9.351   9.611  1.00  0.00     0.004 A 
HETATM    9  C   UNL     1      42.565  -9.979  10.794  1.00  0.00     0.033 A 
HETATM   10  C   UNL     1      43.874 -10.447  11.313  1.00  0.00     0.070 C 
HETATM   11  N   UNL     1      41.416 -10.123  11.518  1.00  0.00    -0.282 N 
HETATM   12  H   UNL     1      41.299 -10.537  12.439  1.00  0.00     0.189 HD
HETATM   13  N   UNL     1      40.334  -9.648  10.897  1.00  0.00    -0.179 NA
HETATM   14  C   UNL     1      40.792  -9.180   9.733  1.00  0.00     0.060 A 
HETATM   15  C   UNL     1      39.817  -8.578   8.788  1.00  0.00     0.073 C 
ENDBRANCH   6   8
ENDBRANCH   3   6
ENDBRANCH   1   2
BRANCH   1  16
HETATM   16  C   UNL     1      42.630 -13.156   5.739  1.00  0.00     0.238 C 
BRANCH  16  17
HETATM   17  N   UNL     1      42.163 -12.521   4.422  1.00  0.00    -0.061 N 
HETATM   18  H   UNL     1      42.229 -13.293   3.745  1.00  0.00     0.280 HD
HETATM   19  C   UNL     1      42.984 -11.397   3.839  1.00  0.00     0.236 C 
HETATM   20  C   UNL     1      42.071 -10.193   3.911  1.00  0.00     0.029 C 
HETATM   21  C   UNL     1      40.705 -10.784   3.631  1.00  0.00     0.029 C 
HETATM   22  C   UNL     1      40.710 -12.093   4.397  1.00  0.00     0.236 C 
ENDBRANCH  16  17
BRANCH  16  23
HETATM   23  C   UNL     1      43.175 -14.556   5.470  1.00  0.00    -0.024 A 
HETATM   24  C   UNL     1      42.916 -15.257   4.280  1.00  0.00     0.033 A 
HETATM   25  C   UNL     1      43.414 -16.550   4.094  1.00  0.00     0.034 A 
HETATM   26 CL   UNL     1      43.075 -17.381   2.627  1.00  0.00    -0.084 Cl
HETATM   27  C   UNL     1      44.170 -17.168   5.083  1.00  0.00     0.024 A 
HETATM   28  C   UNL     1      44.433 -16.490   6.271  1.00  0.00     0.002 A 
HETATM   29  C   UNL     1      43.937 -15.198   6.466  1.00  0.00     0.009 A 
ENDBRANCH  16  23
ENDBRANCH   1  16
TORSDOF 6
ENDMDL
MODEL 8
REMARK VINA RESULT:      -7.3      3.298      6.363
REMARK  6 active torsions:
REMARK  status: ('A' for Active; 'I' for Inactive)
REMARK    1  A    between atoms: C_8  and  C_9 
REMARK    2  A    between atoms: C_9  and  C_10 
REMARK       I    between atoms: C_10  and  N_11 
REMARK    3  A    between atoms: N_11  and  C_12 
REMARK    4  A    between atoms: C_12  and  C_13 
REMARK    5  A    between atoms: C_13  and  N_14 
REMARK    6  A    between atoms: C_13  and  C_20 
ROOT
HETATM    1  C   UNL     1      43.175 -14.742   3.940  1.00  0.00     0.160 C 
ENDROOT
BRANCH   1   2
HETATM    2  N   UNL     1      42.548 -13.584   4.571  1.00  0.00    -0.358 N 
HETATM    3  C   UNL     1      42.741 -12.324   4.031  1.00  0.00     0.226 C 
HETATM    4  O   UNL     1      43.646 -12.132   3.218  1.00  0.00    -0.273 OA
HETATM    5  H   UNL     1      41.645 -13.742   5.004  1.00  0.00     0.162 HD
BRANCH   3   6
HETATM    6  C   UNL     1      41.817 -11.198   4.512  1.00  0.00     0.111 C 
HETATM    7  C   UNL     1      41.738 -10.001   3.566  1.00  0.00     0.025 C 
BRANCH   6   8
HETATM    8  C   UNL     1      42.101 -10.806   5.934  1.00  0.00     0.004 A 
HETATM    9  C   UNL     1      41.167 -10.370   6.863  1.00  0.00     0.033 A 
HETATM   10  C   UNL     1      39.700 -10.166   6.778  1.00  0.00     0.070 C 
HETATM   11  N   UNL     1      41.856 -10.129   8.017  1.00  0.00    -0.282 N 
HETATM   12  H   UNL     1      41.497  -9.801   8.909  1.00  0.00     0.189 HD
HETATM   13  N   UNL     1      43.167 -10.363   7.911  1.00  0.00    -0.179 NA
HETATM   14  C   UNL     1      43.335 -10.770   6.650  1.00  0.00     0.060 A 
HETATM   15  C   UNL     1      44.709 -11.111   6.202  1.00  0.00     0.073 C 
ENDBRANCH   6   8
ENDBRANCH   3   6
ENDBRANCH   1   2
BRANCH   1  16
HETATM   16  C   UNL     1      42.248 -15.947   3.558  1.00  0.00     0.238 C 
BRANCH  16  17
HETATM   17  N   UNL     1      41.639 -15.851   2.153  1.00  0.00    -0.061 N 
HETATM   18  H   UNL     1      41.816 -16.780   1.749  1.00  0.00     0.280 HD
HETATM   19  C   UNL     1      42.236 -14.863   1.181  1.00  0.00     0.236 C 
HETATM   20  C   UNL     1      41.131 -13.855   0.949  1.00  0.00     0.029 C 
HETATM   21  C   UNL     1      39.879 -14.708   0.984  1.00  0.00     0.029 C 
HETATM   22  C   UNL     1      40.133 -15.683   2.118  1.00  0.00     0.236 C 
ENDBRANCH  16  17
BRANCH  16  23
HETATM   23  C   UNL     1      42.928 -17.303   3.734  1.00  0.00    -0.024 A 
HETATM   24  C   UNL     1      43.062 -18.227   2.683  1.00  0.00     0.033 A 
HETATM   25  C   UNL     1      43.666 -19.468   2.902  1.00  0.00     0.034 A 
HETATM   26 CL   UNL     1      43.810 -20.577   1.595  1.00  0.00    -0.084 Cl
HETATM   27  C   UNL     1      44.142 -19.813   4.161  1.00  0.00     0.024 A 
HETATM   28  C   UNL     1      44.014 -18.911   5.215  1.00  0.00     0.002 A 
HETATM   29  C   UNL     1      43.409 -17.669   5.005  1.00  0.00     0.009 A 
ENDBRANCH  16  23
ENDBRANCH   1  16
TORSDOF 6
ENDMDL
MODEL 9
REMARK VINA RESULT:      -7.3      2.588      4.629
REMARK  6 active torsions:
REMARK  status: ('A' for Active; 'I' for Inactive)
REMARK    1  A    between atoms: C_8  and  C_9 
REMARK    2  A    between atoms: C_9  and  C_10 
REMARK       I    between atoms: C_10  and  N_11 
REMARK    3  A    between atoms: N_11  and  C_12 
REMARK    4  A    between atoms: C_12  and  C_13 
REMARK    5  A    between atoms: C_13  and  N_14 
REMARK    6  A    between atoms: C_13  and  C_20 
ROOT
HETATM    1  C   UNL     1      40.425 -15.612   2.515  1.00  0.00     0.160 C 
ENDROOT
BRANCH   1   2
HETATM    2  N   UNL     1      40.029 -14.282   2.060  1.00  0.00    -0.358 N 
HETATM    3  C   UNL     1      40.824 -13.607   1.149  1.00  0.00     0.226 C 
HETATM    4  O   UNL     1      41.979 -13.978   0.942  1.00  0.00    -0.273 OA
HETATM    5  H   UNL     1      39.033 -14.110   1.985  1.00  0.00     0.162 HD
BRANCH   3   6
HETATM    6  C   UNL     1      40.219 -12.380   0.454  1.00  0.00     0.111 C 
HETATM    7  C   UNL     1      38.792 -12.051   0.888  1.00  0.00     0.025 C 
BRANCH   6   8
HETATM    8  C   UNL     1      40.382 -12.443  -1.038  1.00  0.00     0.004 A 
HETATM    9  C   UNL     1      41.007 -11.492  -1.832  1.00  0.00     0.033 A 
HETATM   10  C   UNL     1      41.676 -10.208  -1.506  1.00  0.00     0.070 C 
HETATM   11  N   UNL     1      40.928 -11.951  -3.115  1.00  0.00    -0.282 N 
HETATM   12  H   UNL     1      41.283 -11.518  -3.963  1.00  0.00     0.189 HD
HETATM   13  N   UNL     1      40.291 -13.121  -3.222  1.00  0.00    -0.179 NA
HETATM   14  C   UNL     1      39.946 -13.432  -1.970  1.00  0.00     0.060 A 
HETATM   15  C   UNL     1      39.203 -14.697  -1.744  1.00  0.00     0.073 C 
ENDBRANCH   6   8
ENDBRANCH   3   6
ENDBRANCH   1   2
BRANCH   1  16
HETATM   16  C   UNL     1      41.335 -15.698   3.788  1.00  0.00     0.238 C 
BRANCH  16  17
HETATM   17  N   UNL     1      42.718 -16.313   3.532  1.00  0.00    -0.061 N 
HETATM   18  H   UNL     1      43.357 -15.511   3.612  1.00  0.00     0.280 HD
HETATM   19  C   UNL     1      42.991 -16.919   2.178  1.00  0.00     0.236 C 
HETATM   20  C   UNL     1      43.182 -18.394   2.462  1.00  0.00     0.029 C 
HETATM   21  C   UNL     1      43.886 -18.394   3.802  1.00  0.00     0.029 C 
HETATM   22  C   UNL     1      43.185 -17.299   4.584  1.00  0.00     0.236 C 
ENDBRANCH  16  17
BRANCH  16  23
HETATM   23  C   UNL     1      41.491 -14.359   4.503  1.00  0.00    -0.024 A 
HETATM   24  C   UNL     1      42.661 -13.584   4.420  1.00  0.00     0.033 A 
HETATM   25  C   UNL     1      42.766 -12.377   5.117  1.00  0.00     0.034 A 
HETATM   26 CL   UNL     1      44.214 -11.457   4.996  1.00  0.00    -0.084 Cl
HETATM   27  C   UNL     1      41.718 -11.923   5.909  1.00  0.00     0.024 A 
HETATM   28  C   UNL     1      40.552 -12.679   6.006  1.00  0.00     0.002 A 
HETATM   29  C   UNL     1      40.440 -13.888   5.314  1.00  0.00     0.009 A 
ENDBRANCH  16  23
ENDBRANCH   1  16
TORSDOF 6
ENDMDL
MODEL 10
REMARK VINA RESULT:      -7.1      3.280      8.231
REMARK  6 active torsions:
REMARK  status: ('A' for Active; 'I' for Inactive)
REMARK    1  A    between atoms: C_8  and  C_9 
REMARK    2  A    between atoms: C_9  and  C_10 
REMARK       I    between atoms: C_10  and  N_11 
REMARK    3  A    between atoms: N_11  and  C_12 
REMARK    4  A    between atoms: C_12  and  C_13 
REMARK    5  A    between atoms: C_13  and  N_14 
REMARK    6  A    between atoms: C_13  and  C_20 
ROOT
HETATM    1  C   UNL     1      41.293 -13.350   0.836  1.00  0.00     0.160 C 
ENDROOT
BRANCH   1   2
HETATM    2  N   UNL     1      41.071 -14.681   1.395  1.00  0.00    -0.358 N 
HETATM    3  C   UNL     1      42.064 -15.276   2.156  1.00  0.00     0.226 C 
HETATM    4  O   UNL     1      43.212 -14.834   2.129  1.00  0.00    -0.273 OA
HETATM    5  H   UNL     1      40.119 -14.903   1.664  1.00  0.00     0.162 HD
BRANCH   3   6
HETATM    6  C   UNL     1      41.677 -16.505   2.988  1.00  0.00     0.111 C 
HETATM    7  C   UNL     1      40.512 -16.273   3.949  1.00  0.00     0.025 C 
BRANCH   6   8
HETATM    8  C   UNL     1      42.870 -17.134   3.650  1.00  0.00     0.004 A 
HETATM    9  C   UNL     1      43.485 -18.318   3.270  1.00  0.00     0.033 A 
HETATM   10  C   UNL     1      43.203 -19.278   2.174  1.00  0.00     0.070 C 
HETATM   11  N   UNL     1      44.521 -18.509   4.139  1.00  0.00    -0.282 N 
HETATM   12  H   UNL     1      45.193 -19.271   4.162  1.00  0.00     0.189 HD
HETATM   13  N   UNL     1      44.623 -17.548   5.062  1.00  0.00    -0.179 NA
HETATM   14  C   UNL     1      43.624 -16.707   4.784  1.00  0.00     0.060 A 
HETATM   15  C   UNL     1      43.457 -15.511   5.648  1.00  0.00     0.073 C 
ENDBRANCH   6   8
ENDBRANCH   3   6
ENDBRANCH   1   2
BRANCH   1  16
HETATM   16  C   UNL     1      40.751 -13.075  -0.609  1.00  0.00     0.238 C 
BRANCH  16  17
HETATM   17  N   UNL     1      39.311 -13.551  -0.842  1.00  0.00    -0.061 N 
HETATM   18  H   UNL     1      39.045 -13.967   0.061  1.00  0.00     0.280 HD
HETATM   19  C   UNL     1      39.071 -14.625  -1.873  1.00  0.00     0.236 C 
HETATM   20  C   UNL     1      38.255 -13.936  -2.946  1.00  0.00     0.029 C 
HETATM   21  C   UNL     1      37.377 -12.992  -2.152  1.00  0.00     0.029 C 
HETATM   22  C   UNL     1      38.303 -12.445  -1.081  1.00  0.00     0.236 C 
ENDBRANCH  16  17
BRANCH  16  23
HETATM   23  C   UNL     1      40.886 -11.614  -1.030  1.00  0.00    -0.024 A 
HETATM   24  C   UNL     1      40.838 -11.202  -2.373  1.00  0.00     0.033 A 
HETATM   25  C   UNL     1      40.995  -9.855  -2.709  1.00  0.00     0.034 A 
HETATM   26 CL   UNL     1      40.935  -9.386  -4.363  1.00  0.00    -0.084 Cl
HETATM   27  C   UNL     1      41.206  -8.898  -1.724  1.00  0.00     0.024 A 
HETATM   28  C   UNL     1      41.261  -9.289  -0.387  1.00  0.00     0.002 A 
HETATM   29  C   UNL     1      41.107 -10.634  -0.043  1.00  0.00     0.009 A 
ENDBRANCH  16  23
ENDBRANCH   1  16
TORSDOF 6
ENDMDL
