MODEL 1
REMARK VINA RESULT:      -8.7      0.000      0.000
REMARK  4 active torsions:
REMARK  status: ('A' for Active; 'I' for Inactive)
REMARK    1  A    between atoms: O_2  and  C_3 
REMARK    2  A    between atoms: C_6  and  C_7 
REMARK    3  A    between atoms: C_12  and  N_13 
REMARK    4  A    between atoms: C_15  and  C_16 
ROOT
HETATM    1  C   UNL     1      42.321 -13.189   1.514  1.00  0.00     0.135 C 
HETATM    2  N   UNL     1      41.989 -12.496   2.752  1.00  0.00    -0.214 N 
HETATM    3  C   UNL     1      41.521 -13.182   3.816  1.00  0.00     0.736 A 
HETATM    4  N   UNL     1      41.590 -14.549   3.874  1.00  0.00    -0.074 N 
HETATM    5  N   UNL     1      40.938 -15.021   4.952  1.00  0.00     0.037 NA
HETATM    6  C   UNL     1      40.599 -13.884   5.555  1.00  0.00     0.753 A 
HETATM    7  N   UNL     1      40.909 -12.740   4.883  1.00  0.00     0.131 NA
HETATM    8  C   UNL     1      42.100 -15.383   2.792  1.00  0.00     0.164 C 
HETATM    9  C   UNL     1      42.967 -14.549   1.831  1.00  0.00     0.063 C 
HETATM   10  H   UNL     1      41.689 -11.530   2.658  1.00  0.00     0.178 HD
ENDROOT
BRANCH   1  11
HETATM   11  C   UNL     1      41.154 -13.293   0.540  1.00  0.00    -0.035 A 
HETATM   12  C   UNL     1      40.630 -14.511   0.085  1.00  0.00     0.012 A 
HETATM   13  C   UNL     1      39.552 -14.538  -0.805  1.00  0.00     0.037 A 
HETATM   14  C   UNL     1      38.968 -13.357  -1.262  1.00  0.00     0.068 A 
HETATM   15  C   UNL     1      39.484 -12.138  -0.828  1.00  0.00     0.037 A 
HETATM   16  C   UNL     1      40.563 -12.109   0.064  1.00  0.00     0.012 A 
BRANCH  14  17
HETATM   17  O   UNL     1      37.919 -13.529  -2.120  1.00  0.00    -0.356 OA
HETATM   18  C   UNL     1      38.134 -14.381  -3.237  1.00  0.00     0.210 C 
ENDBRANCH  14  17
ENDBRANCH   1  11
BRANCH   8  19
HETATM   19  C   UNL     1      42.882 -16.590   3.297  1.00  0.00    -0.031 A 
HETATM   20  C   UNL     1      42.911 -17.770   2.536  1.00  0.00     0.028 A 
HETATM   21  C   UNL     1      43.647 -18.873   2.974  1.00  0.00     0.011 A 
HETATM   22 BR   UNL     1      43.670 -20.454   1.937  1.00  0.00    -0.051 Br
HETATM   23  C   UNL     1      44.365 -18.819   4.166  1.00  0.00     0.019 A 
HETATM   24  C   UNL     1      44.347 -17.653   4.929  1.00  0.00     0.002 A 
HETATM   25  C   UNL     1      43.613 -16.546   4.497  1.00  0.00     0.009 A 
ENDBRANCH   8  19
BRANCH   6  26
HETATM   26  N   UNL     1      39.943 -13.788   6.708  1.00  0.00    -0.229 N 
HETATM   27  H   UNL     1      40.435 -13.350   7.475  1.00  0.00     0.174 HD
HETATM   28  H   UNL     1      39.359 -14.572   6.965  1.00  0.00     0.174 HD
ENDBRANCH   6  26
TORSDOF 4
ENDMDL
MODEL 2
REMARK VINA RESULT:      -8.4      3.406      5.859
REMARK  4 active torsions:
REMARK  status: ('A' for Active; 'I' for Inactive)
REMARK    1  A    between atoms: O_2  and  C_3 
REMARK    2  A    between atoms: C_6  and  C_7 
REMARK    3  A    between atoms: C_12  and  N_13 
REMARK    4  A    between atoms: C_15  and  C_16 
ROOT
HETATM    1  C   UNL     1      41.042 -14.663   5.562  1.00  0.00     0.135 C 
HETATM    2  N   UNL     1      40.198 -14.291   4.434  1.00  0.00    -0.214 N 
HETATM    3  C   UNL     1      40.610 -14.516   3.168  1.00  0.00     0.736 A 
HETATM    4  N   UNL     1      41.683 -15.322   2.895  1.00  0.00    -0.074 N 
HETATM    5  N   UNL     1      41.997 -15.283   1.588  1.00  0.00     0.037 NA
HETATM    6  C   UNL     1      41.008 -14.528   1.117  1.00  0.00     0.753 A 
HETATM    7  N   UNL     1      40.157 -14.015   2.049  1.00  0.00     0.131 NA
HETATM    8  C   UNL     1      42.510 -15.947   3.921  1.00  0.00     0.164 C 
HETATM    9  C   UNL     1      41.760 -15.991   5.265  1.00  0.00     0.063 C 
HETATM   10  H   UNL     1      39.571 -13.506   4.582  1.00  0.00     0.178 HD
ENDROOT
BRANCH   1  11
HETATM   11  C   UNL     1      41.990 -13.556   6.005  1.00  0.00    -0.035 A 
HETATM   12  C   UNL     1      43.211 -13.793   6.653  1.00  0.00     0.012 A 
HETATM   13  C   UNL     1      44.040 -12.731   7.029  1.00  0.00     0.037 A 
HETATM   14  C   UNL     1      43.677 -11.411   6.768  1.00  0.00     0.068 A 
HETATM   15  C   UNL     1      42.463 -11.157   6.135  1.00  0.00     0.037 A 
HETATM   16  C   UNL     1      41.631 -12.219   5.757  1.00  0.00     0.012 A 
BRANCH  14  17
HETATM   17  O   UNL     1      44.582 -10.474   7.180  1.00  0.00    -0.356 OA
HETATM   18  C   UNL     1      45.934 -10.897   7.306  1.00  0.00     0.210 C 
ENDBRANCH  14  17
ENDBRANCH   1  11
BRANCH   8  19
HETATM   19  C   UNL     1      42.975 -17.345   3.530  1.00  0.00    -0.031 A 
HETATM   20  C   UNL     1      43.391 -18.245   4.526  1.00  0.00     0.028 A 
HETATM   21  C   UNL     1      43.793 -19.537   4.185  1.00  0.00     0.011 A 
HETATM   22 BR   UNL     1      44.354 -20.732   5.539  1.00  0.00    -0.051 Br
HETATM   23  C   UNL     1      43.783 -19.956   2.856  1.00  0.00     0.019 A 
HETATM   24  C   UNL     1      43.370 -19.075   1.859  1.00  0.00     0.002 A 
HETATM   25  C   UNL     1      42.966 -17.780   2.194  1.00  0.00     0.009 A 
ENDBRANCH   8  19
BRANCH   6  26
HETATM   26  N   UNL     1      40.831 -14.196  -0.159  1.00  0.00    -0.229 N 
HETATM   27  H   UNL     1      39.929 -14.411  -0.562  1.00  0.00     0.174 HD
HETATM   28  H   UNL     1      41.620 -14.330  -0.776  1.00  0.00     0.174 HD
ENDBRANCH   6  26
TORSDOF 4
ENDMDL
MODEL 3
REMARK VINA RESULT:      -8.3      3.149      6.575
REMARK  4 active torsions:
REMARK  status: ('A' for Active; 'I' for Inactive)
REMARK    1  A    between atoms: O_2  and  C_3 
REMARK    2  A    between atoms: C_6  and  C_7 
REMARK    3  A    between atoms: C_12  and  N_13 
REMARK    4  A    between atoms: C_15  and  C_16 
ROOT
HETATM    1  C   UNL     1      40.174 -15.439   3.154  1.00  0.00     0.135 C 
HETATM    2  N   UNL     1      40.140 -14.225   3.961  1.00  0.00    -0.214 N 
HETATM    3  C   UNL     1      40.720 -13.091   3.516  1.00  0.00     0.736 A 
HETATM    4  N   UNL     1      41.117 -12.952   2.213  1.00  0.00    -0.074 N 
HETATM    5  N   UNL     1      41.795 -11.804   2.033  1.00  0.00     0.037 NA
HETATM    6  C   UNL     1      41.670 -11.251   3.237  1.00  0.00     0.753 A 
HETATM    7  N   UNL     1      41.048 -12.013   4.179  1.00  0.00     0.131 NA
HETATM    8  C   UNL     1      41.020 -14.013   1.217  1.00  0.00     0.164 C 
HETATM    9  C   UNL     1      40.007 -15.083   1.666  1.00  0.00     0.063 C 
HETATM   10  H   UNL     1      40.098 -14.358   4.968  1.00  0.00     0.178 HD
ENDROOT
BRANCH   1  11
HETATM   11  C   UNL     1      41.386 -16.320   3.426  1.00  0.00    -0.035 A 
HETATM   12  C   UNL     1      42.014 -16.410   4.676  1.00  0.00     0.012 A 
HETATM   13  C   UNL     1      43.122 -17.244   4.862  1.00  0.00     0.037 A 
HETATM   14  C   UNL     1      43.629 -18.008   3.812  1.00  0.00     0.068 A 
HETATM   15  C   UNL     1      43.023 -17.923   2.562  1.00  0.00     0.037 A 
HETATM   16  C   UNL     1      41.914 -17.088   2.373  1.00  0.00     0.012 A 
BRANCH  14  17
HETATM   17  O   UNL     1      44.706 -18.784   4.135  1.00  0.00    -0.356 OA
HETATM   18  C   UNL     1      44.442 -19.993   4.835  1.00  0.00     0.210 C 
ENDBRANCH  14  17
ENDBRANCH   1  11
BRANCH   8  19
HETATM   19  C   UNL     1      40.656 -13.490  -0.167  1.00  0.00    -0.031 A 
HETATM   20  C   UNL     1      39.798 -14.237  -0.991  1.00  0.00     0.028 A 
HETATM   21  C   UNL     1      39.435 -13.756  -2.250  1.00  0.00     0.011 A 
HETATM   22 BR   UNL     1      38.281 -14.779  -3.346  1.00  0.00    -0.051 Br
HETATM   23  C   UNL     1      39.913 -12.530  -2.706  1.00  0.00     0.019 A 
HETATM   24  C   UNL     1      40.762 -11.778  -1.898  1.00  0.00     0.002 A 
HETATM   25  C   UNL     1      41.130 -12.253  -0.638  1.00  0.00     0.009 A 
ENDBRANCH   8  19
BRANCH   6  26
HETATM   26  N   UNL     1      42.151 -10.063   3.594  1.00  0.00    -0.229 N 
HETATM   27  H   UNL     1      41.499  -9.290   3.591  1.00  0.00     0.174 HD
HETATM   28  H   UNL     1      43.084  -9.838   3.279  1.00  0.00     0.174 HD
ENDBRANCH   6  26
TORSDOF 4
ENDMDL
MODEL 4
REMARK VINA RESULT:      -8.3      3.423      6.773
REMARK  4 active torsions:
REMARK  status: ('A' for Active; 'I' for Inactive)
REMARK    1  A    between atoms: O_2  and  C_3 
REMARK    2  A    between atoms: C_6  and  C_7 
REMARK    3  A    between atoms: C_12  and  N_13 
REMARK    4  A    between atoms: C_15  and  C_16 
ROOT
HETATM    1  C   UNL     1      40.085 -15.559   3.137  1.00  0.00     0.135 C 
HETATM    2  N   UNL     1      40.112 -14.258   3.794  1.00  0.00    -0.214 N 
HETATM    3  C   UNL     1      40.640 -13.186   3.166  1.00  0.00     0.736 A 
HETATM    4  N   UNL     1      40.920 -13.204   1.826  1.00  0.00    -0.074 N 
HETATM    5  N   UNL     1      41.568 -12.087   1.451  1.00  0.00     0.037 NA
HETATM    6  C   UNL     1      41.546 -11.394   2.586  1.00  0.00     0.753 A 
HETATM    7  N   UNL     1      41.016 -12.037   3.665  1.00  0.00     0.131 NA
HETATM    8  C   UNL     1      40.744 -14.377   0.976  1.00  0.00     0.164 C 
HETATM    9  C   UNL     1      39.784 -15.383   1.637  1.00  0.00     0.063 C 
HETATM   10  H   UNL     1      40.160 -14.269   4.808  1.00  0.00     0.178 HD
ENDROOT
BRANCH   1  11
HETATM   11  C   UNL     1      41.324 -16.403   3.403  1.00  0.00    -0.035 A 
HETATM   12  C   UNL     1      41.969 -17.167   2.421  1.00  0.00     0.012 A 
HETATM   13  C   UNL     1      43.109 -17.916   2.730  1.00  0.00     0.037 A 
HETATM   14  C   UNL     1      43.635 -17.923   4.021  1.00  0.00     0.068 A 
HETATM   15  C   UNL     1      43.001 -17.177   5.011  1.00  0.00     0.037 A 
HETATM   16  C   UNL     1      41.860 -16.426   4.704  1.00  0.00     0.012 A 
BRANCH  14  17
HETATM   17  O   UNL     1      44.754 -18.690   4.181  1.00  0.00    -0.356 OA
HETATM   18  C   UNL     1      44.570 -19.991   4.723  1.00  0.00     0.210 C 
ENDBRANCH  14  17
ENDBRANCH   1  11
BRANCH   8  19
HETATM   19  C   UNL     1      40.255 -14.022  -0.423  1.00  0.00    -0.031 A 
HETATM   20  C   UNL     1      40.648 -12.809  -1.012  1.00  0.00     0.028 A 
HETATM   21  C   UNL     1      40.229 -12.484  -2.303  1.00  0.00     0.011 A 
HETATM   22 BR   UNL     1      40.766 -10.844  -3.077  1.00  0.00    -0.051 Br
HETATM   23  C   UNL     1      39.421 -13.357  -3.028  1.00  0.00     0.019 A 
HETATM   24  C   UNL     1      39.026 -14.565  -2.456  1.00  0.00     0.002 A 
HETATM   25  C   UNL     1      39.441 -14.896  -1.165  1.00  0.00     0.009 A 
ENDBRANCH   8  19
BRANCH   6  26
HETATM   26  N   UNL     1      42.045 -10.173   2.755  1.00  0.00    -0.229 N 
HETATM   27  H   UNL     1      42.398  -9.709   1.929  1.00  0.00     0.174 HD
HETATM   28  H   UNL     1      42.580 -10.014   3.598  1.00  0.00     0.174 HD
ENDBRANCH   6  26
TORSDOF 4
ENDMDL
MODEL 5
REMARK VINA RESULT:      -8.2      4.196      6.965
REMARK  4 active torsions:
REMARK  status: ('A' for Active; 'I' for Inactive)
REMARK    1  A    between atoms: O_2  and  C_3 
REMARK    2  A    between atoms: C_6  and  C_7 
REMARK    3  A    between atoms: C_12  and  N_13 
REMARK    4  A    between atoms: C_15  and  C_16 
ROOT
HETATM    1  C   UNL     1      42.042 -14.456   6.041  1.00  0.00     0.135 C 
HETATM    2  N   UNL     1      42.953 -13.832   6.993  1.00  0.00    -0.214 N 
HETATM    3  C   UNL     1      43.754 -12.816   6.608  1.00  0.00     0.736 A 
HETATM    4  N   UNL     1      43.564 -12.163   5.420  1.00  0.00    -0.074 N 
HETATM    5  N   UNL     1      44.560 -11.291   5.182  1.00  0.00     0.037 NA
HETATM    6  C   UNL     1      45.252 -11.388   6.314  1.00  0.00     0.753 A 
HETATM    7  N   UNL     1      44.813 -12.327   7.199  1.00  0.00     0.131 NA
HETATM    8  C   UNL     1      42.546 -12.534   4.443  1.00  0.00     0.164 C 
HETATM    9  C   UNL     1      41.448 -13.387   5.107  1.00  0.00     0.063 C 
HETATM   10  H   UNL     1      43.290 -14.425   7.746  1.00  0.00     0.178 HD
ENDROOT
BRANCH   1  11
HETATM   11  C   UNL     1      42.654 -15.633   5.293  1.00  0.00    -0.035 A 
HETATM   12  C   UNL     1      43.768 -16.350   5.751  1.00  0.00     0.012 A 
HETATM   13  C   UNL     1      44.277 -17.426   5.018  1.00  0.00     0.037 A 
HETATM   14  C   UNL     1      43.691 -17.817   3.815  1.00  0.00     0.068 A 
HETATM   15  C   UNL     1      42.590 -17.109   3.340  1.00  0.00     0.037 A 
HETATM   16  C   UNL     1      42.077 -16.031   4.073  1.00  0.00     0.012 A 
BRANCH  14  17
HETATM   17  O   UNL     1      44.284 -18.888   3.208  1.00  0.00    -0.356 OA
HETATM   18  C   UNL     1      43.465 -19.678   2.355  1.00  0.00     0.210 C 
ENDBRANCH  14  17
ENDBRANCH   1  11
BRANCH   8  19
HETATM   19  C   UNL     1      41.928 -11.327   3.749  1.00  0.00    -0.031 A 
HETATM   20  C   UNL     1      41.993 -11.219   2.350  1.00  0.00     0.028 A 
HETATM   21  C   UNL     1      41.407 -10.131   1.699  1.00  0.00     0.011 A 
HETATM   22 BR   UNL     1      41.509 -10.002  -0.185  1.00  0.00    -0.051 Br
HETATM   23  C   UNL     1      40.747  -9.142   2.424  1.00  0.00     0.019 A 
HETATM   24  C   UNL     1      40.673  -9.239   3.812  1.00  0.00     0.002 A 
HETATM   25  C   UNL     1      41.256 -10.324   4.469  1.00  0.00     0.009 A 
ENDBRANCH   8  19
BRANCH   6  26
HETATM   26  N   UNL     1      46.348 -10.696   6.610  1.00  0.00    -0.229 N 
HETATM   27  H   UNL     1      46.524 -10.524   7.591  1.00  0.00     0.174 HD
HETATM   28  H   UNL     1      46.584  -9.933   5.991  1.00  0.00     0.174 HD
ENDBRANCH   6  26
TORSDOF 4
ENDMDL
MODEL 6
REMARK VINA RESULT:      -8.0      4.080      5.474
REMARK  4 active torsions:
REMARK  status: ('A' for Active; 'I' for Inactive)
REMARK    1  A    between atoms: O_2  and  C_3 
REMARK    2  A    between atoms: C_6  and  C_7 
REMARK    3  A    between atoms: C_12  and  N_13 
REMARK    4  A    between atoms: C_15  and  C_16 
ROOT
HETATM    1  C   UNL     1      40.262 -13.256   5.281  1.00  0.00     0.135 C 
HETATM    2  N   UNL     1      40.228 -14.418   6.160  1.00  0.00    -0.214 N 
HETATM    3  C   UNL     1      41.375 -14.976   6.601  1.00  0.00     0.736 A 
HETATM    4  N   UNL     1      42.580 -14.338   6.471  1.00  0.00    -0.074 N 
HETATM    5  N   UNL     1      43.594 -15.138   6.846  1.00  0.00     0.037 NA
HETATM    6  C   UNL     1      42.924 -16.195   7.295  1.00  0.00     0.753 A 
HETATM    7  N   UNL     1      41.571 -16.152   7.138  1.00  0.00     0.131 NA
HETATM    8  C   UNL     1      42.750 -13.055   5.797  1.00  0.00     0.164 C 
HETATM    9  C   UNL     1      41.404 -12.313   5.701  1.00  0.00     0.063 C 
HETATM   10  H   UNL     1      39.425 -15.032   6.060  1.00  0.00     0.178 HD
ENDROOT
BRANCH   1  11
HETATM   11  C   UNL     1      40.294 -13.611   3.800  1.00  0.00    -0.035 A 
HETATM   12  C   UNL     1      40.262 -14.927   3.317  1.00  0.00     0.012 A 
HETATM   13  C   UNL     1      40.289 -15.185   1.943  1.00  0.00     0.037 A 
HETATM   14  C   UNL     1      40.343 -14.144   1.017  1.00  0.00     0.068 A 
HETATM   15  C   UNL     1      40.385 -12.832   1.480  1.00  0.00     0.037 A 
HETATM   16  C   UNL     1      40.359 -12.570   2.856  1.00  0.00     0.012 A 
BRANCH  14  17
HETATM   17  O   UNL     1      40.354 -14.538  -0.291  1.00  0.00    -0.356 OA
HETATM   18  C   UNL     1      39.353 -13.987  -1.137  1.00  0.00     0.210 C 
ENDBRANCH  14  17
ENDBRANCH   1  11
BRANCH   8  19
HETATM   19  C   UNL     1      43.792 -12.171   6.472  1.00  0.00    -0.031 A 
HETATM   20  C   UNL     1      43.537 -11.643   7.749  1.00  0.00     0.028 A 
HETATM   21  C   UNL     1      44.495 -10.854   8.389  1.00  0.00     0.011 A 
HETATM   22 BR   UNL     1      44.131 -10.151  10.106  1.00  0.00    -0.051 Br
HETATM   23  C   UNL     1      45.715 -10.582   7.776  1.00  0.00     0.019 A 
HETATM   24  C   UNL     1      45.982 -11.101   6.511  1.00  0.00     0.002 A 
HETATM   25  C   UNL     1      45.029 -11.891   5.864  1.00  0.00     0.009 A 
ENDBRANCH   8  19
BRANCH   6  26
HETATM   26  N   UNL     1      43.470 -17.290   7.817  1.00  0.00    -0.229 N 
HETATM   27  H   UNL     1      43.992 -17.172   8.675  1.00  0.00     0.174 HD
HETATM   28  H   UNL     1      43.860 -17.957   7.166  1.00  0.00     0.174 HD
ENDBRANCH   6  26
TORSDOF 4
ENDMDL
MODEL 7
REMARK VINA RESULT:      -8.0      4.505      7.227
REMARK  4 active torsions:
REMARK  status: ('A' for Active; 'I' for Inactive)
REMARK    1  A    between atoms: O_2  and  C_3 
REMARK    2  A    between atoms: C_6  and  C_7 
REMARK    3  A    between atoms: C_12  and  N_13 
REMARK    4  A    between atoms: C_15  and  C_16 
ROOT
HETATM    1  C   UNL     1      42.025 -14.502   6.095  1.00  0.00     0.135 C 
HETATM    2  N   UNL     1      42.938 -13.843   7.022  1.00  0.00    -0.214 N 
HETATM    3  C   UNL     1      43.725 -12.831   6.602  1.00  0.00     0.736 A 
HETATM    4  N   UNL     1      43.519 -12.213   5.397  1.00  0.00    -0.074 N 
HETATM    5  N   UNL     1      44.505 -11.339   5.127  1.00  0.00     0.037 NA
HETATM    6  C   UNL     1      45.206 -11.398   6.255  1.00  0.00     0.753 A 
HETATM    7  N   UNL     1      44.784 -12.315   7.170  1.00  0.00     0.131 NA
HETATM    8  C   UNL     1      42.497 -12.622   4.440  1.00  0.00     0.164 C 
HETATM    9  C   UNL     1      41.413 -13.466   5.136  1.00  0.00     0.063 C 
HETATM   10  H   UNL     1      43.286 -14.412   7.788  1.00  0.00     0.178 HD
ENDROOT
BRANCH   1  11
HETATM   11  C   UNL     1      42.642 -15.694   5.374  1.00  0.00    -0.035 A 
HETATM   12  C   UNL     1      42.183 -16.178   4.142  1.00  0.00     0.012 A 
HETATM   13  C   UNL     1      42.798 -17.275   3.529  1.00  0.00     0.037 A 
HETATM   14  C   UNL     1      43.885 -17.913   4.125  1.00  0.00     0.068 A 
HETATM   15  C   UNL     1      44.348 -17.451   5.354  1.00  0.00     0.037 A 
HETATM   16  C   UNL     1      43.733 -16.353   5.970  1.00  0.00     0.012 A 
BRANCH  14  17
HETATM   17  O   UNL     1      44.395 -18.963   3.414  1.00  0.00    -0.356 OA
HETATM   18  C   UNL     1      43.539 -19.564   2.451  1.00  0.00     0.210 C 
ENDBRANCH  14  17
ENDBRANCH   1  11
BRANCH   8  19
HETATM   19  C   UNL     1      41.862 -11.440   3.717  1.00  0.00    -0.031 A 
HETATM   20  C   UNL     1      41.022 -10.561   4.422  1.00  0.00     0.028 A 
HETATM   21  C   UNL     1      40.456  -9.459   3.779  1.00  0.00     0.011 A 
HETATM   22 BR   UNL     1      39.326  -8.291   4.745  1.00  0.00    -0.051 Br
HETATM   23  C   UNL     1      40.717  -9.212   2.434  1.00  0.00     0.019 A 
HETATM   24  C   UNL     1      41.550 -10.074   1.723  1.00  0.00     0.002 A 
HETATM   25  C   UNL     1      42.120 -11.178   2.360  1.00  0.00     0.009 A 
ENDBRANCH   8  19
BRANCH   6  26
HETATM   26  N   UNL     1      46.298 -10.687   6.524  1.00  0.00    -0.229 N 
HETATM   27  H   UNL     1      46.814 -10.332   5.730  1.00  0.00     0.174 HD
HETATM   28  H   UNL     1      46.866 -11.002   7.298  1.00  0.00     0.174 HD
ENDBRANCH   6  26
TORSDOF 4
ENDMDL
MODEL 8
REMARK VINA RESULT:      -7.9      9.240     12.400
REMARK  4 active torsions:
REMARK  status: ('A' for Active; 'I' for Inactive)
REMARK    1  A    between atoms: O_2  and  C_3 
REMARK    2  A    between atoms: C_6  and  C_7 
REMARK    3  A    between atoms: C_12  and  N_13 
REMARK    4  A    between atoms: C_15  and  C_16 
ROOT
HETATM    1  C   UNL     1      41.866 -10.198  12.686  1.00  0.00     0.135 C 
HETATM    2  N   UNL     1      40.625 -10.237  11.922  1.00  0.00    -0.214 N 
HETATM    3  C   UNL     1      40.544  -9.635  10.717  1.00  0.00     0.736 A 
HETATM    4  N   UNL     1      41.663  -9.207  10.053  1.00  0.00    -0.074 N 
HETATM    5  N   UNL     1      41.333  -8.513   8.948  1.00  0.00     0.037 NA
HETATM    6  C   UNL     1      40.011  -8.659   8.948  1.00  0.00     0.753 A 
HETATM    7  N   UNL     1      39.485  -9.311  10.023  1.00  0.00     0.131 NA
HETATM    8  C   UNL     1      43.013  -9.293  10.597  1.00  0.00     0.164 C 
HETATM    9  C   UNL     1      43.070 -10.327  11.736  1.00  0.00     0.063 C 
HETATM   10  H   UNL     1      39.768 -10.303  12.464  1.00  0.00     0.178 HD
ENDROOT
BRANCH   1  11
HETATM   11  C   UNL     1      41.969  -9.001  13.623  1.00  0.00    -0.035 A 
HETATM   12  C   UNL     1      42.982  -8.036  13.541  1.00  0.00     0.012 A 
HETATM   13  C   UNL     1      43.016  -6.957  14.430  1.00  0.00     0.037 A 
HETATM   14  C   UNL     1      42.044  -6.810  15.418  1.00  0.00     0.068 A 
HETATM   15  C   UNL     1      41.036  -7.765  15.520  1.00  0.00     0.037 A 
HETATM   16  C   UNL     1      41.000  -8.847  14.631  1.00  0.00     0.012 A 
BRANCH  14  17
HETATM   17  O   UNL     1      42.192  -5.707  16.210  1.00  0.00    -0.356 OA
HETATM   18  C   UNL     1      41.700  -5.800  17.541  1.00  0.00     0.210 C 
ENDBRANCH  14  17
ENDBRANCH   1  11
BRANCH   8  19
HETATM   19  C   UNL     1      44.056  -9.620   9.535  1.00  0.00    -0.031 A 
HETATM   20  C   UNL     1      43.876 -10.736   8.702  1.00  0.00     0.028 A 
HETATM   21  C   UNL     1      44.809 -11.031   7.707  1.00  0.00     0.011 A 
HETATM   22 BR   UNL     1      44.550 -12.541   6.598  1.00  0.00    -0.051 Br
HETATM   23  C   UNL     1      45.929 -10.224   7.522  1.00  0.00     0.019 A 
HETATM   24  C   UNL     1      46.119  -9.112   8.340  1.00  0.00     0.002 A 
HETATM   25  C   UNL     1      45.189  -8.810   9.337  1.00  0.00     0.009 A 
ENDBRANCH   8  19
BRANCH   6  26
HETATM   26  N   UNL     1      39.181  -8.174   8.029  1.00  0.00    -0.229 N 
HETATM   27  H   UNL     1      38.972  -7.186   8.083  1.00  0.00     0.174 HD
HETATM   28  H   UNL     1      38.405  -8.763   7.762  1.00  0.00     0.174 HD
ENDBRANCH   6  26
TORSDOF 4
ENDMDL
MODEL 9
REMARK VINA RESULT:      -7.6      3.239      6.508
REMARK  4 active torsions:
REMARK  status: ('A' for Active; 'I' for Inactive)
REMARK    1  A    between atoms: O_2  and  C_3 
REMARK    2  A    between atoms: C_6  and  C_7 
REMARK    3  A    between atoms: C_12  and  N_13 
REMARK    4  A    between atoms: C_15  and  C_16 
ROOT
HETATM    1  C   UNL     1      40.192 -15.349   3.780  1.00  0.00     0.135 C 
HETATM    2  N   UNL     1      40.458 -14.348   4.806  1.00  0.00    -0.214 N 
HETATM    3  C   UNL     1      41.035 -13.172   4.482  1.00  0.00     0.736 A 
HETATM    4  N   UNL     1      41.147 -12.762   3.180  1.00  0.00    -0.074 N 
HETATM    5  N   UNL     1      41.878 -11.637   3.088  1.00  0.00     0.037 NA
HETATM    6  C   UNL     1      42.078 -11.364   4.374  1.00  0.00     0.753 A 
HETATM    7  N   UNL     1      41.607 -12.289   5.258  1.00  0.00     0.131 NA
HETATM    8  C   UNL     1      40.727 -13.566   2.037  1.00  0.00     0.164 C 
HETATM    9  C   UNL     1      39.737 -14.659   2.481  1.00  0.00     0.063 C 
HETATM   10  H   UNL     1      40.627 -14.702   5.744  1.00  0.00     0.178 HD
ENDROOT
BRANCH   1  11
HETATM   11  C   UNL     1      41.341 -16.326   3.567  1.00  0.00    -0.035 A 
HETATM   12  C   UNL     1      41.607 -16.957   2.344  1.00  0.00     0.012 A 
HETATM   13  C   UNL     1      42.683 -17.840   2.213  1.00  0.00     0.037 A 
HETATM   14  C   UNL     1      43.521 -18.115   3.292  1.00  0.00     0.068 A 
HETATM   15  C   UNL     1      43.266 -17.504   4.517  1.00  0.00     0.037 A 
HETATM   16  C   UNL     1      42.189 -16.619   4.651  1.00  0.00     0.012 A 
BRANCH  14  17
HETATM   17  O   UNL     1      44.537 -18.988   3.023  1.00  0.00    -0.356 OA
HETATM   18  C   UNL     1      44.173 -20.254   2.489  1.00  0.00     0.210 C 
ENDBRANCH  14  17
ENDBRANCH   1  11
BRANCH   8  19
HETATM   19  C   UNL     1      40.120 -12.727   0.919  1.00  0.00    -0.031 A 
HETATM   20  C   UNL     1      40.727 -12.710  -0.348  1.00  0.00     0.028 A 
HETATM   21  C   UNL     1      40.166 -11.968  -1.388  1.00  0.00     0.011 A 
HETATM   22 BR   UNL     1      41.000 -11.956  -3.085  1.00  0.00    -0.051 Br
HETATM   23  C   UNL     1      38.996 -11.238  -1.189  1.00  0.00     0.019 A 
HETATM   24  C   UNL     1      38.383 -11.248   0.062  1.00  0.00     0.002 A 
HETATM   25  C   UNL     1      38.938 -11.988   1.108  1.00  0.00     0.009 A 
ENDBRANCH   8  19
BRANCH   6  26
HETATM   26  N   UNL     1      42.741 -10.313   4.846  1.00  0.00    -0.229 N 
HETATM   27  H   UNL     1      42.311  -9.407   4.712  1.00  0.00     0.174 HD
HETATM   28  H   UNL     1      43.747 -10.328   4.747  1.00  0.00     0.174 HD
ENDBRANCH   6  26
TORSDOF 4
ENDMDL
MODEL 10
REMARK VINA RESULT:      -7.3      4.893      8.350
REMARK  4 active torsions:
REMARK  status: ('A' for Active; 'I' for Inactive)
REMARK    1  A    between atoms: O_2  and  C_3 
REMARK    2  A    between atoms: C_6  and  C_7 
REMARK    3  A    between atoms: C_12  and  N_13 
REMARK    4  A    between atoms: C_15  and  C_16 
ROOT
HETATM    1  C   UNL     1      40.959 -12.623   0.114  1.00  0.00     0.135 C 
HETATM    2  N   UNL     1      41.057 -13.196  -1.223  1.00  0.00    -0.214 N 
HETATM    3  C   UNL     1      39.942 -13.456  -1.939  1.00  0.00     0.736 A 
HETATM    4  N   UNL     1      38.720 -12.961  -1.569  1.00  0.00    -0.074 N 
HETATM    5  N   UNL     1      37.740 -13.465  -2.340  1.00  0.00     0.037 NA
HETATM    6  C   UNL     1      38.451 -14.163  -3.221  1.00  0.00     0.753 A 
HETATM    7  N   UNL     1      39.794 -14.210  -2.997  1.00  0.00     0.131 NA
HETATM    8  C   UNL     1      38.493 -12.180  -0.357  1.00  0.00     0.164 C 
HETATM    9  C   UNL     1      39.819 -11.591   0.160  1.00  0.00     0.063 C 
HETATM   10  H   UNL     1      41.867 -13.783  -1.402  1.00  0.00     0.178 HD
ENDROOT
BRANCH   1  11
HETATM   11  C   UNL     1      40.868 -13.666   1.220  1.00  0.00    -0.035 A 
HETATM   12  C   UNL     1      41.064 -15.038   1.010  1.00  0.00     0.012 A 
HETATM   13  C   UNL     1      40.972 -15.944   2.072  1.00  0.00     0.037 A 
HETATM   14  C   UNL     1      40.686 -15.509   3.365  1.00  0.00     0.068 A 
HETATM   15  C   UNL     1      40.478 -14.150   3.588  1.00  0.00     0.037 A 
HETATM   16  C   UNL     1      40.570 -13.241   2.527  1.00  0.00     0.012 A 
BRANCH  14  17
HETATM   17  O   UNL     1      40.634 -16.498   4.306  1.00  0.00    -0.356 OA
HETATM   18  C   UNL     1      40.756 -16.099   5.665  1.00  0.00     0.210 C 
ENDBRANCH  14  17
ENDBRANCH   1  11
BRANCH   8  19
HETATM   19  C   UNL     1      37.465 -11.073  -0.555  1.00  0.00    -0.031 A 
HETATM   20  C   UNL     1      37.332 -10.463  -1.813  1.00  0.00     0.028 A 
HETATM   21  C   UNL     1      36.375  -9.466  -2.015  1.00  0.00     0.011 A 
HETATM   22 BR   UNL     1      36.213  -8.654  -3.715  1.00  0.00    -0.051 Br
HETATM   23  C   UNL     1      35.538  -9.066  -0.977  1.00  0.00     0.019 A 
HETATM   24  C   UNL     1      35.658  -9.665   0.275  1.00  0.00     0.002 A 
HETATM   25  C   UNL     1      36.612 -10.662   0.484  1.00  0.00     0.009 A 
ENDBRANCH   8  19
BRANCH   6  26
HETATM   26  N   UNL     1      37.952 -14.852  -4.243  1.00  0.00    -0.229 N 
HETATM   27  H   UNL     1      37.417 -14.330  -4.924  1.00  0.00     0.174 HD
HETATM   28  H   UNL     1      37.599 -15.777  -4.038  1.00  0.00     0.174 HD
ENDBRANCH   6  26
TORSDOF 4
ENDMDL
