MODEL 1
REMARK VINA RESULT:      -8.6      0.000      0.000
REMARK  4 active torsions:
REMARK  status: ('A' for Active; 'I' for Inactive)
REMARK    1  A    between atoms: C_3  and  N_4 
REMARK       I    between atoms: N_4  and  C_5 
REMARK       I    between atoms: C_5  and  N_6 
REMARK    2  A    between atoms: N_6  and  C_7 
REMARK    3  A    between atoms: C_7  and  C_8 
REMARK    4  A    between atoms: C_11  and  C_12 
ROOT
HETATM    1  N   UNL     1      43.546 -11.783   6.603  1.00  0.00    -0.309 N 
HETATM    2  C   UNL     1      43.414 -11.913   5.236  1.00  0.00     0.321 C 
HETATM    3  N   UNL     1      42.666 -13.029   4.928  1.00  0.00    -0.335 N 
HETATM    4  O   UNL     1      43.811 -11.134   4.382  1.00  0.00    -0.247 OA
HETATM    5  H   UNL     1      42.733 -12.128   7.093  1.00  0.00     0.170 HD
HETATM    6  H   UNL     1      42.758 -13.815   5.557  1.00  0.00     0.164 HD
ENDROOT
BRANCH   3   7
HETATM    7  C   UNL     1      42.286 -13.298   3.554  1.00  0.00     0.213 C 
BRANCH   7   8
HETATM    8  C   UNL     1      42.757 -14.617   3.059  1.00  0.00     0.190 A 
HETATM    9  O   UNL     1      43.177 -14.721   1.766  1.00  0.00    -0.194 OA
HETATM   10  N   UNL     1      43.556 -16.049   1.576  1.00  0.00    -0.106 NA
HETATM   11  C   UNL     1      43.307 -16.629   2.762  1.00  0.00     0.189 A 
HETATM   12  N   UNL     1      42.829 -15.754   3.716  1.00  0.00    -0.202 NA
BRANCH  11  13
HETATM   13  C   UNL     1      43.504 -18.047   3.047  1.00  0.00     0.014 A 
HETATM   14  C   UNL     1      43.207 -19.031   2.093  1.00  0.00     0.015 A 
HETATM   15  C   UNL     1      43.390 -20.385   2.386  1.00  0.00     0.001 A 
HETATM   16  C   UNL     1      43.871 -20.772   3.635  1.00  0.00     0.000 A 
HETATM   17  C   UNL     1      44.173 -19.806   4.593  1.00  0.00     0.001 A 
HETATM   18  C   UNL     1      43.991 -18.452   4.300  1.00  0.00     0.015 A 
ENDBRANCH  11  13
ENDBRANCH   7   8
ENDBRANCH   3   7
BRANCH   1  19
HETATM   19  C   UNL     1      44.227 -10.718   7.240  1.00  0.00     0.042 A 
HETATM   20  C   UNL     1      43.597  -9.618   7.849  1.00  0.00    -0.035 A 
HETATM   21  C   UNL     1      42.113  -9.377   7.822  1.00  0.00     0.050 C 
HETATM   22  C   UNL     1      44.394  -8.661   8.507  1.00  0.00     0.009 A 
HETATM   23  C   UNL     1      45.785  -8.759   8.515  1.00  0.00     0.001 A 
HETATM   24  C   UNL     1      46.405  -9.811   7.854  1.00  0.00     0.002 A 
HETATM   25  C   UNL     1      45.630 -10.778   7.212  1.00  0.00     0.030 A 
ENDBRANCH   1  19
TORSDOF 4
ENDMDL
MODEL 2
REMARK VINA RESULT:      -8.4      1.497      1.951
REMARK  4 active torsions:
REMARK  status: ('A' for Active; 'I' for Inactive)
REMARK    1  A    between atoms: C_3  and  N_4 
REMARK       I    between atoms: N_4  and  C_5 
REMARK       I    between atoms: C_5  and  N_6 
REMARK    2  A    between atoms: N_6  and  C_7 
REMARK    3  A    between atoms: C_7  and  C_8 
REMARK    4  A    between atoms: C_11  and  C_12 
ROOT
HETATM    1  N   UNL     1      42.938 -11.626   7.431  1.00  0.00    -0.309 N 
HETATM    2  C   UNL     1      42.325 -11.801   6.208  1.00  0.00     0.321 C 
HETATM    3  N   UNL     1      41.271 -12.682   6.320  1.00  0.00    -0.335 N 
HETATM    4  O   UNL     1      42.587 -11.221   5.165  1.00  0.00    -0.247 OA
HETATM    5  H   UNL     1      42.281 -11.699   8.195  1.00  0.00     0.170 HD
HETATM    6  H   UNL     1      41.376 -13.421   7.002  1.00  0.00     0.164 HD
ENDROOT
BRANCH   3   7
HETATM    7  C   UNL     1      40.396 -12.922   5.188  1.00  0.00     0.213 C 
BRANCH   7   8
HETATM    8  C   UNL     1      40.807 -14.086   4.361  1.00  0.00     0.190 A 
HETATM    9  O   UNL     1      40.169 -14.306   3.175  1.00  0.00    -0.194 OA
HETATM   10  N   UNL     1      40.748 -15.447   2.619  1.00  0.00    -0.106 NA
HETATM   11  C   UNL     1      41.661 -15.823   3.529  1.00  0.00     0.189 A 
HETATM   12  N   UNL     1      41.738 -14.979   4.618  1.00  0.00    -0.202 NA
BRANCH  11  13
HETATM   13  C   UNL     1      42.504 -17.010   3.414  1.00  0.00     0.014 A 
HETATM   14  C   UNL     1      43.472 -17.313   4.382  1.00  0.00     0.015 A 
HETATM   15  C   UNL     1      44.280 -18.446   4.250  1.00  0.00     0.001 A 
HETATM   16  C   UNL     1      44.130 -19.289   3.150  1.00  0.00     0.000 A 
HETATM   17  C   UNL     1      43.171 -19.001   2.180  1.00  0.00     0.001 A 
HETATM   18  C   UNL     1      42.364 -17.869   2.313  1.00  0.00     0.015 A 
ENDBRANCH  11  13
ENDBRANCH   7   8
ENDBRANCH   3   7
BRANCH   1  19
HETATM   19  C   UNL     1      44.031 -10.755   7.658  1.00  0.00     0.042 A 
HETATM   20  C   UNL     1      43.915  -9.437   8.134  1.00  0.00    -0.035 A 
HETATM   21  C   UNL     1      42.604  -8.741   8.378  1.00  0.00     0.050 C 
HETATM   22  C   UNL     1      45.092  -8.701   8.378  1.00  0.00     0.009 A 
HETATM   23  C   UNL     1      46.350  -9.235   8.105  1.00  0.00     0.001 A 
HETATM   24  C   UNL     1      46.455 -10.512   7.571  1.00  0.00     0.002 A 
HETATM   25  C   UNL     1      45.301 -11.262   7.339  1.00  0.00     0.030 A 
ENDBRANCH   1  19
TORSDOF 4
ENDMDL
MODEL 3
REMARK VINA RESULT:      -8.4      4.011      7.142
REMARK  4 active torsions:
REMARK  status: ('A' for Active; 'I' for Inactive)
REMARK    1  A    between atoms: C_3  and  N_4 
REMARK       I    between atoms: N_4  and  C_5 
REMARK       I    between atoms: C_5  and  N_6 
REMARK    2  A    between atoms: N_6  and  C_7 
REMARK    3  A    between atoms: C_7  and  C_8 
REMARK    4  A    between atoms: C_11  and  C_12 
ROOT
HETATM    1  N   UNL     1      40.965 -13.254  -0.143  1.00  0.00    -0.309 N 
HETATM    2  C   UNL     1      40.891 -13.516   1.210  1.00  0.00     0.321 C 
HETATM    3  N   UNL     1      42.104 -13.264   1.816  1.00  0.00    -0.335 N 
HETATM    4  O   UNL     1      39.898 -13.846   1.841  1.00  0.00    -0.247 OA
HETATM    5  H   UNL     1      41.604 -12.498  -0.345  1.00  0.00     0.170 HD
HETATM    6  H   UNL     1      42.927 -13.441   1.258  1.00  0.00     0.164 HD
ENDROOT
BRANCH   3   7
HETATM    7  C   UNL     1      42.229 -13.346   3.259  1.00  0.00     0.213 C 
BRANCH   7   8
HETATM    8  C   UNL     1      42.720 -14.665   3.735  1.00  0.00     0.190 A 
HETATM    9  O   UNL     1      43.331 -14.737   4.952  1.00  0.00    -0.194 OA
HETATM   10  N   UNL     1      43.685 -16.073   5.141  1.00  0.00    -0.106 NA
HETATM   11  C   UNL     1      43.277 -16.677   4.013  1.00  0.00     0.189 A 
HETATM   12  N   UNL     1      42.649 -15.827   3.125  1.00  0.00    -0.202 NA
BRANCH  11  13
HETATM   13  C   UNL     1      43.470 -18.094   3.717  1.00  0.00     0.014 A 
HETATM   14  C   UNL     1      43.950 -18.983   4.690  1.00  0.00     0.015 A 
HETATM   15  C   UNL     1      44.141 -20.334   4.387  1.00  0.00     0.001 A 
HETATM   16  C   UNL     1      43.855 -20.813   3.110  1.00  0.00     0.000 A 
HETATM   17  C   UNL     1      43.376 -19.942   2.133  1.00  0.00     0.001 A 
HETATM   18  C   UNL     1      43.184 -18.591   2.436  1.00  0.00     0.015 A 
ENDBRANCH  11  13
ENDBRANCH   7   8
ENDBRANCH   3   7
BRANCH   1  19
HETATM   19  C   UNL     1      39.877 -13.379  -1.040  1.00  0.00     0.042 A 
HETATM   20  C   UNL     1      38.914 -12.380  -1.270  1.00  0.00    -0.035 A 
HETATM   21  C   UNL     1      38.857 -11.077  -0.522  1.00  0.00     0.050 C 
HETATM   22  C   UNL     1      37.920 -12.612  -2.242  1.00  0.00     0.009 A 
HETATM   23  C   UNL     1      37.846 -13.823  -2.928  1.00  0.00     0.001 A 
HETATM   24  C   UNL     1      38.758 -14.831  -2.647  1.00  0.00     0.002 A 
HETATM   25  C   UNL     1      39.760 -14.613  -1.701  1.00  0.00     0.030 A 
ENDBRANCH   1  19
TORSDOF 4
ENDMDL
MODEL 4
REMARK VINA RESULT:      -8.4      3.896      9.997
REMARK  4 active torsions:
REMARK  status: ('A' for Active; 'I' for Inactive)
REMARK    1  A    between atoms: C_3  and  N_4 
REMARK       I    between atoms: N_4  and  C_5 
REMARK       I    between atoms: C_5  and  N_6 
REMARK    2  A    between atoms: N_6  and  C_7 
REMARK    3  A    between atoms: C_7  and  C_8 
REMARK    4  A    between atoms: C_11  and  C_12 
ROOT
HETATM    1  N   UNL     1      42.458 -13.268   6.316  1.00  0.00    -0.309 N 
HETATM    2  C   UNL     1      43.423 -12.350   6.676  1.00  0.00     0.321 C 
HETATM    3  N   UNL     1      42.840 -11.236   7.242  1.00  0.00    -0.335 N 
HETATM    4  O   UNL     1      44.635 -12.490   6.601  1.00  0.00    -0.247 OA
HETATM    5  H   UNL     1      41.665 -13.244   6.941  1.00  0.00     0.170 HD
HETATM    6  H   UNL     1      41.930 -10.978   6.886  1.00  0.00     0.164 HD
ENDROOT
BRANCH   3   7
HETATM    7  C   UNL     1      43.668 -10.191   7.815  1.00  0.00     0.213 C 
BRANCH   7   8
HETATM    8  C   UNL     1      43.634 -10.159   9.301  1.00  0.00     0.190 A 
HETATM    9  O   UNL     1      44.170 -11.205   9.992  1.00  0.00    -0.194 OA
HETATM   10  N   UNL     1      44.003 -10.913  11.346  1.00  0.00    -0.106 NA
HETATM   11  C   UNL     1      43.361  -9.733  11.345  1.00  0.00     0.189 A 
HETATM   12  N   UNL     1      43.138  -9.225  10.082  1.00  0.00    -0.202 NA
BRANCH  11  13
HETATM   13  C   UNL     1      42.921  -9.030  12.548  1.00  0.00     0.014 A 
HETATM   14  C   UNL     1      43.535  -7.839  12.961  1.00  0.00     0.015 A 
HETATM   15  C   UNL     1      43.110  -7.185  14.121  1.00  0.00     0.001 A 
HETATM   16  C   UNL     1      42.068  -7.714  14.881  1.00  0.00     0.000 A 
HETATM   17  C   UNL     1      41.448  -8.897  14.482  1.00  0.00     0.001 A 
HETATM   18  C   UNL     1      41.872  -9.549  13.322  1.00  0.00     0.015 A 
ENDBRANCH  11  13
ENDBRANCH   7   8
ENDBRANCH   3   7
BRANCH   1  19
HETATM   19  C   UNL     1      42.735 -14.532   5.743  1.00  0.00     0.042 A 
HETATM   20  C   UNL     1      42.944 -15.714   6.476  1.00  0.00    -0.035 A 
HETATM   21  C   UNL     1      42.994 -15.774   7.978  1.00  0.00     0.050 C 
HETATM   22  C   UNL     1      43.144 -16.919   5.774  1.00  0.00     0.009 A 
HETATM   23  C   UNL     1      43.195 -16.946   4.382  1.00  0.00     0.001 A 
HETATM   24  C   UNL     1      43.056 -15.765   3.664  1.00  0.00     0.002 A 
HETATM   25  C   UNL     1      42.839 -14.565   4.342  1.00  0.00     0.030 A 
ENDBRANCH   1  19
TORSDOF 4
ENDMDL
MODEL 5
REMARK VINA RESULT:      -8.4      3.798      9.955
REMARK  4 active torsions:
REMARK  status: ('A' for Active; 'I' for Inactive)
REMARK    1  A    between atoms: C_3  and  N_4 
REMARK       I    between atoms: N_4  and  C_5 
REMARK       I    between atoms: C_5  and  N_6 
REMARK    2  A    between atoms: N_6  and  C_7 
REMARK    3  A    between atoms: C_7  and  C_8 
REMARK    4  A    between atoms: C_11  and  C_12 
ROOT
HETATM    1  N   UNL     1      42.520 -13.521   6.462  1.00  0.00    -0.309 N 
HETATM    2  C   UNL     1      43.461 -12.570   6.799  1.00  0.00     0.321 C 
HETATM    3  N   UNL     1      42.844 -11.403   7.198  1.00  0.00    -0.335 N 
HETATM    4  O   UNL     1      44.673 -12.716   6.836  1.00  0.00    -0.247 OA
HETATM    5  H   UNL     1      41.681 -13.432   7.016  1.00  0.00     0.170 HD
HETATM    6  H   UNL     1      41.967 -11.184   6.745  1.00  0.00     0.164 HD
ENDROOT
BRANCH   3   7
HETATM    7  C   UNL     1      43.631 -10.303   7.722  1.00  0.00     0.213 C 
BRANCH   7   8
HETATM    8  C   UNL     1      43.638 -10.236   9.207  1.00  0.00     0.190 A 
HETATM    9  O   UNL     1      44.276 -11.218   9.905  1.00  0.00    -0.194 OA
HETATM   10  N   UNL     1      44.124 -10.907  11.256  1.00  0.00    -0.106 NA
HETATM   11  C   UNL     1      43.390  -9.782  11.249  1.00  0.00     0.189 A 
HETATM   12  N   UNL     1      43.091  -9.325   9.981  1.00  0.00    -0.202 NA
BRANCH  11  13
HETATM   13  C   UNL     1      42.930  -9.086  12.447  1.00  0.00     0.014 A 
HETATM   14  C   UNL     1      43.548  -7.908  12.889  1.00  0.00     0.015 A 
HETATM   15  C   UNL     1      43.103  -7.261  14.046  1.00  0.00     0.001 A 
HETATM   16  C   UNL     1      42.035  -7.785  14.774  1.00  0.00     0.000 A 
HETATM   17  C   UNL     1      41.410  -8.954  14.346  1.00  0.00     0.001 A 
HETATM   18  C   UNL     1      41.854  -9.600  13.189  1.00  0.00     0.015 A 
ENDBRANCH  11  13
ENDBRANCH   7   8
ENDBRANCH   3   7
BRANCH   1  19
HETATM   19  C   UNL     1      42.832 -14.838   6.048  1.00  0.00     0.042 A 
HETATM   20  C   UNL     1      43.044 -15.226   4.713  1.00  0.00    -0.035 A 
HETATM   21  C   UNL     1      42.876 -14.310   3.533  1.00  0.00     0.050 C 
HETATM   22  C   UNL     1      43.413 -16.560   4.448  1.00  0.00     0.009 A 
HETATM   23  C   UNL     1      43.515 -17.501   5.471  1.00  0.00     0.001 A 
HETATM   24  C   UNL     1      43.238 -17.128   6.779  1.00  0.00     0.002 A 
HETATM   25  C   UNL     1      42.887 -15.807   7.063  1.00  0.00     0.030 A 
ENDBRANCH   1  19
TORSDOF 4
ENDMDL
MODEL 6
REMARK VINA RESULT:      -8.2      4.243      7.971
REMARK  4 active torsions:
REMARK  status: ('A' for Active; 'I' for Inactive)
REMARK    1  A    between atoms: C_3  and  N_4 
REMARK       I    between atoms: N_4  and  C_5 
REMARK       I    between atoms: C_5  and  N_6 
REMARK    2  A    between atoms: N_6  and  C_7 
REMARK    3  A    between atoms: C_7  and  C_8 
REMARK    4  A    between atoms: C_11  and  C_12 
ROOT
HETATM    1  N   UNL     1      43.437 -16.563   4.013  1.00  0.00    -0.309 N 
HETATM    2  C   UNL     1      42.212 -15.929   4.046  1.00  0.00     0.321 C 
HETATM    3  N   UNL     1      42.359 -14.583   3.785  1.00  0.00    -0.335 N 
HETATM    4  O   UNL     1      41.118 -16.452   4.197  1.00  0.00    -0.247 OA
HETATM    5  H   UNL     1      44.064 -16.134   3.347  1.00  0.00     0.170 HD
HETATM    6  H   UNL     1      43.217 -14.157   4.109  1.00  0.00     0.164 HD
ENDROOT
BRANCH   3   7
HETATM    7  C   UNL     1      41.191 -13.735   3.641  1.00  0.00     0.213 C 
BRANCH   7   8
HETATM    8  C   UNL     1      40.880 -13.394   2.228  1.00  0.00     0.190 A 
HETATM    9  O   UNL     1      41.523 -12.340   1.651  1.00  0.00    -0.194 OA
HETATM   10  N   UNL     1      41.044 -12.250   0.344  1.00  0.00    -0.106 NA
HETATM   11  C   UNL     1      40.142 -13.241   0.261  1.00  0.00     0.189 A 
HETATM   12  N   UNL     1      40.034 -13.989   1.416  1.00  0.00    -0.202 NA
BRANCH  11  13
HETATM   13  C   UNL     1      39.329 -13.524  -0.919  1.00  0.00     0.014 A 
HETATM   14  C   UNL     1      38.341 -12.630  -1.354  1.00  0.00     0.015 A 
HETATM   15  C   UNL     1      37.563 -12.921  -2.479  1.00  0.00     0.001 A 
HETATM   16  C   UNL     1      37.765 -14.109  -3.181  1.00  0.00     0.000 A 
HETATM   17  C   UNL     1      38.745 -15.006  -2.760  1.00  0.00     0.001 A 
HETATM   18  C   UNL     1      39.522 -14.714  -1.637  1.00  0.00     0.015 A 
ENDBRANCH  11  13
ENDBRANCH   7   8
ENDBRANCH   3   7
BRANCH   1  19
HETATM   19  C   UNL     1      43.620 -17.953   4.204  1.00  0.00     0.042 A 
HETATM   20  C   UNL     1      43.679 -18.586   5.458  1.00  0.00    -0.035 A 
HETATM   21  C   UNL     1      43.649 -17.855   6.772  1.00  0.00     0.050 C 
HETATM   22  C   UNL     1      43.799 -19.989   5.503  1.00  0.00     0.009 A 
HETATM   23  C   UNL     1      43.916 -20.743   4.336  1.00  0.00     0.001 A 
HETATM   24  C   UNL     1      43.925 -20.106   3.102  1.00  0.00     0.002 A 
HETATM   25  C   UNL     1      43.790 -18.719   3.039  1.00  0.00     0.030 A 
ENDBRANCH   1  19
TORSDOF 4
ENDMDL
MODEL 7
REMARK VINA RESULT:      -8.1      1.363      8.573
REMARK  4 active torsions:
REMARK  status: ('A' for Active; 'I' for Inactive)
REMARK    1  A    between atoms: C_3  and  N_4 
REMARK       I    between atoms: N_4  and  C_5 
REMARK       I    between atoms: C_5  and  N_6 
REMARK    2  A    between atoms: N_6  and  C_7 
REMARK    3  A    between atoms: C_7  and  C_8 
REMARK    4  A    between atoms: C_11  and  C_12 
ROOT
HETATM    1  N   UNL     1      42.160 -15.642   4.163  1.00  0.00    -0.309 N 
HETATM    2  C   UNL     1      42.550 -14.386   3.745  1.00  0.00     0.321 C 
HETATM    3  N   UNL     1      41.745 -13.420   4.310  1.00  0.00    -0.335 N 
HETATM    4  O   UNL     1      43.512 -14.111   3.044  1.00  0.00    -0.247 OA
HETATM    5  H   UNL     1      41.790 -15.627   5.103  1.00  0.00     0.170 HD
HETATM    6  H   UNL     1      40.782 -13.679   4.472  1.00  0.00     0.164 HD
ENDROOT
BRANCH   3   7
HETATM    7  C   UNL     1      42.048 -12.014   4.117  1.00  0.00     0.213 C 
BRANCH   7   8
HETATM    8  C   UNL     1      42.965 -11.460   5.146  1.00  0.00     0.190 A 
HETATM    9  O   UNL     1      44.287 -11.325   4.843  1.00  0.00    -0.194 OA
HETATM   10  N   UNL     1      44.902 -10.790   5.974  1.00  0.00    -0.106 NA
HETATM   11  C   UNL     1      43.900 -10.674   6.862  1.00  0.00     0.189 A 
HETATM   12  N   UNL     1      42.673 -11.063   6.366  1.00  0.00    -0.202 NA
BRANCH  11  13
HETATM   13  C   UNL     1      44.060 -10.194   8.232  1.00  0.00     0.014 A 
HETATM   14  C   UNL     1      45.293 -10.280   8.895  1.00  0.00     0.015 A 
HETATM   15  C   UNL     1      45.426  -9.827  10.211  1.00  0.00     0.001 A 
HETATM   16  C   UNL     1      44.330  -9.284  10.879  1.00  0.00     0.000 A 
HETATM   17  C   UNL     1      43.099  -9.191  10.232  1.00  0.00     0.001 A 
HETATM   18  C   UNL     1      42.966  -9.642   8.917  1.00  0.00     0.015 A 
ENDBRANCH  11  13
ENDBRANCH   7   8
ENDBRANCH   3   7
BRANCH   1  19
HETATM   19  C   UNL     1      42.808 -16.843   3.790  1.00  0.00     0.042 A 
HETATM   20  C   UNL     1      43.836 -17.458   4.527  1.00  0.00    -0.035 A 
HETATM   21  C   UNL     1      44.451 -16.870   5.767  1.00  0.00     0.050 C 
HETATM   22  C   UNL     1      44.348 -18.690   4.075  1.00  0.00     0.009 A 
HETATM   23  C   UNL     1      43.896 -19.272   2.891  1.00  0.00     0.001 A 
HETATM   24  C   UNL     1      42.930 -18.626   2.132  1.00  0.00     0.002 A 
HETATM   25  C   UNL     1      42.398 -17.414   2.574  1.00  0.00     0.030 A 
ENDBRANCH   1  19
TORSDOF 4
ENDMDL
MODEL 8
REMARK VINA RESULT:      -8.0      3.751      7.787
REMARK  4 active torsions:
REMARK  status: ('A' for Active; 'I' for Inactive)
REMARK    1  A    between atoms: C_3  and  N_4 
REMARK       I    between atoms: N_4  and  C_5 
REMARK       I    between atoms: C_5  and  N_6 
REMARK    2  A    between atoms: N_6  and  C_7 
REMARK    3  A    between atoms: C_7  and  C_8 
REMARK    4  A    between atoms: C_11  and  C_12 
ROOT
HETATM    1  N   UNL     1      43.719 -16.910   5.005  1.00  0.00    -0.309 N 
HETATM    2  C   UNL     1      42.575 -16.259   5.417  1.00  0.00     0.321 C 
HETATM    3  N   UNL     1      42.858 -14.950   5.745  1.00  0.00    -0.335 N 
HETATM    4  O   UNL     1      41.439 -16.707   5.430  1.00  0.00    -0.247 OA
HETATM    5  H   UNL     1      44.357 -16.286   4.532  1.00  0.00     0.170 HD
HETATM    6  H   UNL     1      43.772 -14.775   6.140  1.00  0.00     0.164 HD
ENDROOT
BRANCH   3   7
HETATM    7  C   UNL     1      41.785 -14.034   6.083  1.00  0.00     0.213 C 
BRANCH   7   8
HETATM    8  C   UNL     1      40.993 -13.591   4.906  1.00  0.00     0.190 A 
HETATM    9  O   UNL     1      39.996 -12.680   5.092  1.00  0.00    -0.194 OA
HETATM   10  N   UNL     1      39.429 -12.451   3.839  1.00  0.00    -0.106 NA
HETATM   11  C   UNL     1      40.118 -13.261   3.019  1.00  0.00     0.189 A 
HETATM   12  N   UNL     1      41.118 -13.970   3.653  1.00  0.00    -0.202 NA
BRANCH  11  13
HETATM   13  C   UNL     1      39.857 -13.409   1.590  1.00  0.00     0.014 A 
HETATM   14  C   UNL     1      39.367 -12.342   0.824  1.00  0.00     0.015 A 
HETATM   15  C   UNL     1      39.110 -12.504  -0.541  1.00  0.00     0.001 A 
HETATM   16  C   UNL     1      39.339 -13.734  -1.155  1.00  0.00     0.000 A 
HETATM   17  C   UNL     1      39.826 -14.804  -0.407  1.00  0.00     0.001 A 
HETATM   18  C   UNL     1      40.084 -14.641   0.957  1.00  0.00     0.015 A 
ENDBRANCH  11  13
ENDBRANCH   7   8
ENDBRANCH   3   7
BRANCH   1  19
HETATM   19  C   UNL     1      43.757 -18.255   4.566  1.00  0.00     0.042 A 
HETATM   20  C   UNL     1      43.580 -18.665   3.233  1.00  0.00    -0.035 A 
HETATM   21  C   UNL     1      43.232 -17.734   2.105  1.00  0.00     0.050 C 
HETATM   22  C   UNL     1      43.709 -20.034   2.924  1.00  0.00     0.009 A 
HETATM   23  C   UNL     1      43.950 -20.981   3.918  1.00  0.00     0.001 A 
HETATM   24  C   UNL     1      44.056 -20.578   5.242  1.00  0.00     0.002 A 
HETATM   25  C   UNL     1      43.949 -19.225   5.564  1.00  0.00     0.030 A 
ENDBRANCH   1  19
TORSDOF 4
ENDMDL
MODEL 9
REMARK VINA RESULT:      -7.9      3.543      4.999
REMARK  4 active torsions:
REMARK  status: ('A' for Active; 'I' for Inactive)
REMARK    1  A    between atoms: C_3  and  N_4 
REMARK       I    between atoms: N_4  and  C_5 
REMARK       I    between atoms: C_5  and  N_6 
REMARK    2  A    between atoms: N_6  and  C_7 
REMARK    3  A    between atoms: C_7  and  C_8 
REMARK    4  A    between atoms: C_11  and  C_12 
ROOT
HETATM    1  N   UNL     1      42.453  -9.458  10.409  1.00  0.00    -0.309 N 
HETATM    2  C   UNL     1      43.392 -10.375   9.984  1.00  0.00     0.321 C 
HETATM    3  N   UNL     1      43.319 -10.542   8.618  1.00  0.00    -0.335 N 
HETATM    4  O   UNL     1      44.242 -10.926  10.668  1.00  0.00    -0.247 OA
HETATM    5  H   UNL     1      42.284  -8.744   9.714  1.00  0.00     0.170 HD
HETATM    6  H   UNL     1      42.401 -10.453   8.205  1.00  0.00     0.164 HD
ENDROOT
BRANCH   3   7
HETATM    7  C   UNL     1      44.297 -11.363   7.929  1.00  0.00     0.213 C 
BRANCH   7   8
HETATM    8  C   UNL     1      43.691 -12.337   6.985  1.00  0.00     0.190 A 
HETATM    9  O   UNL     1      42.453 -12.075   6.477  1.00  0.00    -0.194 OA
HETATM   10  N   UNL     1      42.136 -13.139   5.634  1.00  0.00    -0.106 NA
HETATM   11  C   UNL     1      43.198 -13.955   5.730  1.00  0.00     0.189 A 
HETATM   12  N   UNL     1      44.197 -13.470   6.549  1.00  0.00    -0.202 NA
BRANCH  11  13
HETATM   13  C   UNL     1      43.316 -15.244   5.052  1.00  0.00     0.014 A 
HETATM   14  C   UNL     1      43.830 -16.369   5.712  1.00  0.00     0.015 A 
HETATM   15  C   UNL     1      43.947 -17.592   5.045  1.00  0.00     0.001 A 
HETATM   16  C   UNL     1      43.553 -17.705   3.713  1.00  0.00     0.000 A 
HETATM   17  C   UNL     1      43.039 -16.595   3.045  1.00  0.00     0.001 A 
HETATM   18  C   UNL     1      42.921 -15.373   3.712  1.00  0.00     0.015 A 
ENDBRANCH  11  13
ENDBRANCH   7   8
ENDBRANCH   3   7
BRANCH   1  19
HETATM   19  C   UNL     1      42.297  -9.040  11.752  1.00  0.00     0.042 A 
HETATM   20  C   UNL     1      41.233  -9.422  12.589  1.00  0.00    -0.035 A 
HETATM   21  C   UNL     1      40.065 -10.254  12.139  1.00  0.00     0.050 C 
HETATM   22  C   UNL     1      41.237  -8.985  13.928  1.00  0.00     0.009 A 
HETATM   23  C   UNL     1      42.237  -8.144  14.413  1.00  0.00     0.001 A 
HETATM   24  C   UNL     1      43.248  -7.715  13.564  1.00  0.00     0.002 A 
HETATM   25  C   UNL     1      43.270  -8.152  12.239  1.00  0.00     0.030 A 
ENDBRANCH   1  19
TORSDOF 4
ENDMDL
MODEL 10
REMARK VINA RESULT:      -7.6      1.959      8.977
REMARK  4 active torsions:
REMARK  status: ('A' for Active; 'I' for Inactive)
REMARK    1  A    between atoms: C_3  and  N_4 
REMARK       I    between atoms: N_4  and  C_5 
REMARK       I    between atoms: C_5  and  N_6 
REMARK    2  A    between atoms: N_6  and  C_7 
REMARK    3  A    between atoms: C_7  and  C_8 
REMARK    4  A    between atoms: C_11  and  C_12 
ROOT
HETATM    1  N   UNL     1      41.812 -14.819   4.548  1.00  0.00    -0.309 N 
HETATM    2  C   UNL     1      42.274 -13.548   4.274  1.00  0.00     0.321 C 
HETATM    3  N   UNL     1      41.535 -12.608   4.961  1.00  0.00    -0.335 N 
HETATM    4  O   UNL     1      43.244 -13.250   3.593  1.00  0.00    -0.247 OA
HETATM    5  H   UNL     1      41.453 -14.892   5.490  1.00  0.00     0.170 HD
HETATM    6  H   UNL     1      40.560 -12.827   5.108  1.00  0.00     0.164 HD
ENDROOT
BRANCH   3   7
HETATM    7  C   UNL     1      41.921 -11.210   4.928  1.00  0.00     0.213 C 
BRANCH   7   8
HETATM    8  C   UNL     1      42.701 -10.784   6.119  1.00  0.00     0.190 A 
HETATM    9  O   UNL     1      44.042 -11.026   6.146  1.00  0.00    -0.194 OA
HETATM   10  N   UNL     1      44.511 -10.529   7.362  1.00  0.00    -0.106 NA
HETATM   11  C   UNL     1      43.408 -10.056   7.965  1.00  0.00     0.189 A 
HETATM   12  N   UNL     1      42.264 -10.180   7.202  1.00  0.00    -0.202 NA
BRANCH  11  13
HETATM   13  C   UNL     1      43.383  -9.468   9.301  1.00  0.00     0.014 A 
HETATM   14  C   UNL     1      43.643 -10.240  10.442  1.00  0.00     0.015 A 
HETATM   15  C   UNL     1      43.603  -9.664  11.715  1.00  0.00     0.001 A 
HETATM   16  C   UNL     1      43.302  -8.311  11.863  1.00  0.00     0.000 A 
HETATM   17  C   UNL     1      43.042  -7.531  10.738  1.00  0.00     0.001 A 
HETATM   18  C   UNL     1      43.083  -8.106   9.465  1.00  0.00     0.015 A 
ENDBRANCH  11  13
ENDBRANCH   7   8
ENDBRANCH   3   7
BRANCH   1  19
HETATM   19  C   UNL     1      42.382 -16.005   4.027  1.00  0.00     0.042 A 
HETATM   20  C   UNL     1      42.004 -16.605   2.813  1.00  0.00    -0.035 A 
HETATM   21  C   UNL     1      40.875 -16.118   1.948  1.00  0.00     0.050 C 
HETATM   22  C   UNL     1      42.702 -17.750   2.379  1.00  0.00     0.009 A 
HETATM   23  C   UNL     1      43.711 -18.320   3.154  1.00  0.00     0.001 A 
HETATM   24  C   UNL     1      44.033 -17.762   4.384  1.00  0.00     0.002 A 
HETATM   25  C   UNL     1      43.364 -16.618   4.822  1.00  0.00     0.030 A 
ENDBRANCH   1  19
TORSDOF 4
ENDMDL
