MODEL 1
REMARK VINA RESULT:      -8.3      0.000      0.000
REMARK  14 active torsions:
REMARK  status: ('A' for Active; 'I' for Inactive)
REMARK    1  A    between atoms: C_2  and  O_3 
REMARK    2  A    between atoms: O_3  and  C_4 
REMARK    3  A    between atoms: C_5  and  O_6 
REMARK    4  A    between atoms: C_9  and  C_10 
REMARK    5  A    between atoms: N_11  and  C_12 
REMARK    6  A    between atoms: C_12  and  C_13 
REMARK    7  A    between atoms: C_13  and  C_14 
REMARK    8  A    between atoms: C_14  and  N_15 
REMARK    9  A    between atoms: C_24  and  O_25 
REMARK   10  A    between atoms: C_26  and  C_27 
REMARK   11  A    between atoms: C_27  and  C_28 
REMARK   12  A    between atoms: C_32  and  O_33 
REMARK   13  A    between atoms: O_33  and  C_34 
REMARK   14  A    between atoms: C_34  and  C_35 
ROOT
HETATM    1  C   UNL     1      39.770 -11.223   2.179  1.00  0.00     0.161 C 
HETATM    2  N   UNL     1      39.090 -10.136   1.475  1.00  0.00    -0.333 N 
HETATM    3  C   UNL     1      39.952  -9.519   0.586  1.00  0.00     0.278 C 
HETATM    4  O   UNL     1      39.690  -8.654  -0.231  1.00  0.00    -0.265 OA
HETATM    5  C   UNL     1      41.305 -10.047   0.829  1.00  0.00     0.146 C 
HETATM    6  C   UNL     1      41.192 -10.995   1.767  1.00  0.00     0.059 C 
ENDROOT
BRANCH   6   7
HETATM    7  C   UNL     1      42.371 -11.576   2.434  1.00  0.00     0.193 C 
HETATM    8  O   UNL     1      43.208 -10.847   2.956  1.00  0.00    -0.287 OA
BRANCH   7   9
HETATM    9  C   UNL     1      42.481 -13.047   2.593  1.00  0.00     0.015 A 
HETATM   10  C   UNL     1      42.997 -13.531   3.801  1.00  0.00     0.025 A 
HETATM   11  C   UNL     1      43.139 -14.908   4.020  1.00  0.00    -0.028 A 
HETATM   12  C   UNL     1      43.707 -15.399   5.325  1.00  0.00     0.051 C 
HETATM   13  C   UNL     1      42.751 -15.812   3.017  1.00  0.00     0.074 A 
HETATM   14  C   UNL     1      42.252 -15.327   1.804  1.00  0.00     0.038 A 
HETATM   15  C   UNL     1      42.127 -13.948   1.585  1.00  0.00     0.018 A 
BRANCH  13  16
HETATM   16  O   UNL     1      42.911 -17.132   3.334  1.00  0.00    -0.350 OA
BRANCH  16  17
HETATM   17  C   UNL     1      43.000 -18.086   2.279  1.00  0.00     0.179 C 
BRANCH  17  18
HETATM   18  C   UNL     1      44.023 -19.169   2.658  1.00  0.00     0.002 C 
HETATM   19  C   UNL     1      44.092 -19.357   4.175  1.00  0.00     0.011 C 
HETATM   20  C   UNL     1      43.703 -20.505   1.984  1.00  0.00     0.011 C 
ENDBRANCH  17  18
ENDBRANCH  16  17
ENDBRANCH  13  16
ENDBRANCH   7   9
ENDBRANCH   6   7
BRANCH   1  21
HETATM   21  C   UNL     1      39.527 -11.237   3.671  1.00  0.00    -0.028 A 
HETATM   22  C   UNL     1      39.419 -10.050   4.418  1.00  0.00     0.012 A 
HETATM   23  C   UNL     1      39.236 -10.101   5.800  1.00  0.00     0.040 A 
HETATM   24  C   UNL     1      39.199 -11.332   6.441  1.00  0.00     0.099 A 
HETATM   25  C   UNL     1      39.350 -12.526   5.735  1.00  0.00     0.102 A 
HETATM   26  C   UNL     1      39.481 -12.474   4.347  1.00  0.00     0.049 A 
BRANCH  24  27
HETATM   27  O   UNL     1      39.038 -11.347   7.798  1.00  0.00    -0.358 OA
HETATM   28  H   UNL     1      39.654 -10.670   8.142  1.00  0.00     0.218 HD
ENDBRANCH  24  27
BRANCH  25  29
HETATM   29  O   UNL     1      39.352 -13.668   6.493  1.00  0.00    -0.349 OA
BRANCH  29  30
HETATM   30  C   UNL     1      40.545 -14.456   6.437  1.00  0.00     0.171 C 
HETATM   31  C   UNL     1      40.151 -15.921   6.382  1.00  0.00     0.034 C 
ENDBRANCH  29  30
ENDBRANCH  25  29
ENDBRANCH   1  21
BRANCH   5  32
HETATM   32  O   UNL     1      42.420  -9.575   0.210  1.00  0.00    -0.355 OA
HETATM   33  H   UNL     1      42.792 -10.306  -0.320  1.00  0.00     0.218 HD
ENDBRANCH   5  32
BRANCH   2  34
HETATM   34  C   UNL     1      37.643 -10.022   1.367  1.00  0.00     0.129 C 
BRANCH  34  35
HETATM   35  C   UNL     1      36.974 -11.132   0.554  1.00  0.00     0.048 C 
BRANCH  35  36
HETATM   36  C   UNL     1      37.180 -11.115  -0.964  1.00  0.00     0.236 C 
BRANCH  36  37
HETATM   37  N   UNL     1      37.998 -12.240  -1.558  1.00  0.00    -0.067 N 
HETATM   38  H   UNL     1      38.117 -12.897  -0.773  1.00  0.00     0.280 HD
HETATM   39  C   UNL     1      37.293 -13.066  -2.628  1.00  0.00     0.261 C 
HETATM   40  C   UNL     1      38.155 -14.286  -2.982  1.00  0.00     0.195 C 
HETATM   41  O   UNL     1      39.468 -13.892  -3.397  1.00  0.00    -0.388 OA
HETATM   42  C   UNL     1      40.161 -13.172  -2.371  1.00  0.00     0.195 C 
HETATM   43  C   UNL     1      39.409 -11.886  -2.003  1.00  0.00     0.261 C 
ENDBRANCH  36  37
ENDBRANCH  35  36
ENDBRANCH  34  35
ENDBRANCH   2  34
TORSDOF 14
ENDMDL
MODEL 2
REMARK VINA RESULT:      -8.0      0.961      2.201
REMARK  14 active torsions:
REMARK  status: ('A' for Active; 'I' for Inactive)
REMARK    1  A    between atoms: C_2  and  O_3 
REMARK    2  A    between atoms: O_3  and  C_4 
REMARK    3  A    between atoms: C_5  and  O_6 
REMARK    4  A    between atoms: C_9  and  C_10 
REMARK    5  A    between atoms: N_11  and  C_12 
REMARK    6  A    between atoms: C_12  and  C_13 
REMARK    7  A    between atoms: C_13  and  C_14 
REMARK    8  A    between atoms: C_14  and  N_15 
REMARK    9  A    between atoms: C_24  and  O_25 
REMARK   10  A    between atoms: C_26  and  C_27 
REMARK   11  A    between atoms: C_27  and  C_28 
REMARK   12  A    between atoms: C_32  and  O_33 
REMARK   13  A    between atoms: O_33  and  C_34 
REMARK   14  A    between atoms: C_34  and  C_35 
ROOT
HETATM    1  C   UNL     1      39.845 -11.204   2.407  1.00  0.00     0.161 C 
HETATM    2  N   UNL     1      39.132 -10.110   1.748  1.00  0.00    -0.333 N 
HETATM    3  C   UNL     1      39.956  -9.468   0.842  1.00  0.00     0.278 C 
HETATM    4  O   UNL     1      39.658  -8.590   0.052  1.00  0.00    -0.265 OA
HETATM    5  C   UNL     1      41.322  -9.989   1.026  1.00  0.00     0.146 C 
HETATM    6  C   UNL     1      41.250 -10.956   1.948  1.00  0.00     0.059 C 
ENDROOT
BRANCH   6   7
HETATM    7  C   UNL     1      42.456 -11.539   2.561  1.00  0.00     0.193 C 
HETATM    8  O   UNL     1      43.319 -10.812   3.044  1.00  0.00    -0.287 OA
BRANCH   7   9
HETATM    9  C   UNL     1      42.570 -13.010   2.717  1.00  0.00     0.015 A 
HETATM   10  C   UNL     1      42.865 -13.505   3.993  1.00  0.00     0.025 A 
HETATM   11  C   UNL     1      42.997 -14.882   4.215  1.00  0.00    -0.028 A 
HETATM   12  C   UNL     1      43.326 -15.385   5.596  1.00  0.00     0.051 C 
HETATM   13  C   UNL     1      42.822 -15.777   3.146  1.00  0.00     0.074 A 
HETATM   14  C   UNL     1      42.544 -15.280   1.868  1.00  0.00     0.038 A 
HETATM   15  C   UNL     1      42.429 -13.900   1.649  1.00  0.00     0.018 A 
BRANCH  13  16
HETATM   16  O   UNL     1      42.952 -17.098   3.468  1.00  0.00    -0.350 OA
BRANCH  16  17
HETATM   17  C   UNL     1      43.095 -18.051   2.418  1.00  0.00     0.179 C 
BRANCH  17  18
HETATM   18  C   UNL     1      44.095 -19.136   2.848  1.00  0.00     0.002 C 
HETATM   19  C   UNL     1      44.397 -19.046   4.346  1.00  0.00     0.011 C 
HETATM   20  C   UNL     1      43.586 -20.538   2.505  1.00  0.00     0.011 C 
ENDBRANCH  17  18
ENDBRANCH  16  17
ENDBRANCH  13  16
ENDBRANCH   7   9
ENDBRANCH   6   7
BRANCH   1  21
HETATM   21  C   UNL     1      39.656 -11.249   3.906  1.00  0.00    -0.028 A 
HETATM   22  C   UNL     1      39.452 -12.458   4.594  1.00  0.00     0.012 A 
HETATM   23  C   UNL     1      39.240 -12.457   5.972  1.00  0.00     0.040 A 
HETATM   24  C   UNL     1      39.193 -11.250   6.658  1.00  0.00     0.099 A 
HETATM   25  C   UNL     1      39.345 -10.031   5.997  1.00  0.00     0.102 A 
HETATM   26  C   UNL     1      39.610 -10.037   4.627  1.00  0.00     0.049 A 
BRANCH  24  27
HETATM   27  O   UNL     1      38.964 -11.283   8.004  1.00  0.00    -0.358 OA
HETATM   28  H   UNL     1      39.848 -11.322   8.420  1.00  0.00     0.218 HD
ENDBRANCH  24  27
BRANCH  25  29
HETATM   29  O   UNL     1      39.222  -8.912   6.779  1.00  0.00    -0.349 OA
BRANCH  29  30
HETATM   30  C   UNL     1      38.700  -7.748   6.130  1.00  0.00     0.171 C 
HETATM   31  C   UNL     1      39.522  -6.548   6.563  1.00  0.00     0.034 C 
ENDBRANCH  29  30
ENDBRANCH  25  29
ENDBRANCH   1  21
BRANCH   5  32
HETATM   32  O   UNL     1      42.409  -9.495   0.376  1.00  0.00    -0.355 OA
HETATM   33  H   UNL     1      42.768 -10.213  -0.180  1.00  0.00     0.218 HD
ENDBRANCH   5  32
BRANCH   2  34
HETATM   34  C   UNL     1      37.681 -10.007   1.694  1.00  0.00     0.129 C 
BRANCH  34  35
HETATM   35  C   UNL     1      36.986 -11.161   0.968  1.00  0.00     0.048 C 
BRANCH  35  36
HETATM   36  C   UNL     1      37.201 -11.272  -0.544  1.00  0.00     0.236 C 
BRANCH  36  37
HETATM   37  N   UNL     1      37.785 -12.569  -1.060  1.00  0.00    -0.067 N 
HETATM   38  H   UNL     1      37.196 -13.293  -0.624  1.00  0.00     0.280 HD
HETATM   39  C   UNL     1      37.620 -12.810  -2.556  1.00  0.00     0.261 C 
HETATM   40  C   UNL     1      38.065 -14.240  -2.895  1.00  0.00     0.195 C 
HETATM   41  O   UNL     1      39.409 -14.481  -2.465  1.00  0.00    -0.388 OA
HETATM   42  C   UNL     1      39.556 -14.321  -1.050  1.00  0.00     0.195 C 
HETATM   43  C   UNL     1      39.206 -12.889  -0.623  1.00  0.00     0.261 C 
ENDBRANCH  36  37
ENDBRANCH  35  36
ENDBRANCH  34  35
ENDBRANCH   2  34
TORSDOF 14
ENDMDL
MODEL 3
REMARK VINA RESULT:      -8.0      3.814      7.761
REMARK  14 active torsions:
REMARK  status: ('A' for Active; 'I' for Inactive)
REMARK    1  A    between atoms: C_2  and  O_3 
REMARK    2  A    between atoms: O_3  and  C_4 
REMARK    3  A    between atoms: C_5  and  O_6 
REMARK    4  A    between atoms: C_9  and  C_10 
REMARK    5  A    between atoms: N_11  and  C_12 
REMARK    6  A    between atoms: C_12  and  C_13 
REMARK    7  A    between atoms: C_13  and  C_14 
REMARK    8  A    between atoms: C_14  and  N_15 
REMARK    9  A    between atoms: C_24  and  O_25 
REMARK   10  A    between atoms: C_26  and  C_27 
REMARK   11  A    between atoms: C_27  and  C_28 
REMARK   12  A    between atoms: C_32  and  O_33 
REMARK   13  A    between atoms: O_33  and  C_34 
REMARK   14  A    between atoms: C_34  and  C_35 
ROOT
HETATM    1  C   UNL     1      42.099 -10.017   6.275  1.00  0.00     0.161 C 
HETATM    2  N   UNL     1      41.591  -9.626   7.590  1.00  0.00    -0.333 N 
HETATM    3  C   UNL     1      42.557  -9.818   8.562  1.00  0.00     0.278 C 
HETATM    4  O   UNL     1      42.509  -9.501   9.737  1.00  0.00    -0.265 OA
HETATM    5  C   UNL     1      43.677 -10.550   7.945  1.00  0.00     0.146 C 
HETATM    6  C   UNL     1      43.386 -10.688   6.647  1.00  0.00     0.059 C 
ENDROOT
BRANCH   6   7
HETATM    7  C   UNL     1      44.164 -11.575   5.764  1.00  0.00     0.193 C 
HETATM    8  O   UNL     1      45.178 -11.164   5.209  1.00  0.00    -0.287 OA
BRANCH   7   9
HETATM    9  C   UNL     1      43.799 -13.008   5.648  1.00  0.00     0.015 A 
HETATM   10  C   UNL     1      43.282 -13.448   4.423  1.00  0.00     0.025 A 
HETATM   11  C   UNL     1      42.906 -14.786   4.242  1.00  0.00    -0.028 A 
HETATM   12  C   UNL     1      42.343 -15.227   2.917  1.00  0.00     0.051 C 
HETATM   13  C   UNL     1      43.060 -15.698   5.299  1.00  0.00     0.074 A 
HETATM   14  C   UNL     1      43.561 -15.254   6.527  1.00  0.00     0.038 A 
HETATM   15  C   UNL     1      43.920 -13.911   6.707  1.00  0.00     0.018 A 
BRANCH  13  16
HETATM   16  O   UNL     1      42.684 -16.981   5.017  1.00  0.00    -0.350 OA
BRANCH  16  17
HETATM   17  C   UNL     1      43.317 -18.052   5.714  1.00  0.00     0.179 C 
BRANCH  17  18
HETATM   18  C   UNL     1      44.217 -18.831   4.740  1.00  0.00     0.002 C 
HETATM   19  C   UNL     1      44.249 -20.320   5.090  1.00  0.00     0.011 C 
HETATM   20  C   UNL     1      43.766 -18.647   3.289  1.00  0.00     0.011 C 
ENDBRANCH  17  18
ENDBRANCH  16  17
ENDBRANCH  13  16
ENDBRANCH   7   9
ENDBRANCH   6   7
BRANCH   1  21
HETATM   21  C   UNL     1      41.140 -10.865   5.472  1.00  0.00    -0.028 A 
HETATM   22  C   UNL     1      40.387 -11.897   6.060  1.00  0.00     0.012 A 
HETATM   23  C   UNL     1      39.543 -12.686   5.281  1.00  0.00     0.040 A 
HETATM   24  C   UNL     1      39.478 -12.472   3.910  1.00  0.00     0.099 A 
HETATM   25  C   UNL     1      40.247 -11.488   3.289  1.00  0.00     0.102 A 
HETATM   26  C   UNL     1      41.051 -10.665   4.078  1.00  0.00     0.049 A 
BRANCH  24  27
HETATM   27  O   UNL     1      38.655 -13.276   3.171  1.00  0.00    -0.358 OA
HETATM   28  H   UNL     1      38.952 -13.175   2.245  1.00  0.00     0.218 HD
ENDBRANCH  24  27
BRANCH  25  29
HETATM   29  O   UNL     1      40.132 -11.418   1.925  1.00  0.00    -0.349 OA
BRANCH  29  30
HETATM   30  C   UNL     1      41.262 -11.876   1.176  1.00  0.00     0.171 C 
HETATM   31  C   UNL     1      40.814 -13.014   0.277  1.00  0.00     0.034 C 
ENDBRANCH  29  30
ENDBRANCH  25  29
ENDBRANCH   1  21
BRANCH   5  32
HETATM   32  O   UNL     1      44.751 -11.008   8.643  1.00  0.00    -0.355 OA
HETATM   33  H   UNL     1      44.769 -10.533   9.496  1.00  0.00     0.218 HD
ENDBRANCH   5  32
BRANCH   2  34
HETATM   34  C   UNL     1      40.450  -8.744   7.787  1.00  0.00     0.129 C 
BRANCH  34  35
HETATM   35  C   UNL     1      39.344  -9.321   8.673  1.00  0.00     0.048 C 
BRANCH  35  36
HETATM   36  C   UNL     1      38.787  -8.420   9.780  1.00  0.00     0.236 C 
BRANCH  36  37
HETATM   37  N   UNL     1      39.174  -8.763  11.202  1.00  0.00    -0.067 N 
HETATM   38  H   UNL     1      38.299  -8.641  11.730  1.00  0.00     0.280 HD
HETATM   39  C   UNL     1      39.550 -10.220  11.443  1.00  0.00     0.261 C 
HETATM   40  C   UNL     1      39.711 -10.464  12.950  1.00  0.00     0.195 C 
HETATM   41  O   UNL     1      40.672  -9.568  13.521  1.00  0.00    -0.388 OA
HETATM   42  C   UNL     1      40.291  -8.198  13.356  1.00  0.00     0.195 C 
HETATM   43  C   UNL     1      40.180  -7.837  11.869  1.00  0.00     0.261 C 
ENDBRANCH  36  37
ENDBRANCH  35  36
ENDBRANCH  34  35
ENDBRANCH   2  34
TORSDOF 14
ENDMDL
MODEL 4
REMARK VINA RESULT:      -8.0      2.567      4.096
REMARK  14 active torsions:
REMARK  status: ('A' for Active; 'I' for Inactive)
REMARK    1  A    between atoms: C_2  and  O_3 
REMARK    2  A    between atoms: O_3  and  C_4 
REMARK    3  A    between atoms: C_5  and  O_6 
REMARK    4  A    between atoms: C_9  and  C_10 
REMARK    5  A    between atoms: N_11  and  C_12 
REMARK    6  A    between atoms: C_12  and  C_13 
REMARK    7  A    between atoms: C_13  and  C_14 
REMARK    8  A    between atoms: C_14  and  N_15 
REMARK    9  A    between atoms: C_24  and  O_25 
REMARK   10  A    between atoms: C_26  and  C_27 
REMARK   11  A    between atoms: C_27  and  C_28 
REMARK   12  A    between atoms: C_32  and  O_33 
REMARK   13  A    between atoms: O_33  and  C_34 
REMARK   14  A    between atoms: C_34  and  C_35 
ROOT
HETATM    1  C   UNL     1      40.611 -11.700   4.151  1.00  0.00     0.161 C 
HETATM    2  N   UNL     1      40.302 -11.309   2.776  1.00  0.00    -0.333 N 
HETATM    3  C   UNL     1      39.534 -12.278   2.156  1.00  0.00     0.278 C 
HETATM    4  O   UNL     1      39.016 -12.229   1.055  1.00  0.00    -0.265 OA
HETATM    5  C   UNL     1      39.487 -13.453   3.043  1.00  0.00     0.146 C 
HETATM    6  C   UNL     1      40.137 -13.121   4.165  1.00  0.00     0.059 C 
ENDROOT
BRANCH   6   7
HETATM    7  C   UNL     1      40.498 -14.124   5.182  1.00  0.00     0.193 C 
HETATM    8  O   UNL     1      39.856 -14.209   6.224  1.00  0.00    -0.287 OA
BRANCH   7   9
HETATM    9  C   UNL     1      41.555 -15.124   4.893  1.00  0.00     0.015 A 
HETATM   10  C   UNL     1      41.878 -16.037   5.905  1.00  0.00     0.025 A 
HETATM   11  C   UNL     1      42.872 -17.004   5.707  1.00  0.00    -0.028 A 
HETATM   12  C   UNL     1      43.206 -17.965   6.818  1.00  0.00     0.051 C 
HETATM   13  C   UNL     1      43.545 -17.065   4.476  1.00  0.00     0.074 A 
HETATM   14  C   UNL     1      43.234 -16.143   3.471  1.00  0.00     0.038 A 
HETATM   15  C   UNL     1      42.249 -15.167   3.681  1.00  0.00     0.018 A 
BRANCH  13  16
HETATM   16  O   UNL     1      44.482 -18.055   4.376  1.00  0.00    -0.350 OA
BRANCH  16  17
HETATM   17  C   UNL     1      44.613 -18.755   3.141  1.00  0.00     0.179 C 
BRANCH  17  18
HETATM   18  C   UNL     1      43.576 -19.890   3.089  1.00  0.00     0.002 C 
HETATM   19  C   UNL     1      43.531 -20.533   1.701  1.00  0.00     0.011 C 
HETATM   20  C   UNL     1      43.859 -20.958   4.148  1.00  0.00     0.011 C 
ENDBRANCH  17  18
ENDBRANCH  16  17
ENDBRANCH  13  16
ENDBRANCH   7   9
ENDBRANCH   6   7
BRANCH   1  21
HETATM   21  C   UNL     1      42.059 -11.502   4.537  1.00  0.00    -0.028 A 
HETATM   22  C   UNL     1      43.109 -11.736   3.632  1.00  0.00     0.012 A 
HETATM   23  C   UNL     1      44.435 -11.582   4.035  1.00  0.00     0.040 A 
HETATM   24  C   UNL     1      44.715 -11.232   5.350  1.00  0.00     0.099 A 
HETATM   25  C   UNL     1      43.698 -11.038   6.284  1.00  0.00     0.102 A 
HETATM   26  C   UNL     1      42.371 -11.142   5.865  1.00  0.00     0.049 A 
BRANCH  24  27
HETATM   27  O   UNL     1      46.025 -11.109   5.718  1.00  0.00    -0.358 OA
HETATM   28  H   UNL     1      46.406 -10.441   5.114  1.00  0.00     0.218 HD
ENDBRANCH  24  27
BRANCH  25  29
HETATM   29  O   UNL     1      44.110 -10.752   7.560  1.00  0.00    -0.349 OA
BRANCH  29  30
HETATM   30  C   UNL     1      43.984  -9.387   7.969  1.00  0.00     0.171 C 
HETATM   31  C   UNL     1      45.347  -8.891   8.416  1.00  0.00     0.034 C 
ENDBRANCH  29  30
ENDBRANCH  25  29
ENDBRANCH   1  21
BRANCH   5  32
HETATM   32  O   UNL     1      38.912 -14.635   2.696  1.00  0.00    -0.355 OA
HETATM   33  H   UNL     1      38.026 -14.435   2.337  1.00  0.00     0.218 HD
ENDBRANCH   5  32
BRANCH   2  34
HETATM   34  C   UNL     1      40.375  -9.939   2.288  1.00  0.00     0.129 C 
BRANCH  34  35
HETATM   35  C   UNL     1      41.285  -9.741   1.074  1.00  0.00     0.048 C 
BRANCH  35  36
HETATM   36  C   UNL     1      40.686  -9.038  -0.148  1.00  0.00     0.236 C 
BRANCH  36  37
HETATM   37  N   UNL     1      40.432  -9.888  -1.372  1.00  0.00    -0.067 N 
HETATM   38  H   UNL     1      40.804  -9.321  -2.147  1.00  0.00     0.280 HD
HETATM   39  C   UNL     1      41.233 -11.183  -1.446  1.00  0.00     0.261 C 
HETATM   40  C   UNL     1      41.033 -11.830  -2.824  1.00  0.00     0.195 C 
HETATM   41  O   UNL     1      39.645 -12.051  -3.098  1.00  0.00    -0.388 OA
HETATM   42  C   UNL     1      38.898 -10.828  -3.096  1.00  0.00     0.195 C 
HETATM   43  C   UNL     1      38.974 -10.144  -1.725  1.00  0.00     0.261 C 
ENDBRANCH  36  37
ENDBRANCH  35  36
ENDBRANCH  34  35
ENDBRANCH   2  34
TORSDOF 14
ENDMDL
MODEL 5
REMARK VINA RESULT:      -7.9      3.318      6.187
REMARK  14 active torsions:
REMARK  status: ('A' for Active; 'I' for Inactive)
REMARK    1  A    between atoms: C_2  and  O_3 
REMARK    2  A    between atoms: O_3  and  C_4 
REMARK    3  A    between atoms: C_5  and  O_6 
REMARK    4  A    between atoms: C_9  and  C_10 
REMARK    5  A    between atoms: N_11  and  C_12 
REMARK    6  A    between atoms: C_12  and  C_13 
REMARK    7  A    between atoms: C_13  and  C_14 
REMARK    8  A    between atoms: C_14  and  N_15 
REMARK    9  A    between atoms: C_24  and  O_25 
REMARK   10  A    between atoms: C_26  and  C_27 
REMARK   11  A    between atoms: C_27  and  C_28 
REMARK   12  A    between atoms: C_32  and  O_33 
REMARK   13  A    between atoms: O_33  and  C_34 
REMARK   14  A    between atoms: C_34  and  C_35 
ROOT
HETATM    1  C   UNL     1      42.068 -13.299   3.225  1.00  0.00     0.161 C 
HETATM    2  N   UNL     1      40.672 -13.024   2.887  1.00  0.00    -0.333 N 
HETATM    3  C   UNL     1      40.480 -11.671   2.675  1.00  0.00     0.278 C 
HETATM    4  O   UNL     1      39.474 -11.112   2.277  1.00  0.00    -0.265 OA
HETATM    5  C   UNL     1      41.713 -10.972   3.077  1.00  0.00     0.146 C 
HETATM    6  C   UNL     1      42.599 -11.912   3.423  1.00  0.00     0.059 C 
ENDROOT
BRANCH   6   7
HETATM    7  C   UNL     1      43.862 -11.578   4.106  1.00  0.00     0.193 C 
HETATM    8  O   UNL     1      44.892 -11.417   3.458  1.00  0.00    -0.287 OA
BRANCH   7   9
HETATM    9  C   UNL     1      43.866 -11.306   5.564  1.00  0.00     0.015 A 
HETATM   10  C   UNL     1      42.800 -10.564   6.087  1.00  0.00     0.025 A 
HETATM   11  C   UNL     1      42.741 -10.260   7.454  1.00  0.00    -0.028 A 
HETATM   12  C   UNL     1      41.588  -9.451   7.986  1.00  0.00     0.051 C 
HETATM   13  C   UNL     1      43.759 -10.713   8.309  1.00  0.00     0.074 A 
HETATM   14  C   UNL     1      44.833 -11.439   7.783  1.00  0.00     0.038 A 
HETATM   15  C   UNL     1      44.894 -11.727   6.412  1.00  0.00     0.018 A 
BRANCH  13  16
HETATM   16  O   UNL     1      43.601 -10.381   9.625  1.00  0.00    -0.350 OA
BRANCH  16  17
HETATM   17  C   UNL     1      44.416  -9.350  10.178  1.00  0.00     0.179 C 
BRANCH  17  18
HETATM   18  C   UNL     1      43.801  -8.871  11.503  1.00  0.00     0.002 C 
HETATM   19  C   UNL     1      42.945  -7.620  11.294  1.00  0.00     0.011 C 
HETATM   20  C   UNL     1      42.963  -9.969  12.162  1.00  0.00     0.011 C 
ENDBRANCH  17  18
ENDBRANCH  16  17
ENDBRANCH  13  16
ENDBRANCH   7   9
ENDBRANCH   6   7
BRANCH   1  21
HETATM   21  C   UNL     1      42.245 -14.229   4.403  1.00  0.00    -0.028 A 
HETATM   22  C   UNL     1      41.560 -14.033   5.615  1.00  0.00     0.012 A 
HETATM   23  C   UNL     1      41.779 -14.888   6.695  1.00  0.00     0.040 A 
HETATM   24  C   UNL     1      42.707 -15.914   6.579  1.00  0.00     0.099 A 
HETATM   25  C   UNL     1      43.437 -16.107   5.406  1.00  0.00     0.102 A 
HETATM   26  C   UNL     1      43.179 -15.283   4.310  1.00  0.00     0.049 A 
BRANCH  24  27
HETATM   27  O   UNL     1      42.913 -16.722   7.662  1.00  0.00    -0.358 OA
HETATM   28  H   UNL     1      43.881 -16.844   7.719  1.00  0.00     0.218 HD
ENDBRANCH  24  27
BRANCH  25  29
HETATM   29  O   UNL     1      44.362 -17.118   5.441  1.00  0.00    -0.349 OA
BRANCH  29  30
HETATM   30  C   UNL     1      44.122 -18.219   4.559  1.00  0.00     0.171 C 
HETATM   31  C   UNL     1      43.924 -19.470   5.394  1.00  0.00     0.034 C 
ENDBRANCH  29  30
ENDBRANCH  25  29
ENDBRANCH   1  21
BRANCH   5  32
HETATM   32  O   UNL     1      41.833  -9.618   3.109  1.00  0.00    -0.355 OA
HETATM   33  H   UNL     1      42.786  -9.409   3.070  1.00  0.00     0.218 HD
ENDBRANCH   5  32
BRANCH   2  34
HETATM   34  C   UNL     1      39.746 -14.032   2.390  1.00  0.00     0.129 C 
BRANCH  34  35
HETATM   35  C   UNL     1      40.169 -14.693   1.076  1.00  0.00     0.048 C 
BRANCH  35  36
HETATM   36  C   UNL     1      40.607 -13.772  -0.067  1.00  0.00     0.236 C 
BRANCH  36  37
HETATM   37  N   UNL     1      39.611 -13.541  -1.181  1.00  0.00    -0.067 N 
HETATM   38  H   UNL     1      40.169 -13.088  -1.919  1.00  0.00     0.280 HD
HETATM   39  C   UNL     1      39.072 -14.802  -1.847  1.00  0.00     0.261 C 
HETATM   40  C   UNL     1      38.247 -14.415  -3.083  1.00  0.00     0.195 C 
HETATM   41  O   UNL     1      37.194 -13.507  -2.740  1.00  0.00    -0.388 OA
HETATM   42  C   UNL     1      37.698 -12.291  -2.174  1.00  0.00     0.195 C 
HETATM   43  C   UNL     1      38.477 -12.572  -0.883  1.00  0.00     0.261 C 
ENDBRANCH  36  37
ENDBRANCH  35  36
ENDBRANCH  34  35
ENDBRANCH   2  34
TORSDOF 14
ENDMDL
MODEL 6
REMARK VINA RESULT:      -7.9      3.036      6.113
REMARK  14 active torsions:
REMARK  status: ('A' for Active; 'I' for Inactive)
REMARK    1  A    between atoms: C_2  and  O_3 
REMARK    2  A    between atoms: O_3  and  C_4 
REMARK    3  A    between atoms: C_5  and  O_6 
REMARK    4  A    between atoms: C_9  and  C_10 
REMARK    5  A    between atoms: N_11  and  C_12 
REMARK    6  A    between atoms: C_12  and  C_13 
REMARK    7  A    between atoms: C_13  and  C_14 
REMARK    8  A    between atoms: C_14  and  N_15 
REMARK    9  A    between atoms: C_24  and  O_25 
REMARK   10  A    between atoms: C_26  and  C_27 
REMARK   11  A    between atoms: C_27  and  C_28 
REMARK   12  A    between atoms: C_32  and  O_33 
REMARK   13  A    between atoms: O_33  and  C_34 
REMARK   14  A    between atoms: C_34  and  C_35 
ROOT
HETATM    1  C   UNL     1      40.827 -11.419   4.738  1.00  0.00     0.161 C 
HETATM    2  N   UNL     1      40.542 -10.851   3.420  1.00  0.00    -0.333 N 
HETATM    3  C   UNL     1      39.700 -11.682   2.704  1.00  0.00     0.278 C 
HETATM    4  O   UNL     1      39.182 -11.468   1.623  1.00  0.00    -0.265 OA
HETATM    5  C   UNL     1      39.568 -12.944   3.453  1.00  0.00     0.146 C 
HETATM    6  C   UNL     1      40.245 -12.792   4.596  1.00  0.00     0.059 C 
ENDROOT
BRANCH   6   7
HETATM    7  C   UNL     1      40.534 -13.930   5.487  1.00  0.00     0.193 C 
HETATM    8  O   UNL     1      39.858 -14.114   6.495  1.00  0.00    -0.287 OA
BRANCH   7   9
HETATM    9  C   UNL     1      41.556 -14.933   5.101  1.00  0.00     0.015 A 
HETATM   10  C   UNL     1      41.902 -15.903   6.049  1.00  0.00     0.025 A 
HETATM   11  C   UNL     1      42.867 -16.878   5.758  1.00  0.00    -0.028 A 
HETATM   12  C   UNL     1      43.227 -17.902   6.801  1.00  0.00     0.051 C 
HETATM   13  C   UNL     1      43.486 -16.886   4.497  1.00  0.00     0.074 A 
HETATM   14  C   UNL     1      43.151 -15.906   3.556  1.00  0.00     0.038 A 
HETATM   15  C   UNL     1      42.197 -14.924   3.859  1.00  0.00     0.018 A 
BRANCH  13  16
HETATM   16  O   UNL     1      44.396 -17.886   4.304  1.00  0.00    -0.350 OA
BRANCH  16  17
HETATM   17  C   UNL     1      44.435 -18.547   3.042  1.00  0.00     0.179 C 
BRANCH  17  18
HETATM   18  C   UNL     1      43.532 -19.790   3.091  1.00  0.00     0.002 C 
HETATM   19  C   UNL     1      43.512 -20.512   1.742  1.00  0.00     0.011 C 
HETATM   20  C   UNL     1      43.969 -20.759   4.192  1.00  0.00     0.011 C 
ENDBRANCH  17  18
ENDBRANCH  16  17
ENDBRANCH  13  16
ENDBRANCH   7   9
ENDBRANCH   6   7
BRANCH   1  21
HETATM   21  C   UNL     1      42.287 -11.375   5.125  1.00  0.00    -0.028 A 
HETATM   22  C   UNL     1      43.313 -11.508   4.174  1.00  0.00     0.012 A 
HETATM   23  C   UNL     1      44.650 -11.505   4.572  1.00  0.00     0.040 A 
HETATM   24  C   UNL     1      44.961 -11.406   5.922  1.00  0.00     0.099 A 
HETATM   25  C   UNL     1      43.966 -11.320   6.895  1.00  0.00     0.102 A 
HETATM   26  C   UNL     1      42.631 -11.271   6.489  1.00  0.00     0.049 A 
BRANCH  24  27
HETATM   27  O   UNL     1      46.280 -11.425   6.281  1.00  0.00    -0.358 OA
HETATM   28  H   UNL     1      46.295 -11.204   7.233  1.00  0.00     0.218 HD
ENDBRANCH  24  27
BRANCH  25  29
HETATM   29  O   UNL     1      44.405 -11.285   8.193  1.00  0.00    -0.349 OA
BRANCH  29  30
HETATM   30  C   UNL     1      44.690  -9.988   8.724  1.00  0.00     0.171 C 
HETATM   31  C   UNL     1      44.947 -10.124  10.214  1.00  0.00     0.034 C 
ENDBRANCH  29  30
ENDBRANCH  25  29
ENDBRANCH   1  21
BRANCH   5  32
HETATM   32  O   UNL     1      38.903 -14.032   2.980  1.00  0.00    -0.355 OA
HETATM   33  H   UNL     1      39.067 -14.767   3.602  1.00  0.00     0.218 HD
ENDBRANCH   5  32
BRANCH   2  34
HETATM   34  C   UNL     1      40.717  -9.443   3.091  1.00  0.00     0.129 C 
BRANCH  34  35
HETATM   35  C   UNL     1      39.905  -8.480   3.960  1.00  0.00     0.048 C 
BRANCH  35  36
HETATM   36  C   UNL     1      40.663  -7.685   5.028  1.00  0.00     0.236 C 
BRANCH  36  37
HETATM   37  N   UNL     1      40.685  -8.264   6.425  1.00  0.00    -0.067 N 
HETATM   38  H   UNL     1      41.295  -9.090   6.339  1.00  0.00     0.280 HD
HETATM   39  C   UNL     1      41.376  -7.404   7.477  1.00  0.00     0.261 C 
HETATM   40  C   UNL     1      41.509  -8.201   8.783  1.00  0.00     0.195 C 
HETATM   41  O   UNL     1      40.234  -8.670   9.237  1.00  0.00    -0.388 OA
HETATM   42  C   UNL     1      39.608  -9.532   8.279  1.00  0.00     0.195 C 
HETATM   43  C   UNL     1      39.362  -8.794   6.957  1.00  0.00     0.261 C 
ENDBRANCH  36  37
ENDBRANCH  35  36
ENDBRANCH  34  35
ENDBRANCH   2  34
TORSDOF 14
ENDMDL
MODEL 7
REMARK VINA RESULT:      -7.8      3.499      7.749
REMARK  14 active torsions:
REMARK  status: ('A' for Active; 'I' for Inactive)
REMARK    1  A    between atoms: C_2  and  O_3 
REMARK    2  A    between atoms: O_3  and  C_4 
REMARK    3  A    between atoms: C_5  and  O_6 
REMARK    4  A    between atoms: C_9  and  C_10 
REMARK    5  A    between atoms: N_11  and  C_12 
REMARK    6  A    between atoms: C_12  and  C_13 
REMARK    7  A    between atoms: C_13  and  C_14 
REMARK    8  A    between atoms: C_14  and  N_15 
REMARK    9  A    between atoms: C_24  and  O_25 
REMARK   10  A    between atoms: C_26  and  C_27 
REMARK   11  A    between atoms: C_27  and  C_28 
REMARK   12  A    between atoms: C_32  and  O_33 
REMARK   13  A    between atoms: O_33  and  C_34 
REMARK   14  A    between atoms: C_34  and  C_35 
ROOT
HETATM    1  C   UNL     1      43.023 -13.591   5.638  1.00  0.00     0.161 C 
HETATM    2  N   UNL     1      42.960 -14.773   6.498  1.00  0.00    -0.333 N 
HETATM    3  C   UNL     1      41.646 -15.145   6.718  1.00  0.00     0.278 C 
HETATM    4  O   UNL     1      41.237 -16.137   7.295  1.00  0.00    -0.265 OA
HETATM    5  C   UNL     1      40.780 -14.083   6.177  1.00  0.00     0.146 C 
HETATM    6  C   UNL     1      41.582 -13.185   5.594  1.00  0.00     0.059 C 
ENDROOT
BRANCH   6   7
HETATM    7  C   UNL     1      41.087 -11.868   5.155  1.00  0.00     0.193 C 
HETATM    8  O   UNL     1      40.999 -10.941   5.955  1.00  0.00    -0.287 OA
BRANCH   7   9
HETATM    9  C   UNL     1      40.819 -11.619   3.717  1.00  0.00     0.015 A 
HETATM   10  C   UNL     1      39.483 -11.600   3.301  1.00  0.00     0.025 A 
HETATM   11  C   UNL     1      39.153 -11.380   1.957  1.00  0.00    -0.028 A 
HETATM   12  C   UNL     1      37.708 -11.375   1.536  1.00  0.00     0.051 C 
HETATM   13  C   UNL     1      40.177 -11.167   1.018  1.00  0.00     0.074 A 
HETATM   14  C   UNL     1      41.513 -11.203   1.432  1.00  0.00     0.038 A 
HETATM   15  C   UNL     1      41.836 -11.439   2.776  1.00  0.00     0.018 A 
BRANCH  13  16
HETATM   16  O   UNL     1      39.753 -10.942  -0.261  1.00  0.00    -0.350 OA
BRANCH  16  17
HETATM   17  C   UNL     1      40.312 -11.719  -1.317  1.00  0.00     0.179 C 
BRANCH  17  18
HETATM   18  C   UNL     1      39.529 -13.036  -1.449  1.00  0.00     0.002 C 
HETATM   19  C   UNL     1      38.077 -12.775  -1.856  1.00  0.00     0.011 C 
HETATM   20  C   UNL     1      40.188 -13.983  -2.454  1.00  0.00     0.011 C 
ENDBRANCH  17  18
ENDBRANCH  16  17
ENDBRANCH  13  16
ENDBRANCH   7   9
ENDBRANCH   6   7
BRANCH   1  21
HETATM   21  C   UNL     1      43.978 -12.526   6.125  1.00  0.00    -0.028 A 
HETATM   22  C   UNL     1      44.912 -11.916   5.269  1.00  0.00     0.012 A 
HETATM   23  C   UNL     1      45.806 -10.966   5.762  1.00  0.00     0.040 A 
HETATM   24  C   UNL     1      45.794 -10.652   7.115  1.00  0.00     0.099 A 
HETATM   25  C   UNL     1      44.911 -11.273   7.999  1.00  0.00     0.102 A 
HETATM   26  C   UNL     1      43.984 -12.185   7.494  1.00  0.00     0.049 A 
BRANCH  24  27
HETATM   27  O   UNL     1      46.695  -9.731   7.570  1.00  0.00    -0.358 OA
HETATM   28  H   UNL     1      47.103 -10.133   8.362  1.00  0.00     0.218 HD
ENDBRANCH  24  27
BRANCH  25  29
HETATM   29  O   UNL     1      45.041 -10.916   9.316  1.00  0.00    -0.349 OA
BRANCH  29  30
HETATM   30  C   UNL     1      44.095  -9.959   9.803  1.00  0.00     0.171 C 
HETATM   31  C   UNL     1      43.463 -10.507  11.069  1.00  0.00     0.034 C 
ENDBRANCH  29  30
ENDBRANCH  25  29
ENDBRANCH   1  21
BRANCH   5  32
HETATM   32  O   UNL     1      39.429 -14.067   6.325  1.00  0.00    -0.355 OA
HETATM   33  H   UNL     1      39.130 -13.148   6.181  1.00  0.00     0.218 HD
ENDBRANCH   5  32
BRANCH   2  34
HETATM   34  C   UNL     1      44.076 -15.687   6.699  1.00  0.00     0.129 C 
BRANCH  34  35
HETATM   35  C   UNL     1      43.870 -17.084   6.109  1.00  0.00     0.048 C 
BRANCH  35  36
HETATM   36  C   UNL     1      43.843 -17.207   4.583  1.00  0.00     0.236 C 
BRANCH  36  37
HETATM   37  N   UNL     1      43.595 -18.586   4.011  1.00  0.00    -0.067 N 
HETATM   38  H   UNL     1      42.605 -18.767   4.228  1.00  0.00     0.280 HD
HETATM   39  C   UNL     1      43.665 -18.685   2.492  1.00  0.00     0.261 C 
HETATM   40  C   UNL     1      43.190 -20.075   2.048  1.00  0.00     0.195 C 
HETATM   41  O   UNL     1      43.952 -21.111   2.681  1.00  0.00    -0.388 OA
HETATM   42  C   UNL     1      43.837 -21.063   4.107  1.00  0.00     0.195 C 
HETATM   43  C   UNL     1      44.364 -19.730   4.654  1.00  0.00     0.261 C 
ENDBRANCH  36  37
ENDBRANCH  35  36
ENDBRANCH  34  35
ENDBRANCH   2  34
TORSDOF 14
ENDMDL
MODEL 8
REMARK VINA RESULT:      -7.6      3.279      7.122
REMARK  14 active torsions:
REMARK  status: ('A' for Active; 'I' for Inactive)
REMARK    1  A    between atoms: C_2  and  O_3 
REMARK    2  A    between atoms: O_3  and  C_4 
REMARK    3  A    between atoms: C_5  and  O_6 
REMARK    4  A    between atoms: C_9  and  C_10 
REMARK    5  A    between atoms: N_11  and  C_12 
REMARK    6  A    between atoms: C_12  and  C_13 
REMARK    7  A    between atoms: C_13  and  C_14 
REMARK    8  A    between atoms: C_14  and  N_15 
REMARK    9  A    between atoms: C_24  and  O_25 
REMARK   10  A    between atoms: C_26  and  C_27 
REMARK   11  A    between atoms: C_27  and  C_28 
REMARK   12  A    between atoms: C_32  and  O_33 
REMARK   13  A    between atoms: O_33  and  C_34 
REMARK   14  A    between atoms: C_34  and  C_35 
ROOT
HETATM    1  C   UNL     1      42.758 -13.489   5.514  1.00  0.00     0.161 C 
HETATM    2  N   UNL     1      42.573 -14.661   6.369  1.00  0.00    -0.333 N 
HETATM    3  C   UNL     1      41.227 -14.913   6.564  1.00  0.00     0.278 C 
HETATM    4  O   UNL     1      40.720 -15.865   7.131  1.00  0.00    -0.265 OA
HETATM    5  C   UNL     1      40.471 -13.778   6.011  1.00  0.00     0.146 C 
HETATM    6  C   UNL     1      41.360 -12.954   5.445  1.00  0.00     0.059 C 
ENDROOT
BRANCH   6   7
HETATM    7  C   UNL     1      40.994 -11.597   5.001  1.00  0.00     0.193 C 
HETATM    8  O   UNL     1      40.880 -10.688   5.817  1.00  0.00    -0.287 OA
BRANCH   7   9
HETATM    9  C   UNL     1      40.892 -11.295   3.552  1.00  0.00     0.015 A 
HETATM   10  C   UNL     1      39.683 -11.594   2.912  1.00  0.00     0.025 A 
HETATM   11  C   UNL     1      39.516 -11.345   1.543  1.00  0.00    -0.028 A 
HETATM   12  C   UNL     1      38.210 -11.688   0.878  1.00  0.00     0.051 C 
HETATM   13  C   UNL     1      40.571 -10.778   0.808  1.00  0.00     0.074 A 
HETATM   14  C   UNL     1      41.784 -10.495   1.446  1.00  0.00     0.038 A 
HETATM   15  C   UNL     1      41.950 -10.762   2.812  1.00  0.00     0.018 A 
BRANCH  13  16
HETATM   16  O   UNL     1      40.303 -10.556  -0.513  1.00  0.00    -0.350 OA
BRANCH  16  17
HETATM   17  C   UNL     1      41.193 -11.083  -1.494  1.00  0.00     0.179 C 
BRANCH  17  18
HETATM   18  C   UNL     1      40.415 -12.011  -2.441  1.00  0.00     0.002 C 
HETATM   19  C   UNL     1      40.236 -13.402  -1.828  1.00  0.00     0.011 C 
HETATM   20  C   UNL     1      39.049 -11.425  -2.804  1.00  0.00     0.011 C 
ENDBRANCH  17  18
ENDBRANCH  16  17
ENDBRANCH  13  16
ENDBRANCH   7   9
ENDBRANCH   6   7
BRANCH   1  21
HETATM   21  C   UNL     1      43.796 -12.514   6.021  1.00  0.00    -0.028 A 
HETATM   22  C   UNL     1      44.804 -11.999   5.187  1.00  0.00     0.012 A 
HETATM   23  C   UNL     1      45.770 -11.134   5.699  1.00  0.00     0.040 A 
HETATM   24  C   UNL     1      45.754 -10.812   7.050  1.00  0.00     0.099 A 
HETATM   25  C   UNL     1      44.795 -11.343   7.914  1.00  0.00     0.102 A 
HETATM   26  C   UNL     1      43.799 -12.167   7.388  1.00  0.00     0.049 A 
BRANCH  24  27
HETATM   27  O   UNL     1      46.726  -9.977   7.524  1.00  0.00    -0.358 OA
HETATM   28  H   UNL     1      46.758 -10.133   8.489  1.00  0.00     0.218 HD
ENDBRANCH  24  27
BRANCH  25  29
HETATM   29  O   UNL     1      44.924 -10.991   9.232  1.00  0.00    -0.349 OA
BRANCH  29  30
HETATM   30  C   UNL     1      43.818 -10.288   9.805  1.00  0.00     0.171 C 
HETATM   31  C   UNL     1      44.348  -9.333  10.858  1.00  0.00     0.034 C 
ENDBRANCH  29  30
ENDBRANCH  25  29
ENDBRANCH   1  21
BRANCH   5  32
HETATM   32  O   UNL     1      39.123 -13.640   6.134  1.00  0.00    -0.355 OA
HETATM   33  H   UNL     1      38.777 -14.476   6.501  1.00  0.00     0.218 HD
ENDBRANCH   5  32
BRANCH   2  34
HETATM   34  C   UNL     1      43.598 -15.672   6.588  1.00  0.00     0.129 C 
BRANCH  34  35
HETATM   35  C   UNL     1      43.453 -16.925   5.722  1.00  0.00     0.048 C 
BRANCH  35  36
HETATM   36  C   UNL     1      43.705 -16.776   4.218  1.00  0.00     0.236 C 
BRANCH  36  37
HETATM   37  N   UNL     1      42.744 -15.900   3.447  1.00  0.00    -0.067 N 
HETATM   38  H   UNL     1      42.607 -15.085   4.062  1.00  0.00     0.280 HD
HETATM   39  C   UNL     1      43.296 -15.301   2.158  1.00  0.00     0.261 C 
HETATM   40  C   UNL     1      42.297 -14.279   1.599  1.00  0.00     0.195 C 
HETATM   41  O   UNL     1      41.007 -14.870   1.398  1.00  0.00    -0.388 OA
HETATM   42  C   UNL     1      40.453 -15.376   2.618  1.00  0.00     0.195 C 
HETATM   43  C   UNL     1      41.351 -16.467   3.214  1.00  0.00     0.261 C 
ENDBRANCH  36  37
ENDBRANCH  35  36
ENDBRANCH  34  35
ENDBRANCH   2  34
TORSDOF 14
ENDMDL
MODEL 9
REMARK VINA RESULT:      -7.6      3.117      6.365
REMARK  14 active torsions:
REMARK  status: ('A' for Active; 'I' for Inactive)
REMARK    1  A    between atoms: C_2  and  O_3 
REMARK    2  A    between atoms: O_3  and  C_4 
REMARK    3  A    between atoms: C_5  and  O_6 
REMARK    4  A    between atoms: C_9  and  C_10 
REMARK    5  A    between atoms: N_11  and  C_12 
REMARK    6  A    between atoms: C_12  and  C_13 
REMARK    7  A    between atoms: C_13  and  C_14 
REMARK    8  A    between atoms: C_14  and  N_15 
REMARK    9  A    between atoms: C_24  and  O_25 
REMARK   10  A    between atoms: C_26  and  C_27 
REMARK   11  A    between atoms: C_27  and  C_28 
REMARK   12  A    between atoms: C_32  and  O_33 
REMARK   13  A    between atoms: O_33  and  C_34 
REMARK   14  A    between atoms: C_34  and  C_35 
ROOT
HETATM    1  C   UNL     1      40.646 -14.650   3.347  1.00  0.00     0.161 C 
HETATM    2  N   UNL     1      41.369 -15.561   2.460  1.00  0.00    -0.333 N 
HETATM    3  C   UNL     1      41.943 -16.591   3.184  1.00  0.00     0.278 C 
HETATM    4  O   UNL     1      42.521 -17.574   2.756  1.00  0.00    -0.265 OA
HETATM    5  C   UNL     1      41.793 -16.274   4.615  1.00  0.00     0.146 C 
HETATM    6  C   UNL     1      41.082 -15.144   4.692  1.00  0.00     0.059 C 
ENDROOT
BRANCH   6   7
HETATM    7  C   UNL     1      40.940 -14.398   5.955  1.00  0.00     0.193 C 
HETATM    8  O   UNL     1      40.055 -14.692   6.752  1.00  0.00    -0.287 OA
BRANCH   7   9
HETATM    9  C   UNL     1      41.948 -13.376   6.329  1.00  0.00     0.015 A 
HETATM   10  C   UNL     1      41.566 -12.031   6.253  1.00  0.00     0.025 A 
HETATM   11  C   UNL     1      42.468 -11.010   6.582  1.00  0.00    -0.028 A 
HETATM   12  C   UNL     1      42.033  -9.573   6.480  1.00  0.00     0.051 C 
HETATM   13  C   UNL     1      43.767 -11.342   7.001  1.00  0.00     0.074 A 
HETATM   14  C   UNL     1      44.153 -12.685   7.060  1.00  0.00     0.038 A 
HETATM   15  C   UNL     1      43.251 -13.701   6.715  1.00  0.00     0.018 A 
BRANCH  13  16
HETATM   16  O   UNL     1      44.564 -10.277   7.317  1.00  0.00    -0.350 OA
BRANCH  16  17
HETATM   17  C   UNL     1      45.599 -10.455   8.280  1.00  0.00     0.179 C 
BRANCH  17  18
HETATM   18  C   UNL     1      45.448  -9.402   9.390  1.00  0.00     0.002 C 
HETATM   19  C   UNL     1      44.696  -8.169   8.882  1.00  0.00     0.011 C 
HETATM   20  C   UNL     1      44.735  -9.976  10.616  1.00  0.00     0.011 C 
ENDBRANCH  17  18
ENDBRANCH  16  17
ENDBRANCH  13  16
ENDBRANCH   7   9
ENDBRANCH   6   7
BRANCH   1  21
HETATM   21  C   UNL     1      40.918 -13.187   3.080  1.00  0.00    -0.028 A 
HETATM   22  C   UNL     1      42.216 -12.702   2.845  1.00  0.00     0.012 A 
HETATM   23  C   UNL     1      42.435 -11.340   2.644  1.00  0.00     0.040 A 
HETATM   24  C   UNL     1      41.365 -10.457   2.714  1.00  0.00     0.099 A 
HETATM   25  C   UNL     1      40.072 -10.900   2.992  1.00  0.00     0.102 A 
HETATM   26  C   UNL     1      39.848 -12.269   3.142  1.00  0.00     0.049 A 
BRANCH  24  27
HETATM   27  O   UNL     1      41.616  -9.126   2.532  1.00  0.00    -0.358 OA
HETATM   28  H   UNL     1      40.738  -8.701   2.463  1.00  0.00     0.218 HD
ENDBRANCH  24  27
BRANCH  25  29
HETATM   29  O   UNL     1      39.117  -9.922   3.090  1.00  0.00    -0.349 OA
BRANCH  29  30
HETATM   30  C   UNL     1      39.069  -9.214   4.333  1.00  0.00     0.171 C 
HETATM   31  C   UNL     1      38.353 -10.080   5.353  1.00  0.00     0.034 C 
ENDBRANCH  29  30
ENDBRANCH  25  29
ENDBRANCH   1  21
BRANCH   5  32
HETATM   32  O   UNL     1      42.347 -17.017   5.611  1.00  0.00    -0.355 OA
HETATM   33  H   UNL     1      42.370 -16.459   6.412  1.00  0.00     0.218 HD
ENDBRANCH   5  32
BRANCH   2  34
HETATM   34  C   UNL     1      41.135 -15.650   1.026  1.00  0.00     0.129 C 
BRANCH  34  35
HETATM   35  C   UNL     1      39.823 -15.020   0.554  1.00  0.00     0.048 C 
BRANCH  35  36
HETATM   36  C   UNL     1      39.718 -14.636  -0.925  1.00  0.00     0.236 C 
BRANCH  36  37
HETATM   37  N   UNL     1      40.483 -13.410  -1.372  1.00  0.00    -0.067 N 
HETATM   38  H   UNL     1      41.470 -13.683  -1.262  1.00  0.00     0.280 HD
HETATM   39  C   UNL     1      40.358 -13.065  -2.851  1.00  0.00     0.261 C 
HETATM   40  C   UNL     1      41.343 -11.940  -3.199  1.00  0.00     0.195 C 
HETATM   41  O   UNL     1      41.133 -10.792  -2.369  1.00  0.00    -0.388 OA
HETATM   42  C   UNL     1      41.314 -11.095  -0.980  1.00  0.00     0.195 C 
HETATM   43  C   UNL     1      40.313 -12.162  -0.519  1.00  0.00     0.261 C 
ENDBRANCH  36  37
ENDBRANCH  35  36
ENDBRANCH  34  35
ENDBRANCH   2  34
TORSDOF 14
ENDMDL
MODEL 10
REMARK VINA RESULT:      -7.5      2.235      3.743
REMARK  14 active torsions:
REMARK  status: ('A' for Active; 'I' for Inactive)
REMARK    1  A    between atoms: C_2  and  O_3 
REMARK    2  A    between atoms: O_3  and  C_4 
REMARK    3  A    between atoms: C_5  and  O_6 
REMARK    4  A    between atoms: C_9  and  C_10 
REMARK    5  A    between atoms: N_11  and  C_12 
REMARK    6  A    between atoms: C_12  and  C_13 
REMARK    7  A    between atoms: C_13  and  C_14 
REMARK    8  A    between atoms: C_14  and  N_15 
REMARK    9  A    between atoms: C_24  and  O_25 
REMARK   10  A    between atoms: C_26  and  C_27 
REMARK   11  A    between atoms: C_27  and  C_28 
REMARK   12  A    between atoms: C_32  and  O_33 
REMARK   13  A    between atoms: O_33  and  C_34 
REMARK   14  A    between atoms: C_34  and  C_35 
ROOT
HETATM    1  C   UNL     1      39.972 -12.108   1.535  1.00  0.00     0.161 C 
HETATM    2  N   UNL     1      40.587 -10.888   1.012  1.00  0.00    -0.333 N 
HETATM    3  C   UNL     1      40.997 -11.073  -0.296  1.00  0.00     0.278 C 
HETATM    4  O   UNL     1      41.448 -10.240  -1.063  1.00  0.00    -0.265 OA
HETATM    5  C   UNL     1      40.856 -12.504  -0.615  1.00  0.00     0.146 C 
HETATM    6  C   UNL     1      40.302 -13.089   0.452  1.00  0.00     0.059 C 
ENDROOT
BRANCH   6   7
HETATM    7  C   UNL     1      40.230 -14.555   0.588  1.00  0.00     0.193 C 
HETATM    8  O   UNL     1      39.457 -15.204  -0.110  1.00  0.00    -0.287 OA
BRANCH   7   9
HETATM    9  C   UNL     1      41.187 -15.264   1.472  1.00  0.00     0.015 A 
HETATM   10  C   UNL     1      40.718 -15.698   2.718  1.00  0.00     0.025 A 
HETATM   11  C   UNL     1      41.567 -16.367   3.610  1.00  0.00    -0.028 A 
HETATM   12  C   UNL     1      41.038 -16.812   4.948  1.00  0.00     0.051 C 
HETATM   13  C   UNL     1      42.901 -16.613   3.245  1.00  0.00     0.074 A 
HETATM   14  C   UNL     1      43.373 -16.165   2.007  1.00  0.00     0.038 A 
HETATM   15  C   UNL     1      42.523 -15.482   1.126  1.00  0.00     0.018 A 
BRANCH  13  16
HETATM   16  O   UNL     1      43.641 -17.289   4.175  1.00  0.00    -0.350 OA
BRANCH  16  17
HETATM   17  C   UNL     1      44.462 -18.371   3.745  1.00  0.00     0.179 C 
BRANCH  17  18
HETATM   18  C   UNL     1      43.593 -19.626   3.561  1.00  0.00     0.002 C 
HETATM   19  C   UNL     1      43.657 -20.135   2.119  1.00  0.00     0.011 C 
HETATM   20  C   UNL     1      44.006 -20.742   4.523  1.00  0.00     0.011 C 
ENDBRANCH  17  18
ENDBRANCH  16  17
ENDBRANCH  13  16
ENDBRANCH   7   9
ENDBRANCH   6   7
BRANCH   1  21
HETATM   21  C   UNL     1      40.445 -12.492   2.918  1.00  0.00    -0.028 A 
HETATM   22  C   UNL     1      39.546 -12.784   3.958  1.00  0.00     0.012 A 
HETATM   23  C   UNL     1      40.018 -13.094   5.233  1.00  0.00     0.040 A 
HETATM   24  C   UNL     1      41.384 -13.076   5.480  1.00  0.00     0.099 A 
HETATM   25  C   UNL     1      42.301 -12.745   4.482  1.00  0.00     0.102 A 
HETATM   26  C   UNL     1      41.829 -12.486   3.195  1.00  0.00     0.049 A 
BRANCH  24  27
HETATM   27  O   UNL     1      41.814 -13.366   6.745  1.00  0.00    -0.358 OA
HETATM   28  H   UNL     1      42.437 -14.113   6.645  1.00  0.00     0.218 HD
ENDBRANCH  24  27
BRANCH  25  29
HETATM   29  O   UNL     1      43.615 -12.709   4.870  1.00  0.00    -0.349 OA
BRANCH  29  30
HETATM   30  C   UNL     1      44.151 -11.412   5.150  1.00  0.00     0.171 C 
HETATM   31  C   UNL     1      45.084 -11.524   6.341  1.00  0.00     0.034 C 
ENDBRANCH  29  30
ENDBRANCH  25  29
ENDBRANCH   1  21
BRANCH   5  32
HETATM   32  O   UNL     1      41.278 -13.059  -1.783  1.00  0.00    -0.355 OA
HETATM   33  H   UNL     1      41.033 -14.004  -1.761  1.00  0.00     0.218 HD
ENDBRANCH   5  32
BRANCH   2  34
HETATM   34  C   UNL     1      40.379  -9.566   1.587  1.00  0.00     0.129 C 
BRANCH  34  35
HETATM   35  C   UNL     1      39.036  -8.923   1.237  1.00  0.00     0.048 C 
BRANCH  35  36
HETATM   36  C   UNL     1      39.065  -7.639   0.403  1.00  0.00     0.236 C 
BRANCH  36  37
HETATM   37  N   UNL     1      39.787  -7.701  -0.925  1.00  0.00    -0.067 N 
HETATM   38  H   UNL     1      40.333  -8.571  -0.866  1.00  0.00     0.280 HD
HETATM   39  C   UNL     1      38.895  -7.906  -2.144  1.00  0.00     0.261 C 
HETATM   40  C   UNL     1      39.769  -8.159  -3.380  1.00  0.00     0.195 C 
HETATM   41  O   UNL     1      40.704  -7.092  -3.582  1.00  0.00    -0.388 OA
HETATM   42  C   UNL     1      41.589  -6.938  -2.467  1.00  0.00     0.195 C 
HETATM   43  C   UNL     1      40.806  -6.603  -1.190  1.00  0.00     0.261 C 
ENDBRANCH  36  37
ENDBRANCH  35  36
ENDBRANCH  34  35
ENDBRANCH   2  34
TORSDOF 14
ENDMDL
