MODEL 1
REMARK VINA RESULT:      -9.0      0.000      0.000
REMARK  10 active torsions:
REMARK  status: ('A' for Active; 'I' for Inactive)
REMARK    1  A    between atoms: C_6  and  N_7 
REMARK    2  A    between atoms: C_6  and  C_29 
REMARK       I    between atoms: N_7  and  C_8 
REMARK    3  A    between atoms: N_7  and  C_23 
REMARK    4  A    between atoms: C_8  and  C_9 
REMARK    5  A    between atoms: C_9  and  N_10 
REMARK    6  A    between atoms: C_14  and  C_15 
REMARK    7  A    between atoms: C_23  and  C_24 
REMARK       I    between atoms: C_29  and  N_30 
REMARK    8  A    between atoms: N_30  and  C_31 
REMARK    9  A    between atoms: C_32  and  O_33 
REMARK   10  A    between atoms: C_36  and  O_37 
ROOT
HETATM    1  N   UNL     1      40.820 -11.716   3.247  1.00  0.00    -0.326 N 
HETATM    2  C   UNL     1      40.947 -10.936   2.086  1.00  0.00     0.239 C 
HETATM    3  O   UNL     1      41.979 -10.933   1.420  1.00  0.00    -0.271 OA
ENDROOT
BRANCH   1   4
HETATM    4  C   UNL     1      42.019 -12.015   4.109  1.00  0.00     0.120 C 
HETATM    5  C   UNL     1      42.981 -10.817   4.231  1.00  0.00     0.069 C 
HETATM    6  C   UNL     1      44.188 -11.122   5.112  1.00  0.00     0.237 C 
HETATM    7  N   UNL     1      43.748 -11.574   6.474  1.00  0.00    -0.075 N 
HETATM    8  C   UNL     1      44.931 -11.845   7.370  1.00  0.00     0.269 C 
HETATM    9  H   UNL     1      43.229 -10.797   6.912  1.00  0.00     0.279 HD
HETATM   10  C   UNL     1      42.809 -12.758   6.437  1.00  0.00     0.237 C 
HETATM   11  C   UNL     1      41.606 -12.409   5.569  1.00  0.00     0.069 C 
BRANCH   4  12
HETATM   12  C   UNL     1      42.679 -13.318   3.526  1.00  0.00     0.251 C 
HETATM   13  N   UNL     1      42.373 -14.505   4.154  1.00  0.00    -0.323 N 
HETATM   14  H   UNL     1      41.713 -14.543   4.922  1.00  0.00     0.169 HD
HETATM   15  O   UNL     1      43.440 -13.227   2.563  1.00  0.00    -0.270 OA
BRANCH  13  16
HETATM   16  C   UNL     1      42.853 -15.794   3.809  1.00  0.00     0.068 A 
HETATM   17  C   UNL     1      43.433 -16.555   4.845  1.00  0.00     0.097 A 
HETATM   18  C   UNL     1      43.912 -17.848   4.583  1.00  0.00     0.075 A 
HETATM   19  C   UNL     1      43.818 -18.380   3.296  1.00  0.00     0.070 A 
HETATM   20  C   UNL     1      43.268 -17.612   2.272  1.00  0.00     0.039 A 
HETATM   21  C   UNL     1      42.784 -16.328   2.523  1.00  0.00     0.035 A 
BRANCH  17  22
HETATM   22  O   UNL     1      43.445 -15.940   6.079  1.00  0.00    -0.354 OA
HETATM   23  C   UNL     1      42.750 -16.603   7.132  1.00  0.00     0.210 C 
ENDBRANCH  17  22
BRANCH  19  24
HETATM   24  O   UNL     1      44.234 -19.623   2.905  1.00  0.00    -0.356 OA
HETATM   25  C   UNL     1      43.444 -20.302   1.938  1.00  0.00     0.210 C 
ENDBRANCH  19  24
ENDBRANCH  13  16
ENDBRANCH   4  12
ENDBRANCH   1   4
BRANCH   1  26
HETATM   26  C   UNL     1      39.702 -12.669   3.214  1.00  0.00     0.192 C 
BRANCH  26  27
HETATM   27  C   UNL     1      39.823 -13.693   2.152  1.00  0.00     0.070 A 
HETATM   28  O   UNL     1      39.643 -14.975   2.587  1.00  0.00    -0.325 OA
HETATM   29  C   UNL     1      39.794 -15.789   1.514  1.00  0.00     0.142 A 
HETATM   30  C   UNL     1      40.065 -15.049   0.388  1.00  0.00     0.027 A 
HETATM   31  C   UNL     1      40.088 -13.695   0.798  1.00  0.00     0.036 A 
ENDBRANCH  26  27
ENDBRANCH   1  26
BRANCH   2  32
HETATM   32  C   UNL     1      39.731 -10.021   1.812  1.00  0.00     0.228 C 
BRANCH  32  33
HETATM   33  N   UNL     1      39.269 -10.006   0.436  1.00  0.00    -0.347 N 
HETATM   34  C   UNL     1      37.999  -9.690  -0.034  1.00  0.00     0.171 C 
HETATM   35  S   UNL     1      36.662  -9.223   0.820  1.00  0.00    -0.041 SA
HETATM   36  N   UNL     1      37.999  -9.859  -1.410  1.00  0.00    -0.357 N 
HETATM   37  C   UNL     1      39.249 -10.412  -1.885  1.00  0.00     0.135 C 
HETATM   38  H   UNL     1      37.150  -9.808  -1.959  1.00  0.00     0.162 HD
HETATM   39  C   UNL     1      40.180 -10.244  -0.673  1.00  0.00     0.155 C 
BRANCH  37  40
HETATM   40  C   UNL     1      39.125 -11.859  -2.321  1.00  0.00    -0.034 A 
HETATM   41  C   UNL     1      40.282 -12.583  -2.650  1.00  0.00     0.009 A 
HETATM   42  C   UNL     1      40.205 -13.931  -3.010  1.00  0.00     0.001 A 
HETATM   43  C   UNL     1      38.972 -14.576  -3.044  1.00  0.00     0.000 A 
HETATM   44  C   UNL     1      37.814 -13.874  -2.718  1.00  0.00     0.001 A 
HETATM   45  C   UNL     1      37.889 -12.528  -2.357  1.00  0.00     0.009 A 
ENDBRANCH  37  40
ENDBRANCH  32  33
ENDBRANCH   2  32
TORSDOF 10
ENDMDL
MODEL 2
REMARK VINA RESULT:      -9.0      2.350      7.614
REMARK  10 active torsions:
REMARK  status: ('A' for Active; 'I' for Inactive)
REMARK    1  A    between atoms: C_6  and  N_7 
REMARK    2  A    between atoms: C_6  and  C_29 
REMARK       I    between atoms: N_7  and  C_8 
REMARK    3  A    between atoms: N_7  and  C_23 
REMARK    4  A    between atoms: C_8  and  C_9 
REMARK    5  A    between atoms: C_9  and  N_10 
REMARK    6  A    between atoms: C_14  and  C_15 
REMARK    7  A    between atoms: C_23  and  C_24 
REMARK       I    between atoms: C_29  and  N_30 
REMARK    8  A    between atoms: N_30  and  C_31 
REMARK    9  A    between atoms: C_32  and  O_33 
REMARK   10  A    between atoms: C_36  and  O_37 
ROOT
HETATM    1  N   UNL     1      40.917 -12.182   4.577  1.00  0.00    -0.326 N 
HETATM    2  C   UNL     1      41.861 -13.035   3.982  1.00  0.00     0.239 C 
HETATM    3  O   UNL     1      42.577 -12.661   3.057  1.00  0.00    -0.271 OA
ENDROOT
BRANCH   1   4
HETATM    4  C   UNL     1      40.240 -11.102   3.773  1.00  0.00     0.120 C 
HETATM    5  C   UNL     1      39.214 -10.299   4.596  1.00  0.00     0.069 C 
HETATM    6  C   UNL     1      38.539  -9.200   3.779  1.00  0.00     0.237 C 
HETATM    7  N   UNL     1      39.563  -8.278   3.185  1.00  0.00    -0.075 N 
HETATM    8  C   UNL     1      38.910  -7.165   2.404  1.00  0.00     0.269 C 
HETATM    9  H   UNL     1      40.069  -7.825   3.962  1.00  0.00     0.279 HD
HETATM   10  C   UNL     1      40.601  -8.994   2.350  1.00  0.00     0.237 C 
HETATM   11  C   UNL     1      41.270 -10.066   3.204  1.00  0.00     0.069 C 
BRANCH   4  12
HETATM   12  C   UNL     1      39.642 -11.799   2.496  1.00  0.00     0.251 C 
HETATM   13  N   UNL     1      40.381 -11.711   1.337  1.00  0.00    -0.323 N 
HETATM   14  H   UNL     1      41.290 -11.264   1.319  1.00  0.00     0.169 HD
HETATM   15  O   UNL     1      38.555 -12.368   2.577  1.00  0.00    -0.270 OA
BRANCH  13  16
HETATM   16  C   UNL     1      40.038 -12.253   0.072  1.00  0.00     0.068 A 
HETATM   17  C   UNL     1      39.333 -11.409  -0.812  1.00  0.00     0.097 A 
HETATM   18  C   UNL     1      38.977 -11.869  -2.089  1.00  0.00     0.075 A 
HETATM   19  C   UNL     1      39.317 -13.165  -2.485  1.00  0.00     0.070 A 
HETATM   20  C   UNL     1      39.990 -14.001  -1.596  1.00  0.00     0.039 A 
HETATM   21  C   UNL     1      40.353 -13.551  -0.327  1.00  0.00     0.035 A 
BRANCH  17  22
HETATM   22  O   UNL     1      39.077 -10.144  -0.325  1.00  0.00    -0.354 OA
HETATM   23  C   UNL     1      37.709  -9.808  -0.105  1.00  0.00     0.210 C 
ENDBRANCH  17  22
BRANCH  19  24
HETATM   24  O   UNL     1      39.042 -13.736  -3.696  1.00  0.00    -0.356 OA
HETATM   25  C   UNL     1      38.143 -14.836  -3.711  1.00  0.00     0.210 C 
ENDBRANCH  19  24
ENDBRANCH  13  16
ENDBRANCH   4  12
ENDBRANCH   1   4
BRANCH   1  26
HETATM   26  C   UNL     1      41.102 -11.992   6.023  1.00  0.00     0.192 C 
BRANCH  26  27
HETATM   27  C   UNL     1      42.473 -11.581   6.399  1.00  0.00     0.070 A 
HETATM   28  O   UNL     1      43.220 -12.575   6.964  1.00  0.00    -0.325 OA
HETATM   29  C   UNL     1      44.433 -12.048   7.261  1.00  0.00     0.142 A 
HETATM   30  C   UNL     1      44.483 -10.726   6.890  1.00  0.00     0.027 A 
HETATM   31  C   UNL     1      43.216 -10.420   6.336  1.00  0.00     0.036 A 
ENDBRANCH  26  27
ENDBRANCH   1  26
BRANCH   2  32
HETATM   32  C   UNL     1      41.818 -14.485   4.521  1.00  0.00     0.228 C 
BRANCH  32  33
HETATM   33  N   UNL     1      42.177 -15.509   3.557  1.00  0.00    -0.347 N 
HETATM   34  C   UNL     1      41.355 -16.116   2.612  1.00  0.00     0.171 C 
HETATM   35  S   UNL     1      39.756 -15.841   2.297  1.00  0.00    -0.041 SA
HETATM   36  N   UNL     1      42.107 -17.070   1.943  1.00  0.00    -0.357 N 
HETATM   37  C   UNL     1      43.431 -17.208   2.512  1.00  0.00     0.135 C 
HETATM   38  H   UNL     1      41.690 -17.726   1.295  1.00  0.00     0.162 HD
HETATM   39  C   UNL     1      43.550 -15.965   3.408  1.00  0.00     0.155 C 
BRANCH  37  40
HETATM   40  C   UNL     1      43.607 -18.499   3.288  1.00  0.00    -0.034 A 
HETATM   41  C   UNL     1      43.576 -19.725   2.604  1.00  0.00     0.009 A 
HETATM   42  C   UNL     1      43.783 -20.929   3.283  1.00  0.00     0.001 A 
HETATM   43  C   UNL     1      44.025 -20.924   4.654  1.00  0.00     0.000 A 
HETATM   44  C   UNL     1      44.062 -19.718   5.348  1.00  0.00     0.001 A 
HETATM   45  C   UNL     1      43.858 -18.514   4.670  1.00  0.00     0.009 A 
ENDBRANCH  37  40
ENDBRANCH  32  33
ENDBRANCH   2  32
TORSDOF 10
ENDMDL
MODEL 3
REMARK VINA RESULT:      -8.9      3.559      8.134
REMARK  10 active torsions:
REMARK  status: ('A' for Active; 'I' for Inactive)
REMARK    1  A    between atoms: C_6  and  N_7 
REMARK    2  A    between atoms: C_6  and  C_29 
REMARK       I    between atoms: N_7  and  C_8 
REMARK    3  A    between atoms: N_7  and  C_23 
REMARK    4  A    between atoms: C_8  and  C_9 
REMARK    5  A    between atoms: C_9  and  N_10 
REMARK    6  A    between atoms: C_14  and  C_15 
REMARK    7  A    between atoms: C_23  and  C_24 
REMARK       I    between atoms: C_29  and  N_30 
REMARK    8  A    between atoms: N_30  and  C_31 
REMARK    9  A    between atoms: C_32  and  O_33 
REMARK   10  A    between atoms: C_36  and  O_37 
ROOT
HETATM    1  N   UNL     1      41.361 -11.745   5.060  1.00  0.00    -0.326 N 
HETATM    2  C   UNL     1      42.562 -11.092   5.383  1.00  0.00     0.239 C 
HETATM    3  O   UNL     1      43.148 -10.380   4.572  1.00  0.00    -0.271 OA
ENDROOT
BRANCH   1   4
HETATM    4  C   UNL     1      41.086 -12.195   3.648  1.00  0.00     0.120 C 
HETATM    5  C   UNL     1      39.590 -12.464   3.389  1.00  0.00     0.069 C 
HETATM    6  C   UNL     1      39.315 -12.909   1.956  1.00  0.00     0.237 C 
HETATM    7  N   UNL     1      39.837 -11.896   0.978  1.00  0.00    -0.075 N 
HETATM    8  C   UNL     1      39.540 -12.304  -0.444  1.00  0.00     0.269 C 
HETATM    9  H   UNL     1      39.326 -11.013   1.135  1.00  0.00     0.279 HD
HETATM   10  C   UNL     1      41.305 -11.588   1.162  1.00  0.00     0.237 C 
HETATM   11  C   UNL     1      41.538 -11.125   2.596  1.00  0.00     0.069 C 
BRANCH   4  12
HETATM   12  C   UNL     1      42.022 -13.429   3.377  1.00  0.00     0.251 C 
HETATM   13  N   UNL     1      41.552 -14.663   3.766  1.00  0.00    -0.323 N 
HETATM   14  H   UNL     1      40.626 -14.778   4.162  1.00  0.00     0.169 HD
HETATM   15  O   UNL     1      43.120 -13.245   2.853  1.00  0.00    -0.270 OA
BRANCH  13  16
HETATM   16  C   UNL     1      42.222 -15.906   3.628  1.00  0.00     0.068 A 
HETATM   17  C   UNL     1      42.910 -16.387   4.762  1.00  0.00     0.097 A 
HETATM   18  C   UNL     1      43.579 -17.619   4.707  1.00  0.00     0.075 A 
HETATM   19  C   UNL     1      43.568 -18.368   3.529  1.00  0.00     0.070 A 
HETATM   20  C   UNL     1      42.909 -17.874   2.406  1.00  0.00     0.039 A 
HETATM   21  C   UNL     1      42.236 -16.653   2.451  1.00  0.00     0.035 A 
BRANCH  17  22
HETATM   22  O   UNL     1      42.828 -15.578   5.876  1.00  0.00    -0.354 OA
HETATM   23  C   UNL     1      42.209 -16.139   7.031  1.00  0.00     0.210 C 
ENDBRANCH  17  22
BRANCH  19  24
HETATM   24  O   UNL     1      44.167 -19.582   3.340  1.00  0.00    -0.356 OA
HETATM   25  C   UNL     1      43.810 -20.313   2.175  1.00  0.00     0.210 C 
ENDBRANCH  19  24
ENDBRANCH  13  16
ENDBRANCH   4  12
ENDBRANCH   1   4
BRANCH   1  26
HETATM   26  C   UNL     1      40.234 -11.407   5.940  1.00  0.00     0.192 C 
BRANCH  26  27
HETATM   27  C   UNL     1      39.854  -9.977   5.898  1.00  0.00     0.070 A 
HETATM   28  O   UNL     1      39.475  -9.462   7.105  1.00  0.00    -0.325 OA
HETATM   29  C   UNL     1      39.151  -8.162   6.905  1.00  0.00     0.142 A 
HETATM   30  C   UNL     1      39.319  -7.826   5.583  1.00  0.00     0.027 A 
HETATM   31  C   UNL     1      39.770  -8.998   4.929  1.00  0.00     0.036 A 
ENDBRANCH  26  27
ENDBRANCH   1  26
BRANCH   2  32
HETATM   32  C   UNL     1      43.109 -11.449   6.785  1.00  0.00     0.228 C 
BRANCH  32  33
HETATM   33  N   UNL     1      43.604 -10.324   7.557  1.00  0.00    -0.347 N 
HETATM   34  C   UNL     1      44.927  -9.992   7.828  1.00  0.00     0.171 C 
HETATM   35  S   UNL     1      46.310 -10.757   7.342  1.00  0.00    -0.041 SA
HETATM   36  N   UNL     1      44.927  -8.869   8.642  1.00  0.00    -0.357 N 
HETATM   37  C   UNL     1      43.587  -8.490   9.036  1.00  0.00     0.135 C 
HETATM   38  H   UNL     1      45.773  -8.516   9.072  1.00  0.00     0.162 HD
HETATM   39  C   UNL     1      42.704  -9.307   8.078  1.00  0.00     0.155 C 
BRANCH  37  40
HETATM   40  C   UNL     1      43.294  -8.793  10.492  1.00  0.00    -0.034 A 
HETATM   41  C   UNL     1      43.114  -7.734  11.396  1.00  0.00     0.009 A 
HETATM   42  C   UNL     1      42.796  -7.980  12.734  1.00  0.00     0.001 A 
HETATM   43  C   UNL     1      42.650  -9.288  13.188  1.00  0.00     0.000 A 
HETATM   44  C   UNL     1      42.822 -10.351  12.306  1.00  0.00     0.001 A 
HETATM   45  C   UNL     1      43.138 -10.106  10.968  1.00  0.00     0.009 A 
ENDBRANCH  37  40
ENDBRANCH  32  33
ENDBRANCH   2  32
TORSDOF 10
ENDMDL
MODEL 4
REMARK VINA RESULT:      -8.8      2.640      7.320
REMARK  10 active torsions:
REMARK  status: ('A' for Active; 'I' for Inactive)
REMARK    1  A    between atoms: C_6  and  N_7 
REMARK    2  A    between atoms: C_6  and  C_29 
REMARK       I    between atoms: N_7  and  C_8 
REMARK    3  A    between atoms: N_7  and  C_23 
REMARK    4  A    between atoms: C_8  and  C_9 
REMARK    5  A    between atoms: C_9  and  N_10 
REMARK    6  A    between atoms: C_14  and  C_15 
REMARK    7  A    between atoms: C_23  and  C_24 
REMARK       I    between atoms: C_29  and  N_30 
REMARK    8  A    between atoms: N_30  and  C_31 
REMARK    9  A    between atoms: C_32  and  O_33 
REMARK   10  A    between atoms: C_36  and  O_37 
ROOT
HETATM    1  N   UNL     1      42.143 -12.201   5.328  1.00  0.00    -0.326 N 
HETATM    2  C   UNL     1      43.220 -12.733   4.600  1.00  0.00     0.239 C 
HETATM    3  O   UNL     1      43.773 -12.096   3.707  1.00  0.00    -0.271 OA
ENDROOT
BRANCH   1   4
HETATM    4  C   UNL     1      41.188 -11.227   4.688  1.00  0.00     0.120 C 
HETATM    5  C   UNL     1      40.197 -10.612   5.697  1.00  0.00     0.069 C 
HETATM    6  C   UNL     1      39.239  -9.620   5.045  1.00  0.00     0.237 C 
HETATM    7  N   UNL     1      40.000  -8.535   4.340  1.00  0.00    -0.075 N 
HETATM    8  C   UNL     1      39.066  -7.524   3.721  1.00  0.00     0.269 C 
HETATM    9  H   UNL     1      40.549  -8.023   5.048  1.00  0.00     0.279 HD
HETATM   10  C   UNL     1      40.986  -9.061   3.322  1.00  0.00     0.237 C 
HETATM   11  C   UNL     1      41.940 -10.030   4.012  1.00  0.00     0.069 C 
BRANCH   4  12
HETATM   12  C   UNL     1      40.506 -11.985   3.491  1.00  0.00     0.251 C 
HETATM   13  N   UNL     1      41.234 -12.091   2.327  1.00  0.00    -0.323 N 
HETATM   14  H   UNL     1      42.184 -11.743   2.262  1.00  0.00     0.169 HD
HETATM   15  O   UNL     1      39.367 -12.429   3.632  1.00  0.00    -0.270 OA
BRANCH  13  16
HETATM   16  C   UNL     1      40.821 -12.721   1.125  1.00  0.00     0.068 A 
HETATM   17  C   UNL     1      40.812 -11.924  -0.040  1.00  0.00     0.097 A 
HETATM   18  C   UNL     1      40.435 -12.484  -1.270  1.00  0.00     0.075 A 
HETATM   19  C   UNL     1      40.065 -13.828  -1.342  1.00  0.00     0.070 A 
HETATM   20  C   UNL     1      40.051 -14.601  -0.183  1.00  0.00     0.039 A 
HETATM   21  C   UNL     1      40.430 -14.056   1.044  1.00  0.00     0.035 A 
BRANCH  17  22
HETATM   22  O   UNL     1      41.224 -10.621   0.146  1.00  0.00    -0.354 OA
HETATM   23  C   UNL     1      41.679  -9.923  -1.010  1.00  0.00     0.210 C 
ENDBRANCH  17  22
BRANCH  19  24
HETATM   24  O   UNL     1      39.686 -14.501  -2.471  1.00  0.00    -0.356 OA
HETATM   25  C   UNL     1      38.458 -14.122  -3.077  1.00  0.00     0.210 C 
ENDBRANCH  19  24
ENDBRANCH  13  16
ENDBRANCH   4  12
ENDBRANCH   1   4
BRANCH   1  26
HETATM   26  C   UNL     1      42.366 -12.141   6.780  1.00  0.00     0.192 C 
BRANCH  26  27
HETATM   27  C   UNL     1      43.553 -11.347   7.167  1.00  0.00     0.070 A 
HETATM   28  O   UNL     1      43.264 -10.093   7.624  1.00  0.00    -0.325 OA
HETATM   29  C   UNL     1      44.441  -9.492   7.926  1.00  0.00     0.142 A 
HETATM   30  C   UNL     1      45.490 -10.343   7.673  1.00  0.00     0.027 A 
HETATM   31  C   UNL     1      44.920 -11.541   7.179  1.00  0.00     0.036 A 
ENDBRANCH  26  27
ENDBRANCH   1  26
BRANCH   2  32
HETATM   32  C   UNL     1      43.546 -14.203   4.953  1.00  0.00     0.228 C 
BRANCH  32  33
HETATM   33  N   UNL     1      42.799 -15.195   4.201  1.00  0.00    -0.347 N 
HETATM   34  C   UNL     1      41.534 -15.702   4.482  1.00  0.00     0.171 C 
HETATM   35  S   UNL     1      40.513 -15.317   5.724  1.00  0.00    -0.041 SA
HETATM   36  N   UNL     1      41.239 -16.662   3.526  1.00  0.00    -0.357 N 
HETATM   37  C   UNL     1      42.360 -16.908   2.644  1.00  0.00     0.135 C 
HETATM   38  H   UNL     1      40.424 -17.259   3.596  1.00  0.00     0.162 HD
HETATM   39  C   UNL     1      43.293 -15.722   2.939  1.00  0.00     0.155 C 
BRANCH  37  40
HETATM   40  C   UNL     1      43.027 -18.245   2.898  1.00  0.00    -0.034 A 
HETATM   41  C   UNL     1      43.694 -18.465   4.114  1.00  0.00     0.009 A 
HETATM   42  C   UNL     1      44.277 -19.702   4.397  1.00  0.00     0.001 A 
HETATM   43  C   UNL     1      44.202 -20.739   3.471  1.00  0.00     0.000 A 
HETATM   44  C   UNL     1      43.543 -20.540   2.260  1.00  0.00     0.001 A 
HETATM   45  C   UNL     1      42.958 -19.304   1.977  1.00  0.00     0.009 A 
ENDBRANCH  37  40
ENDBRANCH  32  33
ENDBRANCH   2  32
TORSDOF 10
ENDMDL
MODEL 5
REMARK VINA RESULT:      -8.8      3.262      7.695
REMARK  10 active torsions:
REMARK  status: ('A' for Active; 'I' for Inactive)
REMARK    1  A    between atoms: C_6  and  N_7 
REMARK    2  A    between atoms: C_6  and  C_29 
REMARK       I    between atoms: N_7  and  C_8 
REMARK    3  A    between atoms: N_7  and  C_23 
REMARK    4  A    between atoms: C_8  and  C_9 
REMARK    5  A    between atoms: C_9  and  N_10 
REMARK    6  A    between atoms: C_14  and  C_15 
REMARK    7  A    between atoms: C_23  and  C_24 
REMARK       I    between atoms: C_29  and  N_30 
REMARK    8  A    between atoms: N_30  and  C_31 
REMARK    9  A    between atoms: C_32  and  O_33 
REMARK   10  A    between atoms: C_36  and  O_37 
ROOT
HETATM    1  N   UNL     1      41.703 -11.742   4.796  1.00  0.00    -0.326 N 
HETATM    2  C   UNL     1      41.066 -10.504   4.984  1.00  0.00     0.239 C 
HETATM    3  O   UNL     1      39.921 -10.301   4.588  1.00  0.00    -0.271 OA
ENDROOT
BRANCH   1   4
HETATM    4  C   UNL     1      41.386 -12.596   3.595  1.00  0.00     0.120 C 
HETATM    5  C   UNL     1      39.894 -12.971   3.506  1.00  0.00     0.069 C 
HETATM    6  C   UNL     1      39.577 -13.827   2.283  1.00  0.00     0.237 C 
HETATM    7  N   UNL     1      40.013 -13.134   1.025  1.00  0.00    -0.075 N 
HETATM    8  C   UNL     1      39.674 -13.951  -0.197  1.00  0.00     0.269 C 
HETATM    9  H   UNL     1      39.473 -12.258   0.943  1.00  0.00     0.279 HD
HETATM   10  C   UNL     1      41.474 -12.744   1.032  1.00  0.00     0.237 C 
HETATM   11  C   UNL     1      41.748 -11.872   2.252  1.00  0.00     0.069 C 
BRANCH   4  12
HETATM   12  C   UNL     1      42.362 -13.828   3.648  1.00  0.00     0.251 C 
HETATM   13  N   UNL     1      41.858 -14.997   4.173  1.00  0.00    -0.323 N 
HETATM   14  H   UNL     1      40.891 -15.075   4.464  1.00  0.00     0.169 HD
HETATM   15  O   UNL     1      43.516 -13.698   3.241  1.00  0.00    -0.270 OA
BRANCH  13  16
HETATM   16  C   UNL     1      42.553 -16.225   4.325  1.00  0.00     0.068 A 
HETATM   17  C   UNL     1      42.712 -16.707   5.642  1.00  0.00     0.097 A 
HETATM   18  C   UNL     1      43.370 -17.925   5.869  1.00  0.00     0.075 A 
HETATM   19  C   UNL     1      43.872 -18.659   4.792  1.00  0.00     0.070 A 
HETATM   20  C   UNL     1      43.735 -18.163   3.498  1.00  0.00     0.039 A 
HETATM   21  C   UNL     1      43.076 -16.956   3.260  1.00  0.00     0.035 A 
BRANCH  17  22
HETATM   22  O   UNL     1      42.151 -15.914   6.621  1.00  0.00    -0.354 OA
HETATM   23  C   UNL     1      42.988 -15.570   7.723  1.00  0.00     0.210 C 
ENDBRANCH  17  22
BRANCH  19  24
HETATM   24  O   UNL     1      44.523 -19.859   4.868  1.00  0.00    -0.356 OA
HETATM   25  C   UNL     1      43.988 -20.942   4.120  1.00  0.00     0.210 C 
ENDBRANCH  19  24
ENDBRANCH  13  16
ENDBRANCH   4  12
ENDBRANCH   1   4
BRANCH   1  26
HETATM   26  C   UNL     1      42.148 -12.387   6.039  1.00  0.00     0.192 C 
BRANCH  26  27
HETATM   27  C   UNL     1      43.473 -11.923   6.509  1.00  0.00     0.070 A 
HETATM   28  O   UNL     1      44.384 -11.727   5.511  1.00  0.00    -0.325 OA
HETATM   29  C   UNL     1      45.538 -11.318   6.092  1.00  0.00     0.142 A 
HETATM   30  C   UNL     1      45.384 -11.243   7.455  1.00  0.00     0.027 A 
HETATM   31  C   UNL     1      44.052 -11.637   7.728  1.00  0.00     0.036 A 
ENDBRANCH  26  27
ENDBRANCH   1  26
BRANCH   2  32
HETATM   32  C   UNL     1      41.975  -9.425   5.617  1.00  0.00     0.228 C 
BRANCH  32  33
HETATM   33  N   UNL     1      41.404  -8.733   6.759  1.00  0.00    -0.347 N 
HETATM   34  C   UNL     1      41.198  -7.366   6.910  1.00  0.00     0.171 C 
HETATM   35  S   UNL     1      41.517  -6.143   5.844  1.00  0.00    -0.041 SA
HETATM   36  N   UNL     1      40.677  -7.151   8.177  1.00  0.00    -0.357 N 
HETATM   37  C   UNL     1      40.633  -8.371   8.955  1.00  0.00     0.135 C 
HETATM   38  H   UNL     1      40.562  -6.222   8.561  1.00  0.00     0.162 HD
HETATM   39  C   UNL     1      40.865  -9.461   7.896  1.00  0.00     0.155 C 
BRANCH  37  40
HETATM   40  C   UNL     1      41.676  -8.405  10.056  1.00  0.00    -0.034 A 
HETATM   41  C   UNL     1      41.733  -7.354  10.986  1.00  0.00     0.009 A 
HETATM   42  C   UNL     1      42.650  -7.379  12.039  1.00  0.00     0.001 A 
HETATM   43  C   UNL     1      43.522  -8.455  12.181  1.00  0.00     0.000 A 
HETATM   44  C   UNL     1      43.478  -9.507  11.270  1.00  0.00     0.001 A 
HETATM   45  C   UNL     1      42.561  -9.484  10.217  1.00  0.00     0.009 A 
ENDBRANCH  37  40
ENDBRANCH  32  33
ENDBRANCH   2  32
TORSDOF 10
ENDMDL
MODEL 6
REMARK VINA RESULT:      -8.7      4.397      8.811
REMARK  10 active torsions:
REMARK  status: ('A' for Active; 'I' for Inactive)
REMARK    1  A    between atoms: C_6  and  N_7 
REMARK    2  A    between atoms: C_6  and  C_29 
REMARK       I    between atoms: N_7  and  C_8 
REMARK    3  A    between atoms: N_7  and  C_23 
REMARK    4  A    between atoms: C_8  and  C_9 
REMARK    5  A    between atoms: C_9  and  N_10 
REMARK    6  A    between atoms: C_14  and  C_15 
REMARK    7  A    between atoms: C_23  and  C_24 
REMARK       I    between atoms: C_29  and  N_30 
REMARK    8  A    between atoms: N_30  and  C_31 
REMARK    9  A    between atoms: C_32  and  O_33 
REMARK   10  A    between atoms: C_36  and  O_37 
ROOT
HETATM    1  N   UNL     1      41.200 -12.321   5.617  1.00  0.00    -0.326 N 
HETATM    2  C   UNL     1      41.493 -13.045   4.449  1.00  0.00     0.239 C 
HETATM    3  O   UNL     1      41.804 -12.484   3.402  1.00  0.00    -0.271 OA
ENDROOT
BRANCH   1   4
HETATM    4  C   UNL     1      40.584 -10.948   5.536  1.00  0.00     0.120 C 
HETATM    5  C   UNL     1      41.570  -9.880   5.024  1.00  0.00     0.069 C 
HETATM    6  C   UNL     1      40.938  -8.494   4.934  1.00  0.00     0.237 C 
HETATM    7  N   UNL     1      39.713  -8.526   4.068  1.00  0.00    -0.075 N 
HETATM    8  C   UNL     1      39.097  -7.155   3.940  1.00  0.00     0.269 C 
HETATM    9  H   UNL     1      40.006  -8.799   3.117  1.00  0.00     0.279 HD
HETATM   10  C   UNL     1      38.690  -9.544   4.516  1.00  0.00     0.237 C 
HETATM   11  C   UNL     1      39.349 -10.918   4.571  1.00  0.00     0.069 C 
BRANCH   4  12
HETATM   12  C   UNL     1      39.977 -10.642   6.954  1.00  0.00     0.251 C 
HETATM   13  N   UNL     1      40.596  -9.661   7.696  1.00  0.00    -0.323 N 
HETATM   14  H   UNL     1      41.373  -9.126   7.326  1.00  0.00     0.169 HD
HETATM   15  O   UNL     1      39.005 -11.287   7.343  1.00  0.00    -0.270 OA
BRANCH  13  16
HETATM   16  C   UNL     1      40.230  -9.224   8.995  1.00  0.00     0.068 A 
HETATM   17  C   UNL     1      39.174  -8.291   9.078  1.00  0.00     0.097 A 
HETATM   18  C   UNL     1      38.743  -7.829  10.330  1.00  0.00     0.075 A 
HETATM   19  C   UNL     1      39.359  -8.289  11.496  1.00  0.00     0.070 A 
HETATM   20  C   UNL     1      40.418  -9.190  11.404  1.00  0.00     0.039 A 
HETATM   21  C   UNL     1      40.851  -9.660  10.164  1.00  0.00     0.035 A 
BRANCH  17  22
HETATM   22  O   UNL     1      38.623  -7.931   7.866  1.00  0.00    -0.354 OA
HETATM   23  C   UNL     1      38.615  -6.539   7.555  1.00  0.00     0.210 C 
ENDBRANCH  17  22
BRANCH  19  24
HETATM   24  O   UNL     1      39.035  -7.931  12.775  1.00  0.00    -0.356 OA
HETATM   25  C   UNL     1      39.275  -6.584  13.158  1.00  0.00     0.210 C 
ENDBRANCH  19  24
ENDBRANCH  13  16
ENDBRANCH   4  12
ENDBRANCH   1   4
BRANCH   1  26
HETATM   26  C   UNL     1      42.048 -12.662   6.768  1.00  0.00     0.192 C 
BRANCH  26  27
HETATM   27  C   UNL     1      43.360 -11.978   6.765  1.00  0.00     0.070 A 
HETATM   28  O   UNL     1      43.459 -10.953   7.662  1.00  0.00    -0.325 OA
HETATM   29  C   UNL     1      44.701 -10.424   7.534  1.00  0.00     0.142 A 
HETATM   30  C   UNL     1      45.409 -11.097   6.568  1.00  0.00     0.027 A 
HETATM   31  C   UNL     1      44.544 -12.100   6.066  1.00  0.00     0.036 A 
ENDBRANCH  26  27
ENDBRANCH   1  26
BRANCH   2  32
HETATM   32  C   UNL     1      41.274 -14.570   4.590  1.00  0.00     0.228 C 
BRANCH  32  33
HETATM   33  N   UNL     1      41.936 -15.381   3.584  1.00  0.00    -0.347 N 
HETATM   34  C   UNL     1      41.411 -15.843   2.381  1.00  0.00     0.171 C 
HETATM   35  S   UNL     1      39.908 -15.592   1.739  1.00  0.00    -0.041 SA
HETATM   36  N   UNL     1      42.379 -16.620   1.764  1.00  0.00    -0.357 N 
HETATM   37  C   UNL     1      43.545 -16.796   2.605  1.00  0.00     0.135 C 
HETATM   38  H   UNL     1      42.184 -17.166   0.935  1.00  0.00     0.162 HD
HETATM   39  C   UNL     1      43.341 -15.735   3.699  1.00  0.00     0.155 C 
BRANCH  37  40
HETATM   40  C   UNL     1      43.654 -18.198   3.173  1.00  0.00    -0.034 A 
HETATM   41  C   UNL     1      43.469 -19.303   2.327  1.00  0.00     0.009 A 
HETATM   42  C   UNL     1      43.610 -20.606   2.810  1.00  0.00     0.001 A 
HETATM   43  C   UNL     1      43.941 -20.824   4.145  1.00  0.00     0.000 A 
HETATM   44  C   UNL     1      44.131 -19.741   4.998  1.00  0.00     0.001 A 
HETATM   45  C   UNL     1      43.992 -18.438   4.516  1.00  0.00     0.009 A 
ENDBRANCH  37  40
ENDBRANCH  32  33
ENDBRANCH   2  32
TORSDOF 10
ENDMDL
MODEL 7
REMARK VINA RESULT:      -8.4      2.053      3.490
REMARK  10 active torsions:
REMARK  status: ('A' for Active; 'I' for Inactive)
REMARK    1  A    between atoms: C_6  and  N_7 
REMARK    2  A    between atoms: C_6  and  C_29 
REMARK       I    between atoms: N_7  and  C_8 
REMARK    3  A    between atoms: N_7  and  C_23 
REMARK    4  A    between atoms: C_8  and  C_9 
REMARK    5  A    between atoms: C_9  and  N_10 
REMARK    6  A    between atoms: C_14  and  C_15 
REMARK    7  A    between atoms: C_23  and  C_24 
REMARK       I    between atoms: C_29  and  N_30 
REMARK    8  A    between atoms: N_30  and  C_31 
REMARK    9  A    between atoms: C_32  and  O_33 
REMARK   10  A    between atoms: C_36  and  O_37 
ROOT
HETATM    1  N   UNL     1      41.057 -12.618   1.496  1.00  0.00    -0.326 N 
HETATM    2  C   UNL     1      39.683 -12.831   1.294  1.00  0.00     0.239 C 
HETATM    3  O   UNL     1      38.846 -12.472   2.119  1.00  0.00    -0.271 OA
ENDROOT
BRANCH   1   4
HETATM    4  C   UNL     1      41.638 -12.605   2.886  1.00  0.00     0.120 C 
HETATM    5  C   UNL     1      42.964 -11.823   2.971  1.00  0.00     0.069 C 
HETATM    6  C   UNL     1      43.543 -11.806   4.383  1.00  0.00     0.237 C 
HETATM    7  N   UNL     1      42.547 -11.246   5.356  1.00  0.00    -0.075 N 
HETATM    8  C   UNL     1      43.118 -11.187   6.752  1.00  0.00     0.269 C 
HETATM    9  H   UNL     1      42.354 -10.269   5.084  1.00  0.00     0.279 HD
HETATM   10  C   UNL     1      41.221 -11.971   5.340  1.00  0.00     0.237 C 
HETATM   11  C   UNL     1      40.662 -11.948   3.921  1.00  0.00     0.069 C 
BRANCH   4  12
HETATM   12  C   UNL     1      41.741 -14.106   3.345  1.00  0.00     0.251 C 
HETATM   13  N   UNL     1      42.980 -14.701   3.253  1.00  0.00    -0.323 N 
HETATM   14  H   UNL     1      43.797 -14.182   2.953  1.00  0.00     0.169 HD
HETATM   15  O   UNL     1      40.730 -14.682   3.745  1.00  0.00    -0.270 OA
BRANCH  13  16
HETATM   16  C   UNL     1      43.305 -16.036   3.602  1.00  0.00     0.068 A 
HETATM   17  C   UNL     1      43.681 -16.270   4.941  1.00  0.00     0.097 A 
HETATM   18  C   UNL     1      43.996 -17.570   5.365  1.00  0.00     0.075 A 
HETATM   19  C   UNL     1      43.943 -18.633   4.461  1.00  0.00     0.070 A 
HETATM   20  C   UNL     1      43.597 -18.389   3.133  1.00  0.00     0.039 A 
HETATM   21  C   UNL     1      43.275 -17.102   2.703  1.00  0.00     0.035 A 
BRANCH  17  22
HETATM   22  O   UNL     1      43.670 -15.153   5.750  1.00  0.00    -0.354 OA
HETATM   23  C   UNL     1      42.748 -15.158   6.837  1.00  0.00     0.210 C 
ENDBRANCH  17  22
BRANCH  19  24
HETATM   24  O   UNL     1      44.215 -19.943   4.739  1.00  0.00    -0.356 OA
HETATM   25  C   UNL     1      43.885 -20.905   3.746  1.00  0.00     0.210 C 
ENDBRANCH  19  24
ENDBRANCH  13  16
ENDBRANCH   4  12
ENDBRANCH   1   4
BRANCH   1  26
HETATM   26  C   UNL     1      41.707 -11.832   0.437  1.00  0.00     0.192 C 
BRANCH  26  27
HETATM   27  C   UNL     1      41.335 -10.400   0.445  1.00  0.00     0.070 A 
HETATM   28  O   UNL     1      42.093  -9.619  -0.380  1.00  0.00    -0.325 OA
HETATM   29  C   UNL     1      41.645  -8.346  -0.257  1.00  0.00     0.142 A 
HETATM   30  C   UNL     1      40.601  -8.293   0.636  1.00  0.00     0.027 A 
HETATM   31  C   UNL     1      40.401  -9.618   1.095  1.00  0.00     0.036 A 
ENDBRANCH  26  27
ENDBRANCH   1  26
BRANCH   2  32
HETATM   32  C   UNL     1      39.359 -13.647   0.021  1.00  0.00     0.228 C 
BRANCH  32  33
HETATM   33  N   UNL     1      38.685 -12.904  -1.029  1.00  0.00    -0.347 N 
HETATM   34  C   UNL     1      38.386 -13.333  -2.318  1.00  0.00     0.171 C 
HETATM   35  S   UNL     1      38.685 -14.799  -3.021  1.00  0.00    -0.041 SA
HETATM   36  N   UNL     1      37.786 -12.278  -2.990  1.00  0.00    -0.357 N 
HETATM   37  C   UNL     1      37.777 -11.069  -2.194  1.00  0.00     0.135 C 
HETATM   38  H   UNL     1      37.592 -12.312  -3.982  1.00  0.00     0.162 HD
HETATM   39  C   UNL     1      38.132 -11.581  -0.789  1.00  0.00     0.155 C 
BRANCH  37  40
HETATM   40  C   UNL     1      38.759 -10.027  -2.695  1.00  0.00    -0.034 A 
HETATM   41  C   UNL     1      39.979 -10.441  -3.254  1.00  0.00     0.009 A 
HETATM   42  C   UNL     1      40.884  -9.508  -3.767  1.00  0.00     0.001 A 
HETATM   43  C   UNL     1      40.582  -8.150  -3.732  1.00  0.00     0.000 A 
HETATM   44  C   UNL     1      39.376  -7.721  -3.184  1.00  0.00     0.001 A 
HETATM   45  C   UNL     1      38.470  -8.652  -2.672  1.00  0.00     0.009 A 
ENDBRANCH  37  40
ENDBRANCH  32  33
ENDBRANCH   2  32
TORSDOF 10
ENDMDL
MODEL 8
REMARK VINA RESULT:      -8.4      3.034      7.110
REMARK  10 active torsions:
REMARK  status: ('A' for Active; 'I' for Inactive)
REMARK    1  A    between atoms: C_6  and  N_7 
REMARK    2  A    between atoms: C_6  and  C_29 
REMARK       I    between atoms: N_7  and  C_8 
REMARK    3  A    between atoms: N_7  and  C_23 
REMARK    4  A    between atoms: C_8  and  C_9 
REMARK    5  A    between atoms: C_9  and  N_10 
REMARK    6  A    between atoms: C_14  and  C_15 
REMARK    7  A    between atoms: C_23  and  C_24 
REMARK       I    between atoms: C_29  and  N_30 
REMARK    8  A    between atoms: N_30  and  C_31 
REMARK    9  A    between atoms: C_32  and  O_33 
REMARK   10  A    between atoms: C_36  and  O_37 
ROOT
HETATM    1  N   UNL     1      39.407 -11.513   3.078  1.00  0.00    -0.326 N 
HETATM    2  C   UNL     1      39.499 -12.694   3.833  1.00  0.00     0.239 C 
HETATM    3  O   UNL     1      39.114 -12.748   4.998  1.00  0.00    -0.271 OA
ENDROOT
BRANCH   1   4
HETATM    4  C   UNL     1      39.509 -10.165   3.744  1.00  0.00     0.120 C 
HETATM    5  C   UNL     1      39.272  -8.997   2.765  1.00  0.00     0.069 C 
HETATM    6  C   UNL     1      39.366  -7.635   3.447  1.00  0.00     0.237 C 
HETATM    7  N   UNL     1      38.405  -7.550   4.596  1.00  0.00    -0.075 N 
HETATM    8  C   UNL     1      38.460  -6.195   5.258  1.00  0.00     0.269 C 
HETATM    9  H   UNL     1      37.450  -7.646   4.217  1.00  0.00     0.279 HD
HETATM   10  C   UNL     1      38.584  -8.659   5.608  1.00  0.00     0.237 C 
HETATM   11  C   UNL     1      38.460 -10.003   4.898  1.00  0.00     0.069 C 
BRANCH   4  12
HETATM   12  C   UNL     1      40.901 -10.126   4.474  1.00  0.00     0.251 C 
HETATM   13  N   UNL     1      40.939 -10.601   5.765  1.00  0.00    -0.323 N 
HETATM   14  H   UNL     1      40.121 -11.004   6.207  1.00  0.00     0.169 HD
HETATM   15  O   UNL     1      41.877  -9.667   3.880  1.00  0.00    -0.270 OA
BRANCH  13  16
HETATM   16  C   UNL     1      42.074 -10.657   6.613  1.00  0.00     0.068 A 
HETATM   17  C   UNL     1      42.253  -9.581   7.509  1.00  0.00     0.097 A 
HETATM   18  C   UNL     1      43.342  -9.577   8.393  1.00  0.00     0.075 A 
HETATM   19  C   UNL     1      44.254 -10.636   8.384  1.00  0.00     0.070 A 
HETATM   20  C   UNL     1      44.085 -11.681   7.479  1.00  0.00     0.039 A 
HETATM   21  C   UNL     1      43.002 -11.698   6.600  1.00  0.00     0.035 A 
BRANCH  17  22
HETATM   22  O   UNL     1      41.277  -8.609   7.448  1.00  0.00    -0.354 OA
HETATM   23  C   UNL     1      40.673  -8.230   8.683  1.00  0.00     0.210 C 
ENDBRANCH  17  22
BRANCH  19  24
HETATM   24  O   UNL     1      45.349 -10.764   9.193  1.00  0.00    -0.356 OA
HETATM   25  C   UNL     1      45.341 -10.049  10.421  1.00  0.00     0.210 C 
ENDBRANCH  19  24
ENDBRANCH  13  16
ENDBRANCH   4  12
ENDBRANCH   1   4
BRANCH   1  26
HETATM   26  C   UNL     1      38.626 -11.647   1.840  1.00  0.00     0.192 C 
BRANCH  26  27
HETATM   27  C   UNL     1      39.456 -11.815   0.627  1.00  0.00     0.070 A 
HETATM   28  O   UNL     1      38.924 -12.661  -0.303  1.00  0.00    -0.325 OA
HETATM   29  C   UNL     1      39.795 -12.721  -1.340  1.00  0.00     0.142 A 
HETATM   30  C   UNL     1      40.884 -11.919  -1.094  1.00  0.00     0.027 A 
HETATM   31  C   UNL     1      40.670 -11.336   0.178  1.00  0.00     0.036 A 
ENDBRANCH  26  27
ENDBRANCH   1  26
BRANCH   2  32
HETATM   32  C   UNL     1      40.223 -13.848   3.099  1.00  0.00     0.228 C 
BRANCH  32  33
HETATM   33  N   UNL     1      41.365 -14.402   3.804  1.00  0.00    -0.347 N 
HETATM   34  C   UNL     1      42.675 -13.936   3.803  1.00  0.00     0.171 C 
HETATM   35  S   UNL     1      43.309 -12.620   3.028  1.00  0.00    -0.041 SA
HETATM   36  N   UNL     1      43.437 -14.802   4.572  1.00  0.00    -0.357 N 
HETATM   37  C   UNL     1      42.669 -15.948   5.013  1.00  0.00     0.135 C 
HETATM   38  H   UNL     1      44.446 -14.738   4.616  1.00  0.00     0.162 HD
HETATM   39  C   UNL     1      41.221 -15.521   4.721  1.00  0.00     0.155 C 
BRANCH  37  40
HETATM   40  C   UNL     1      43.051 -17.226   4.292  1.00  0.00    -0.034 A 
HETATM   41  C   UNL     1      42.674 -17.402   2.951  1.00  0.00     0.009 A 
HETATM   42  C   UNL     1      43.052 -18.547   2.245  1.00  0.00     0.001 A 
HETATM   43  C   UNL     1      43.814 -19.532   2.869  1.00  0.00     0.000 A 
HETATM   44  C   UNL     1      44.199 -19.373   4.197  1.00  0.00     0.001 A 
HETATM   45  C   UNL     1      43.824 -18.228   4.903  1.00  0.00     0.009 A 
ENDBRANCH  37  40
ENDBRANCH  32  33
ENDBRANCH   2  32
TORSDOF 10
ENDMDL
MODEL 9
REMARK VINA RESULT:      -8.4      2.974      8.957
REMARK  10 active torsions:
REMARK  status: ('A' for Active; 'I' for Inactive)
REMARK    1  A    between atoms: C_6  and  N_7 
REMARK    2  A    between atoms: C_6  and  C_29 
REMARK       I    between atoms: N_7  and  C_8 
REMARK    3  A    between atoms: N_7  and  C_23 
REMARK    4  A    between atoms: C_8  and  C_9 
REMARK    5  A    between atoms: C_9  and  N_10 
REMARK    6  A    between atoms: C_14  and  C_15 
REMARK    7  A    between atoms: C_23  and  C_24 
REMARK       I    between atoms: C_29  and  N_30 
REMARK    8  A    between atoms: N_30  and  C_31 
REMARK    9  A    between atoms: C_32  and  O_33 
REMARK   10  A    between atoms: C_36  and  O_37 
ROOT
HETATM    1  N   UNL     1      40.360 -12.018   1.710  1.00  0.00    -0.326 N 
HETATM    2  C   UNL     1      41.013 -13.041   2.416  1.00  0.00     0.239 C 
HETATM    3  O   UNL     1      41.651 -13.918   1.839  1.00  0.00    -0.271 OA
ENDROOT
BRANCH   1   4
HETATM    4  C   UNL     1      39.811 -12.265   0.328  1.00  0.00     0.120 C 
HETATM    5  C   UNL     1      39.740 -13.763  -0.026  1.00  0.00     0.069 C 
HETATM    6  C   UNL     1      39.174 -14.008  -1.422  1.00  0.00     0.237 C 
HETATM    7  N   UNL     1      37.820 -13.378  -1.562  1.00  0.00    -0.075 N 
HETATM    8  C   UNL     1      37.230 -13.643  -2.926  1.00  0.00     0.269 C 
HETATM    9  H   UNL     1      37.188 -13.832  -0.884  1.00  0.00     0.279 HD
HETATM   10  C   UNL     1      37.811 -11.900  -1.241  1.00  0.00     0.237 C 
HETATM   11  C   UNL     1      38.359 -11.696   0.167  1.00  0.00     0.069 C 
BRANCH   4  12
HETATM   12  C   UNL     1      40.679 -11.405  -0.662  1.00  0.00     0.251 C 
HETATM   13  N   UNL     1      40.382 -10.063  -0.744  1.00  0.00    -0.323 N 
HETATM   14  H   UNL     1      39.674  -9.639  -0.156  1.00  0.00     0.169 HD
HETATM   15  O   UNL     1      41.558 -11.957  -1.323  1.00  0.00    -0.270 OA
BRANCH  13  16
HETATM   16  C   UNL     1      41.024  -9.104  -1.568  1.00  0.00     0.068 A 
HETATM   17  C   UNL     1      40.264  -8.566  -2.628  1.00  0.00     0.097 A 
HETATM   18  C   UNL     1      40.825  -7.597  -3.473  1.00  0.00     0.075 A 
HETATM   19  C   UNL     1      42.137  -7.166  -3.269  1.00  0.00     0.070 A 
HETATM   20  C   UNL     1      42.890  -7.721  -2.236  1.00  0.00     0.039 A 
HETATM   21  C   UNL     1      42.340  -8.681  -1.386  1.00  0.00     0.035 A 
BRANCH  17  22
HETATM   22  O   UNL     1      38.973  -9.044  -2.716  1.00  0.00    -0.354 OA
HETATM   23  C   UNL     1      38.536  -9.473  -4.004  1.00  0.00     0.210 C 
ENDBRANCH  17  22
BRANCH  19  24
HETATM   24  O   UNL     1      42.802  -6.227  -4.007  1.00  0.00    -0.356 OA
HETATM   25  C   UNL     1      43.152  -6.570  -5.340  1.00  0.00     0.210 C 
ENDBRANCH  19  24
ENDBRANCH  13  16
ENDBRANCH   4  12
ENDBRANCH   1   4
BRANCH   1  26
HETATM   26  C   UNL     1      40.784 -10.661   2.083  1.00  0.00     0.192 C 
BRANCH  26  27
HETATM   27  C   UNL     1      39.699  -9.835   2.658  1.00  0.00     0.070 A 
HETATM   28  O   UNL     1      39.266  -8.830   1.841  1.00  0.00    -0.325 OA
HETATM   29  C   UNL     1      38.290  -8.163   2.503  1.00  0.00     0.142 A 
HETATM   30  C   UNL     1      38.082  -8.726   3.739  1.00  0.00     0.027 A 
HETATM   31  C   UNL     1      38.993  -9.805   3.844  1.00  0.00     0.036 A 
ENDBRANCH  26  27
ENDBRANCH   1  26
BRANCH   2  32
HETATM   32  C   UNL     1      40.751 -13.013   3.940  1.00  0.00     0.228 C 
BRANCH  32  33
HETATM   33  N   UNL     1      41.558 -13.935   4.720  1.00  0.00    -0.347 N 
HETATM   34  C   UNL     1      42.775 -13.684   5.345  1.00  0.00     0.171 C 
HETATM   35  S   UNL     1      43.642 -12.277   5.403  1.00  0.00    -0.041 SA
HETATM   36  N   UNL     1      43.205 -14.865   5.930  1.00  0.00    -0.357 N 
HETATM   37  C   UNL     1      42.335 -15.975   5.604  1.00  0.00     0.135 C 
HETATM   38  H   UNL     1      44.127 -14.960   6.336  1.00  0.00     0.162 HD
HETATM   39  C   UNL     1      41.093 -15.278   5.025  1.00  0.00     0.155 C 
BRANCH  37  40
HETATM   40  C   UNL     1      42.962 -16.947   4.624  1.00  0.00    -0.034 A 
HETATM   41  C   UNL     1      43.918 -17.869   5.081  1.00  0.00     0.009 A 
HETATM   42  C   UNL     1      44.479 -18.809   4.212  1.00  0.00     0.001 A 
HETATM   43  C   UNL     1      44.091 -18.843   2.875  1.00  0.00     0.000 A 
HETATM   44  C   UNL     1      43.142 -17.938   2.405  1.00  0.00     0.001 A 
HETATM   45  C   UNL     1      42.580 -17.000   3.273  1.00  0.00     0.009 A 
ENDBRANCH  37  40
ENDBRANCH  32  33
ENDBRANCH   2  32
TORSDOF 10
ENDMDL
MODEL 10
REMARK VINA RESULT:      -8.3      2.160      4.414
REMARK  10 active torsions:
REMARK  status: ('A' for Active; 'I' for Inactive)
REMARK    1  A    between atoms: C_6  and  N_7 
REMARK    2  A    between atoms: C_6  and  C_29 
REMARK       I    between atoms: N_7  and  C_8 
REMARK    3  A    between atoms: N_7  and  C_23 
REMARK    4  A    between atoms: C_8  and  C_9 
REMARK    5  A    between atoms: C_9  and  N_10 
REMARK    6  A    between atoms: C_14  and  C_15 
REMARK    7  A    between atoms: C_23  and  C_24 
REMARK       I    between atoms: C_29  and  N_30 
REMARK    8  A    between atoms: N_30  and  C_31 
REMARK    9  A    between atoms: C_32  and  O_33 
REMARK   10  A    between atoms: C_36  and  O_37 
ROOT
HETATM    1  N   UNL     1      40.731 -11.870   2.620  1.00  0.00    -0.326 N 
HETATM    2  C   UNL     1      40.986 -10.931   1.607  1.00  0.00     0.239 C 
HETATM    3  O   UNL     1      42.118 -10.749   1.166  1.00  0.00    -0.271 OA
ENDROOT
BRANCH   1   4
HETATM    4  C   UNL     1      41.773 -12.181   3.663  1.00  0.00     0.120 C 
HETATM    5  C   UNL     1      42.729 -10.999   3.921  1.00  0.00     0.069 C 
HETATM    6  C   UNL     1      43.776 -11.316   4.985  1.00  0.00     0.237 C 
HETATM    7  N   UNL     1      43.118 -11.740   6.265  1.00  0.00    -0.075 N 
HETATM    8  C   UNL     1      44.140 -12.022   7.339  1.00  0.00     0.269 C 
HETATM    9  H   UNL     1      42.553 -10.948   6.608  1.00  0.00     0.279 HD
HETATM   10  C   UNL     1      42.172 -12.907   6.094  1.00  0.00     0.237 C 
HETATM   11  C   UNL     1      41.127 -12.546   5.043  1.00  0.00     0.069 C 
BRANCH   4  12
HETATM   12  C   UNL     1      42.489 -13.504   3.205  1.00  0.00     0.251 C 
HETATM   13  N   UNL     1      42.058 -14.676   3.785  1.00  0.00    -0.323 N 
HETATM   14  H   UNL     1      41.283 -14.692   4.437  1.00  0.00     0.169 HD
HETATM   15  O   UNL     1      43.397 -13.440   2.376  1.00  0.00    -0.270 OA
BRANCH  13  16
HETATM   16  C   UNL     1      42.558 -15.979   3.532  1.00  0.00     0.068 A 
HETATM   17  C   UNL     1      43.382 -16.548   4.526  1.00  0.00     0.097 A 
HETATM   18  C   UNL     1      43.897 -17.842   4.355  1.00  0.00     0.075 A 
HETATM   19  C   UNL     1      43.599 -18.566   3.199  1.00  0.00     0.070 A 
HETATM   20  C   UNL     1      42.807 -17.987   2.210  1.00  0.00     0.039 A 
HETATM   21  C   UNL     1      42.285 -16.703   2.372  1.00  0.00     0.035 A 
BRANCH  17  22
HETATM   22  O   UNL     1      43.584 -15.754   5.635  1.00  0.00    -0.354 OA
HETATM   23  C   UNL     1      44.580 -16.187   6.559  1.00  0.00     0.210 C 
ENDBRANCH  17  22
BRANCH  19  24
HETATM   24  O   UNL     1      44.024 -19.833   2.908  1.00  0.00    -0.356 OA
HETATM   25  C   UNL     1      43.557 -20.418   1.701  1.00  0.00     0.210 C 
ENDBRANCH  19  24
ENDBRANCH  13  16
ENDBRANCH   4  12
ENDBRANCH   1   4
BRANCH   1  26
HETATM   26  C   UNL     1      39.751 -12.902   2.253  1.00  0.00     0.192 C 
BRANCH  26  27
HETATM   27  C   UNL     1      39.857 -13.350   0.846  1.00  0.00     0.070 A 
HETATM   28  O   UNL     1      38.884 -12.854   0.026  1.00  0.00    -0.325 OA
HETATM   29  C   UNL     1      39.106 -13.356  -1.213  1.00  0.00     0.142 A 
HETATM   30  C   UNL     1      40.214 -14.169  -1.206  1.00  0.00     0.027 A 
HETATM   31  C   UNL     1      40.699 -14.170   0.124  1.00  0.00     0.036 A 
ENDBRANCH  26  27
ENDBRANCH   1  26
BRANCH   2  32
HETATM   32  C   UNL     1      39.749 -10.094   1.205  1.00  0.00     0.228 C 
BRANCH  32  33
HETATM   33  N   UNL     1      39.243  -9.210   2.240  1.00  0.00    -0.347 N 
HETATM   34  C   UNL     1      39.589  -7.883   2.471  1.00  0.00     0.171 C 
HETATM   35  S   UNL     1      40.649  -6.926   1.638  1.00  0.00    -0.041 SA
HETATM   36  N   UNL     1      38.898  -7.451   3.593  1.00  0.00    -0.357 N 
HETATM   37  C   UNL     1      38.155  -8.527   4.215  1.00  0.00     0.135 C 
HETATM   38  H   UNL     1      39.082  -6.556   4.028  1.00  0.00     0.162 HD
HETATM   39  C   UNL     1      38.179  -9.625   3.139  1.00  0.00     0.155 C 
BRANCH  37  40
HETATM   40  C   UNL     1      38.768  -8.986   5.523  1.00  0.00    -0.034 A 
HETATM   41  C   UNL     1      39.545  -8.089   6.274  1.00  0.00     0.009 A 
HETATM   42  C   UNL     1      40.084  -8.467   7.507  1.00  0.00     0.001 A 
HETATM   43  C   UNL     1      39.853  -9.745   8.008  1.00  0.00     0.000 A 
HETATM   44  C   UNL     1      39.082 -10.647   7.278  1.00  0.00     0.001 A 
HETATM   45  C   UNL     1      38.542 -10.270   6.047  1.00  0.00     0.009 A 
ENDBRANCH  37  40
ENDBRANCH  32  33
ENDBRANCH   2  32
TORSDOF 10
ENDMDL
