MODEL 1
REMARK VINA RESULT:      -8.1      0.000      0.000
REMARK  8 active torsions:
REMARK  status: ('A' for Active; 'I' for Inactive)
REMARK    1  A    between atoms: C_2  and  C_3 
REMARK    2  A    between atoms: C_3  and  N_4 
REMARK    3  A    between atoms: N_4  and  C_5 
REMARK    4  A    between atoms: C_7  and  N_8 
REMARK    5  A    between atoms: N_8  and  C_9 
REMARK    6  A    between atoms: C_9  and  C_10 
REMARK    7  A    between atoms: C_10  and  C_11 
REMARK    8  A    between atoms: C_14  and  O_15 
ROOT
HETATM    1  C   UNL     1      43.771 -16.878   4.559  1.00  0.00     0.119 A 
HETATM    2  N   UNL     1      43.491 -15.951   3.623  1.00  0.00    -0.207 NA
HETATM    3  C   UNL     1      43.264 -16.378   2.375  1.00  0.00     0.181 A 
HETATM    4  N   UNL     1      43.329 -17.655   2.015  1.00  0.00    -0.330 N 
HETATM    5  H   UNL     1      43.213 -17.864   1.032  1.00  0.00     0.168 HD
HETATM    6  C   UNL     1      43.574 -18.617   2.910  1.00  0.00     0.048 A 
HETATM    7  C   UNL     1      43.797 -18.258   4.254  1.00  0.00     0.031 A 
HETATM    8  C   UNL     1      43.597 -19.961   2.510  1.00  0.00     0.030 A 
HETATM    9  C   UNL     1      43.828 -20.966   3.448  1.00  0.00     0.002 A 
HETATM   10  C   UNL     1      44.034 -20.634   4.784  1.00  0.00     0.001 A 
HETATM   11  C   UNL     1      44.021 -19.297   5.186  1.00  0.00     0.017 A 
ENDROOT
BRANCH   3  12
HETATM   12  N   UNL     1      43.010 -15.419   1.403  1.00  0.00    -0.262 NA
HETATM   13  H   UNL     1      43.894 -15.335   0.891  1.00  0.00     0.130 HD
BRANCH  12  14
HETATM   14  C   UNL     1      42.589 -14.116   1.929  1.00  0.00     0.100 C 
BRANCH  14  15
HETATM   15  C   UNL     1      41.061 -13.988   1.881  1.00  0.00     0.053 C 
BRANCH  15  16
HETATM   16  C   UNL     1      40.563 -13.893   0.461  1.00  0.00    -0.057 A 
HETATM   17  C   UNL     1      39.778 -14.911  -0.093  1.00  0.00     0.010 A 
HETATM   18  C   UNL     1      39.356 -14.829  -1.422  1.00  0.00     0.037 A 
HETATM   19  C   UNL     1      39.696 -13.731  -2.214  1.00  0.00     0.068 A 
HETATM   20  C   UNL     1      40.469 -12.709  -1.665  1.00  0.00     0.037 A 
HETATM   21  C   UNL     1      40.899 -12.791  -0.335  1.00  0.00     0.010 A 
BRANCH  19  22
HETATM   22  O   UNL     1      39.222 -13.782  -3.495  1.00  0.00    -0.356 OA
HETATM   23  C   UNL     1      38.146 -14.677  -3.751  1.00  0.00     0.210 C 
ENDBRANCH  19  22
ENDBRANCH  15  16
ENDBRANCH  14  15
ENDBRANCH  12  14
ENDBRANCH   3  12
BRANCH   1  24
HETATM   24  N   UNL     1      43.988 -16.463   5.880  1.00  0.00    -0.277 NA
HETATM   25  H   UNL     1      44.976 -16.276   6.043  1.00  0.00     0.129 HD
BRANCH  24  26
HETATM   26  C   UNL     1      43.151 -15.370   6.376  1.00  0.00     0.093 C 
BRANCH  26  27
HETATM   27  C   UNL     1      41.968 -15.932   7.167  1.00  0.00     0.010 C 
HETATM   28  C   UNL     1      40.664 -15.899   6.382  1.00  0.00     0.006 C 
ENDBRANCH  26  27
ENDBRANCH  24  26
ENDBRANCH   1  24
TORSDOF 8
ENDMDL
MODEL 2
REMARK VINA RESULT:      -7.8      3.000      4.641
REMARK  8 active torsions:
REMARK  status: ('A' for Active; 'I' for Inactive)
REMARK    1  A    between atoms: C_2  and  C_3 
REMARK    2  A    between atoms: C_3  and  N_4 
REMARK    3  A    between atoms: N_4  and  C_5 
REMARK    4  A    between atoms: C_7  and  N_8 
REMARK    5  A    between atoms: N_8  and  C_9 
REMARK    6  A    between atoms: C_9  and  C_10 
REMARK    7  A    between atoms: C_10  and  C_11 
REMARK    8  A    between atoms: C_14  and  O_15 
ROOT
HETATM    1  C   UNL     1      43.781 -16.829   4.486  1.00  0.00     0.119 A 
HETATM    2  N   UNL     1      43.451 -15.901   3.568  1.00  0.00    -0.207 NA
HETATM    3  C   UNL     1      43.170 -16.325   2.331  1.00  0.00     0.181 A 
HETATM    4  N   UNL     1      43.227 -17.599   1.962  1.00  0.00    -0.330 N 
HETATM    5  H   UNL     1      43.067 -17.805   0.984  1.00  0.00     0.168 HD
HETATM    6  C   UNL     1      43.520 -18.562   2.840  1.00  0.00     0.048 A 
HETATM    7  C   UNL     1      43.803 -18.207   4.174  1.00  0.00     0.031 A 
HETATM    8  C   UNL     1      43.535 -19.905   2.434  1.00  0.00     0.030 A 
HETATM    9  C   UNL     1      43.817 -20.912   3.355  1.00  0.00     0.002 A 
HETATM   10  C   UNL     1      44.082 -20.584   4.682  1.00  0.00     0.001 A 
HETATM   11  C   UNL     1      44.078 -19.249   5.090  1.00  0.00     0.017 A 
ENDROOT
BRANCH   3  12
HETATM   12  N   UNL     1      42.863 -15.363   1.376  1.00  0.00    -0.262 NA
HETATM   13  H   UNL     1      43.610 -14.666   1.468  1.00  0.00     0.130 HD
BRANCH  12  14
HETATM   14  C   UNL     1      41.547 -14.739   1.541  1.00  0.00     0.100 C 
BRANCH  14  15
HETATM   15  C   UNL     1      41.675 -13.210   1.544  1.00  0.00     0.053 C 
BRANCH  15  16
HETATM   16  C   UNL     1      42.073 -12.697   2.905  1.00  0.00    -0.057 A 
HETATM   17  C   UNL     1      43.349 -12.165   3.125  1.00  0.00     0.010 A 
HETATM   18  C   UNL     1      43.719 -11.729   4.399  1.00  0.00     0.037 A 
HETATM   19  C   UNL     1      42.824 -11.803   5.468  1.00  0.00     0.068 A 
HETATM   20  C   UNL     1      41.548 -12.322   5.253  1.00  0.00     0.037 A 
HETATM   21  C   UNL     1      41.176 -12.767   3.979  1.00  0.00     0.010 A 
BRANCH  19  22
HETATM   22  O   UNL     1      43.316 -11.347   6.659  1.00  0.00    -0.356 OA
HETATM   23  C   UNL     1      44.536 -11.921   7.116  1.00  0.00     0.210 C 
ENDBRANCH  19  22
ENDBRANCH  15  16
ENDBRANCH  14  15
ENDBRANCH  12  14
ENDBRANCH   3  12
BRANCH   1  24
HETATM   24  N   UNL     1      44.056 -16.419   5.798  1.00  0.00    -0.277 NA
HETATM   25  H   UNL     1      45.034 -16.153   5.896  1.00  0.00     0.129 HD
BRANCH  24  26
HETATM   26  C   UNL     1      43.169 -15.407   6.373  1.00  0.00     0.093 C 
BRANCH  26  27
HETATM   27  C   UNL     1      41.974 -16.080   7.050  1.00  0.00     0.010 C 
HETATM   28  C   UNL     1      40.664 -15.833   6.315  1.00  0.00     0.006 C 
ENDBRANCH  26  27
ENDBRANCH  24  26
ENDBRANCH   1  24
TORSDOF 8
ENDMDL
MODEL 3
REMARK VINA RESULT:      -7.6      2.419      4.547
REMARK  8 active torsions:
REMARK  status: ('A' for Active; 'I' for Inactive)
REMARK    1  A    between atoms: C_2  and  C_3 
REMARK    2  A    between atoms: C_3  and  N_4 
REMARK    3  A    between atoms: N_4  and  C_5 
REMARK    4  A    between atoms: C_7  and  N_8 
REMARK    5  A    between atoms: N_8  and  C_9 
REMARK    6  A    between atoms: C_9  and  C_10 
REMARK    7  A    between atoms: C_10  and  C_11 
REMARK    8  A    between atoms: C_14  and  O_15 
ROOT
HETATM    1  C   UNL     1      43.344 -16.858   3.148  1.00  0.00     0.119 A 
HETATM    2  N   UNL     1      43.599 -16.046   4.192  1.00  0.00    -0.207 NA
HETATM    3  C   UNL     1      44.005 -16.612   5.334  1.00  0.00     0.181 A 
HETATM    4  N   UNL     1      44.139 -17.923   5.495  1.00  0.00    -0.330 N 
HETATM    5  H   UNL     1      44.381 -18.253   6.420  1.00  0.00     0.168 HD
HETATM    6  C   UNL     1      43.927 -18.771   4.484  1.00  0.00     0.048 A 
HETATM    7  C   UNL     1      43.524 -18.257   3.235  1.00  0.00     0.031 A 
HETATM    8  C   UNL     1      44.115 -20.148   4.670  1.00  0.00     0.030 A 
HETATM    9  C   UNL     1      43.917 -21.030   3.608  1.00  0.00     0.002 A 
HETATM   10  C   UNL     1      43.535 -20.543   2.362  1.00  0.00     0.001 A 
HETATM   11  C   UNL     1      43.338 -19.173   2.174  1.00  0.00     0.017 A 
ENDROOT
BRANCH   3  12
HETATM   12  N   UNL     1      44.234 -15.776   6.420  1.00  0.00    -0.262 NA
HETATM   13  H   UNL     1      44.582 -16.402   7.154  1.00  0.00     0.130 HD
BRANCH  12  14
HETATM   14  C   UNL     1      43.053 -15.039   6.882  1.00  0.00     0.100 C 
BRANCH  14  15
HETATM   15  C   UNL     1      43.279 -13.528   6.751  1.00  0.00     0.053 C 
BRANCH  15  16
HETATM   16  C   UNL     1      42.461 -12.947   5.625  1.00  0.00    -0.057 A 
HETATM   17  C   UNL     1      41.109 -13.275   5.478  1.00  0.00     0.010 A 
HETATM   18  C   UNL     1      40.373 -12.762   4.408  1.00  0.00     0.037 A 
HETATM   19  C   UNL     1      40.966 -11.907   3.477  1.00  0.00     0.068 A 
HETATM   20  C   UNL     1      42.310 -11.568   3.624  1.00  0.00     0.037 A 
HETATM   21  C   UNL     1      43.052 -12.087   4.691  1.00  0.00     0.010 A 
BRANCH  19  22
HETATM   22  O   UNL     1      40.134 -11.482   2.480  1.00  0.00    -0.356 OA
HETATM   23  C   UNL     1      38.825 -12.040   2.449  1.00  0.00     0.210 C 
ENDBRANCH  19  22
ENDBRANCH  15  16
ENDBRANCH  14  15
ENDBRANCH  12  14
ENDBRANCH   3  12
BRANCH   1  24
HETATM   24  N   UNL     1      42.942 -16.293   1.931  1.00  0.00    -0.277 NA
HETATM   25  H   UNL     1      42.340 -16.933   1.416  1.00  0.00     0.129 HD
BRANCH  24  26
HETATM   26  C   UNL     1      42.366 -14.948   1.984  1.00  0.00     0.093 C 
BRANCH  26  27
HETATM   27  C   UNL     1      41.007 -14.931   1.284  1.00  0.00     0.010 C 
HETATM   28  C   UNL     1      39.924 -15.647   2.078  1.00  0.00     0.006 C 
ENDBRANCH  26  27
ENDBRANCH  24  26
ENDBRANCH   1  24
TORSDOF 8
ENDMDL
MODEL 4
REMARK VINA RESULT:      -7.4      3.110      5.619
REMARK  8 active torsions:
REMARK  status: ('A' for Active; 'I' for Inactive)
REMARK    1  A    between atoms: C_2  and  C_3 
REMARK    2  A    between atoms: C_3  and  N_4 
REMARK    3  A    between atoms: N_4  and  C_5 
REMARK    4  A    between atoms: C_7  and  N_8 
REMARK    5  A    between atoms: N_8  and  C_9 
REMARK    6  A    between atoms: C_9  and  C_10 
REMARK    7  A    between atoms: C_10  and  C_11 
REMARK    8  A    between atoms: C_14  and  O_15 
ROOT
HETATM    1  C   UNL     1      42.395 -17.081   3.295  1.00  0.00     0.119 A 
HETATM    2  N   UNL     1      41.381 -16.516   2.613  1.00  0.00    -0.207 NA
HETATM    3  C   UNL     1      40.525 -15.748   3.296  1.00  0.00     0.181 A 
HETATM    4  N   UNL     1      40.608 -15.543   4.605  1.00  0.00    -0.330 N 
HETATM    5  H   UNL     1      39.868 -15.006   5.037  1.00  0.00     0.168 HD
HETATM    6  C   UNL     1      41.611 -16.056   5.324  1.00  0.00     0.048 A 
HETATM    7  C   UNL     1      42.576 -16.855   4.679  1.00  0.00     0.031 A 
HETATM    8  C   UNL     1      41.698 -15.790   6.699  1.00  0.00     0.030 A 
HETATM    9  C   UNL     1      42.758 -16.305   7.445  1.00  0.00     0.002 A 
HETATM   10  C   UNL     1      43.731 -17.083   6.824  1.00  0.00     0.001 A 
HETATM   11  C   UNL     1      43.644 -17.357   5.457  1.00  0.00     0.017 A 
ENDROOT
BRANCH   3  12
HETATM   12  N   UNL     1      39.460 -15.194   2.597  1.00  0.00    -0.262 NA
HETATM   13  H   UNL     1      39.140 -15.948   1.979  1.00  0.00     0.130 HD
BRANCH  12  14
HETATM   14  C   UNL     1      39.797 -13.996   1.822  1.00  0.00     0.100 C 
BRANCH  14  15
HETATM   15  C   UNL     1      39.624 -12.736   2.679  1.00  0.00     0.053 C 
BRANCH  15  16
HETATM   16  C   UNL     1      40.935 -12.298   3.281  1.00  0.00    -0.057 A 
HETATM   17  C   UNL     1      42.113 -12.321   2.526  1.00  0.00     0.010 A 
HETATM   18  C   UNL     1      43.328 -11.950   3.107  1.00  0.00     0.037 A 
HETATM   19  C   UNL     1      43.388 -11.540   4.440  1.00  0.00     0.068 A 
HETATM   20  C   UNL     1      42.216 -11.505   5.194  1.00  0.00     0.037 A 
HETATM   21  C   UNL     1      40.998 -11.882   4.617  1.00  0.00     0.010 A 
BRANCH  19  22
HETATM   22  O   UNL     1      44.638 -11.210   4.882  1.00  0.00    -0.356 OA
HETATM   23  C   UNL     1      44.975 -11.591   6.211  1.00  0.00     0.210 C 
ENDBRANCH  19  22
ENDBRANCH  15  16
ENDBRANCH  14  15
ENDBRANCH  12  14
ENDBRANCH   3  12
BRANCH   1  24
HETATM   24  N   UNL     1      43.324 -17.869   2.603  1.00  0.00    -0.277 NA
HETATM   25  H   UNL     1      44.177 -17.986   3.147  1.00  0.00     0.129 HD
BRANCH  24  26
HETATM   26  C   UNL     1      42.845 -19.151   2.083  1.00  0.00     0.093 C 
BRANCH  26  27
HETATM   27  C   UNL     1      43.894 -20.239   2.322  1.00  0.00     0.010 C 
HETATM   28  C   UNL     1      43.831 -20.822   3.727  1.00  0.00     0.006 C 
ENDBRANCH  26  27
ENDBRANCH  24  26
ENDBRANCH   1  24
TORSDOF 8
ENDMDL
MODEL 5
REMARK VINA RESULT:      -7.4      4.727      7.727
REMARK  8 active torsions:
REMARK  status: ('A' for Active; 'I' for Inactive)
REMARK    1  A    between atoms: C_2  and  C_3 
REMARK    2  A    between atoms: C_3  and  N_4 
REMARK    3  A    between atoms: N_4  and  C_5 
REMARK    4  A    between atoms: C_7  and  N_8 
REMARK    5  A    between atoms: N_8  and  C_9 
REMARK    6  A    between atoms: C_9  and  C_10 
REMARK    7  A    between atoms: C_10  and  C_11 
REMARK    8  A    between atoms: C_14  and  O_15 
ROOT
HETATM    1  C   UNL     1      42.704 -15.355   2.810  1.00  0.00     0.119 A 
HETATM    2  N   UNL     1      42.521 -14.330   3.664  1.00  0.00    -0.207 NA
HETATM    3  C   UNL     1      42.803 -14.539   4.954  1.00  0.00     0.181 A 
HETATM    4  N   UNL     1      43.223 -15.705   5.433  1.00  0.00    -0.330 N 
HETATM    5  H   UNL     1      43.337 -15.778   6.435  1.00  0.00     0.168 HD
HETATM    6  C   UNL     1      43.449 -16.745   4.625  1.00  0.00     0.048 A 
HETATM    7  C   UNL     1      43.205 -16.604   3.245  1.00  0.00     0.031 A 
HETATM    8  C   UNL     1      43.931 -17.953   5.151  1.00  0.00     0.030 A 
HETATM    9  C   UNL     1      44.189 -19.030   4.305  1.00  0.00     0.002 A 
HETATM   10  C   UNL     1      43.971 -18.906   2.937  1.00  0.00     0.001 A 
HETATM   11  C   UNL     1      43.483 -17.709   2.409  1.00  0.00     0.017 A 
ENDROOT
BRANCH   3  12
HETATM   12  N   UNL     1      42.581 -13.492   5.839  1.00  0.00    -0.262 NA
HETATM   13  H   UNL     1      42.602 -12.652   5.251  1.00  0.00     0.130 HD
BRANCH  12  14
HETATM   14  C   UNL     1      43.565 -13.391   6.923  1.00  0.00     0.100 C 
BRANCH  14  15
HETATM   15  C   UNL     1      44.741 -12.503   6.498  1.00  0.00     0.053 C 
BRANCH  15  16
HETATM   16  C   UNL     1      44.672 -11.149   7.158  1.00  0.00    -0.057 A 
HETATM   17  C   UNL     1      43.473 -10.426   7.188  1.00  0.00     0.010 A 
HETATM   18  C   UNL     1      43.432  -9.156   7.767  1.00  0.00     0.037 A 
HETATM   19  C   UNL     1      44.575  -8.592   8.335  1.00  0.00     0.068 A 
HETATM   20  C   UNL     1      45.769  -9.311   8.318  1.00  0.00     0.037 A 
HETATM   21  C   UNL     1      45.816 -10.581   7.733  1.00  0.00     0.010 A 
BRANCH  19  22
HETATM   22  O   UNL     1      44.396  -7.344   8.862  1.00  0.00    -0.356 OA
HETATM   23  C   UNL     1      43.256  -7.151   9.693  1.00  0.00     0.210 C 
ENDBRANCH  19  22
ENDBRANCH  15  16
ENDBRANCH  14  15
ENDBRANCH  12  14
ENDBRANCH   3  12
BRANCH   1  24
HETATM   24  N   UNL     1      42.442 -15.159   1.447  1.00  0.00    -0.277 NA
HETATM   25  H   UNL     1      42.343 -16.051   0.965  1.00  0.00     0.129 HD
BRANCH  24  26
HETATM   26  C   UNL     1      41.347 -14.248   1.109  1.00  0.00     0.093 C 
BRANCH  26  27
HETATM   27  C   UNL     1      40.159 -15.037   0.558  1.00  0.00     0.010 C 
HETATM   28  C   UNL     1      39.650 -14.488  -0.768  1.00  0.00     0.006 C 
ENDBRANCH  26  27
ENDBRANCH  24  26
ENDBRANCH   1  24
TORSDOF 8
ENDMDL
MODEL 6
REMARK VINA RESULT:      -7.4      1.995      3.894
REMARK  8 active torsions:
REMARK  status: ('A' for Active; 'I' for Inactive)
REMARK    1  A    between atoms: C_2  and  C_3 
REMARK    2  A    between atoms: C_3  and  N_4 
REMARK    3  A    between atoms: N_4  and  C_5 
REMARK    4  A    between atoms: C_7  and  N_8 
REMARK    5  A    between atoms: N_8  and  C_9 
REMARK    6  A    between atoms: C_9  and  C_10 
REMARK    7  A    between atoms: C_10  and  C_11 
REMARK    8  A    between atoms: C_14  and  O_15 
ROOT
HETATM    1  C   UNL     1      42.684 -17.304   3.512  1.00  0.00     0.119 A 
HETATM    2  N   UNL     1      41.682 -16.826   2.751  1.00  0.00    -0.207 NA
HETATM    3  C   UNL     1      40.800 -16.004   3.330  1.00  0.00     0.181 A 
HETATM    4  N   UNL     1      40.848 -15.664   4.613  1.00  0.00    -0.330 N 
HETATM    5  H   UNL     1      40.091 -15.095   4.969  1.00  0.00     0.168 HD
HETATM    6  C   UNL     1      41.838 -16.087   5.406  1.00  0.00     0.048 A 
HETATM    7  C   UNL     1      42.827 -16.935   4.870  1.00  0.00     0.031 A 
HETATM    8  C   UNL     1      41.887 -15.680   6.747  1.00  0.00     0.030 A 
HETATM    9  C   UNL     1      42.933 -16.101   7.567  1.00  0.00     0.002 A 
HETATM   10  C   UNL     1      43.930 -16.926   7.053  1.00  0.00     0.001 A 
HETATM   11  C   UNL     1      43.881 -17.340   5.721  1.00  0.00     0.017 A 
ENDROOT
BRANCH   3  12
HETATM   12  N   UNL     1      39.748 -15.539   2.552  1.00  0.00    -0.262 NA
HETATM   13  H   UNL     1      39.560 -16.303   1.894  1.00  0.00     0.130 HD
BRANCH  12  14
HETATM   14  C   UNL     1      40.026 -14.291   1.833  1.00  0.00     0.100 C 
BRANCH  14  15
HETATM   15  C   UNL     1      40.355 -14.581   0.364  1.00  0.00     0.053 C 
BRANCH  15  16
HETATM   16  C   UNL     1      39.428 -13.836  -0.563  1.00  0.00    -0.057 A 
HETATM   17  C   UNL     1      38.968 -12.555  -0.239  1.00  0.00     0.010 A 
HETATM   18  C   UNL     1      38.079 -11.891  -1.087  1.00  0.00     0.037 A 
HETATM   19  C   UNL     1      37.644 -12.484  -2.273  1.00  0.00     0.068 A 
HETATM   20  C   UNL     1      38.107 -13.756  -2.607  1.00  0.00     0.037 A 
HETATM   21  C   UNL     1      38.993 -14.427  -1.756  1.00  0.00     0.010 A 
BRANCH  19  22
HETATM   22  O   UNL     1      36.772 -11.728  -3.005  1.00  0.00    -0.356 OA
HETATM   23  C   UNL     1      36.352 -10.493  -2.435  1.00  0.00     0.210 C 
ENDBRANCH  19  22
ENDBRANCH  15  16
ENDBRANCH  14  15
ENDBRANCH  12  14
ENDBRANCH   3  12
BRANCH   1  24
HETATM   24  N   UNL     1      43.639 -18.147   2.928  1.00  0.00    -0.277 NA
HETATM   25  H   UNL     1      44.345 -18.421   3.608  1.00  0.00     0.129 HD
BRANCH  24  26
HETATM   26  C   UNL     1      43.134 -19.305   2.189  1.00  0.00     0.093 C 
BRANCH  26  27
HETATM   27  C   UNL     1      43.895 -20.566   2.605  1.00  0.00     0.010 C 
HETATM   28  C   UNL     1      43.834 -20.825   4.103  1.00  0.00     0.006 C 
ENDBRANCH  26  27
ENDBRANCH  24  26
ENDBRANCH   1  24
TORSDOF 8
ENDMDL
MODEL 7
REMARK VINA RESULT:      -7.3      2.523      3.501
REMARK  8 active torsions:
REMARK  status: ('A' for Active; 'I' for Inactive)
REMARK    1  A    between atoms: C_2  and  C_3 
REMARK    2  A    between atoms: C_3  and  N_4 
REMARK    3  A    between atoms: N_4  and  C_5 
REMARK    4  A    between atoms: C_7  and  N_8 
REMARK    5  A    between atoms: N_8  and  C_9 
REMARK    6  A    between atoms: C_9  and  C_10 
REMARK    7  A    between atoms: C_10  and  C_11 
REMARK    8  A    between atoms: C_14  and  O_15 
ROOT
HETATM    1  C   UNL     1      43.742 -16.739   4.475  1.00  0.00     0.119 A 
HETATM    2  N   UNL     1      43.395 -15.782   3.594  1.00  0.00    -0.207 NA
HETATM    3  C   UNL     1      43.097 -16.164   2.347  1.00  0.00     0.181 A 
HETATM    4  N   UNL     1      43.154 -17.425   1.934  1.00  0.00    -0.330 N 
HETATM    5  H   UNL     1      42.981 -17.598   0.952  1.00  0.00     0.168 HD
HETATM    6  C   UNL     1      43.464 -18.417   2.775  1.00  0.00     0.048 A 
HETATM    7  C   UNL     1      43.764 -18.106   4.115  1.00  0.00     0.031 A 
HETATM    8  C   UNL     1      43.477 -19.744   2.322  1.00  0.00     0.030 A 
HETATM    9  C   UNL     1      43.776 -20.781   3.205  1.00  0.00     0.002 A 
HETATM   10  C   UNL     1      44.060 -20.498   4.538  1.00  0.00     0.001 A 
HETATM   11  C   UNL     1      44.056 -19.177   4.992  1.00  0.00     0.017 A 
ENDROOT
BRANCH   3  12
HETATM   12  N   UNL     1      42.774 -15.172   1.430  1.00  0.00    -0.262 NA
HETATM   13  H   UNL     1      43.063 -14.300   1.885  1.00  0.00     0.130 HD
BRANCH  12  14
HETATM   14  C   UNL     1      41.354 -15.120   1.064  1.00  0.00     0.100 C 
BRANCH  14  15
HETATM   15  C   UNL     1      40.475 -15.165   2.319  1.00  0.00     0.053 C 
BRANCH  15  16
HETATM   16  C   UNL     1      39.977 -13.790   2.689  1.00  0.00    -0.057 A 
HETATM   17  C   UNL     1      40.068 -13.325   4.005  1.00  0.00     0.010 A 
HETATM   18  C   UNL     1      39.567 -12.065   4.342  1.00  0.00     0.037 A 
HETATM   19  C   UNL     1      38.981 -11.247   3.375  1.00  0.00     0.068 A 
HETATM   20  C   UNL     1      38.897 -11.701   2.060  1.00  0.00     0.037 A 
HETATM   21  C   UNL     1      39.391 -12.965   1.720  1.00  0.00     0.010 A 
BRANCH  19  22
HETATM   22  O   UNL     1      38.529 -10.044   3.842  1.00  0.00    -0.356 OA
HETATM   23  C   UNL     1      39.073  -9.583   5.073  1.00  0.00     0.210 C 
ENDBRANCH  19  22
ENDBRANCH  15  16
ENDBRANCH  14  15
ENDBRANCH  12  14
ENDBRANCH   3  12
BRANCH   1  24
HETATM   24  N   UNL     1      44.034 -16.373   5.796  1.00  0.00    -0.277 NA
HETATM   25  H   UNL     1      45.020 -16.137   5.896  1.00  0.00     0.129 HD
BRANCH  24  26
HETATM   26  C   UNL     1      43.179 -15.352   6.403  1.00  0.00     0.093 C 
BRANCH  26  27
HETATM   27  C   UNL     1      42.028 -16.015   7.162  1.00  0.00     0.010 C 
HETATM   28  C   UNL     1      40.698 -15.909   6.429  1.00  0.00     0.006 C 
ENDBRANCH  26  27
ENDBRANCH  24  26
ENDBRANCH   1  24
TORSDOF 8
ENDMDL
MODEL 8
REMARK VINA RESULT:      -7.1      3.740      7.274
REMARK  8 active torsions:
REMARK  status: ('A' for Active; 'I' for Inactive)
REMARK    1  A    between atoms: C_2  and  C_3 
REMARK    2  A    between atoms: C_3  and  N_4 
REMARK    3  A    between atoms: N_4  and  C_5 
REMARK    4  A    between atoms: C_7  and  N_8 
REMARK    5  A    between atoms: N_8  and  C_9 
REMARK    6  A    between atoms: C_9  and  C_10 
REMARK    7  A    between atoms: C_10  and  C_11 
REMARK    8  A    between atoms: C_14  and  O_15 
ROOT
HETATM    1  C   UNL     1      41.448 -13.637   5.762  1.00  0.00     0.119 A 
HETATM    2  N   UNL     1      41.469 -14.717   4.958  1.00  0.00    -0.207 NA
HETATM    3  C   UNL     1      40.698 -14.693   3.865  1.00  0.00     0.181 A 
HETATM    4  N   UNL     1      39.900 -13.678   3.554  1.00  0.00    -0.330 N 
HETATM    5  H   UNL     1      39.304 -13.791   2.745  1.00  0.00     0.168 HD
HETATM    6  C   UNL     1      39.862 -12.571   4.301  1.00  0.00     0.048 A 
HETATM    7  C   UNL     1      40.665 -12.500   5.457  1.00  0.00     0.031 A 
HETATM    8  C   UNL     1      39.040 -11.498   3.928  1.00  0.00     0.030 A 
HETATM    9  C   UNL     1      39.019 -10.334   4.694  1.00  0.00     0.002 A 
HETATM   10  C   UNL     1      39.817 -10.236   5.830  1.00  0.00     0.001 A 
HETATM   11  C   UNL     1      40.631 -11.305   6.211  1.00  0.00     0.017 A 
ENDROOT
BRANCH   3  12
HETATM   12  N   UNL     1      40.696 -15.821   3.056  1.00  0.00    -0.262 NA
HETATM   13  H   UNL     1      41.127 -16.551   3.633  1.00  0.00     0.130 HD
BRANCH  12  14
HETATM   14  C   UNL     1      41.421 -15.665   1.790  1.00  0.00     0.100 C 
BRANCH  14  15
HETATM   15  C   UNL     1      42.926 -15.865   2.007  1.00  0.00     0.053 C 
BRANCH  15  16
HETATM   16  C   UNL     1      43.222 -17.229   2.578  1.00  0.00    -0.057 A 
HETATM   17  C   UNL     1      43.698 -17.371   3.886  1.00  0.00     0.010 A 
HETATM   18  C   UNL     1      44.006 -18.637   4.389  1.00  0.00     0.037 A 
HETATM   19  C   UNL     1      43.833 -19.779   3.606  1.00  0.00     0.068 A 
HETATM   20  C   UNL     1      43.349 -19.645   2.305  1.00  0.00     0.037 A 
HETATM   21  C   UNL     1      43.047 -18.377   1.795  1.00  0.00     0.010 A 
BRANCH  19  22
HETATM   22  O   UNL     1      44.177 -20.951   4.219  1.00  0.00    -0.356 OA
HETATM   23  C   UNL     1      44.161 -20.964   5.642  1.00  0.00     0.210 C 
ENDBRANCH  19  22
ENDBRANCH  15  16
ENDBRANCH  14  15
ENDBRANCH  12  14
ENDBRANCH   3  12
BRANCH   1  24
HETATM   24  N   UNL     1      42.264 -13.621   6.901  1.00  0.00    -0.277 NA
HETATM   25  H   UNL     1      42.058 -14.415   7.505  1.00  0.00     0.129 HD
BRANCH  24  26
HETATM   26  C   UNL     1      43.704 -13.482   6.680  1.00  0.00     0.093 C 
BRANCH  26  27
HETATM   27  C   UNL     1      44.185 -12.122   7.190  1.00  0.00     0.010 C 
HETATM   28  C   UNL     1      45.306 -11.537   6.344  1.00  0.00     0.006 C 
ENDBRANCH  26  27
ENDBRANCH  24  26
ENDBRANCH   1  24
TORSDOF 8
ENDMDL
MODEL 9
REMARK VINA RESULT:      -7.1     13.545     14.847
REMARK  8 active torsions:
REMARK  status: ('A' for Active; 'I' for Inactive)
REMARK    1  A    between atoms: C_2  and  C_3 
REMARK    2  A    between atoms: C_3  and  N_4 
REMARK    3  A    between atoms: N_4  and  C_5 
REMARK    4  A    between atoms: C_7  and  N_8 
REMARK    5  A    between atoms: N_8  and  C_9 
REMARK    6  A    between atoms: C_9  and  C_10 
REMARK    7  A    between atoms: C_10  and  C_11 
REMARK    8  A    between atoms: C_14  and  O_15 
ROOT
HETATM    1  C   UNL     1      47.069 -28.637   2.205  1.00  0.00     0.119 A 
HETATM    2  N   UNL     1      45.725 -28.714   2.197  1.00  0.00    -0.207 NA
HETATM    3  C   UNL     1      45.147 -29.580   3.036  1.00  0.00     0.181 A 
HETATM    4  N   UNL     1      45.829 -30.381   3.847  1.00  0.00    -0.330 N 
HETATM    5  H   UNL     1      45.299 -31.051   4.388  1.00  0.00     0.168 HD
HETATM    6  C   UNL     1      47.163 -30.325   3.915  1.00  0.00     0.048 A 
HETATM    7  C   UNL     1      47.852 -29.419   3.085  1.00  0.00     0.031 A 
HETATM    8  C   UNL     1      47.857 -31.154   4.809  1.00  0.00     0.030 A 
HETATM    9  C   UNL     1      49.246 -31.078   4.898  1.00  0.00     0.002 A 
HETATM   10  C   UNL     1      49.945 -30.178   4.099  1.00  0.00     0.001 A 
HETATM   11  C   UNL     1      49.260 -29.357   3.201  1.00  0.00     0.017 A 
ENDROOT
BRANCH   3  12
HETATM   12  N   UNL     1      43.762 -29.683   3.002  1.00  0.00    -0.262 NA
HETATM   13  H   UNL     1      43.564 -30.594   3.428  1.00  0.00     0.130 HD
BRANCH  12  14
HETATM   14  C   UNL     1      43.178 -29.599   1.659  1.00  0.00     0.100 C 
BRANCH  14  15
HETATM   15  C   UNL     1      43.492 -30.867   0.857  1.00  0.00     0.053 C 
BRANCH  15  16
HETATM   16  C   UNL     1      43.878 -30.537  -0.563  1.00  0.00    -0.057 A 
HETATM   17  C   UNL     1      44.006 -29.207  -0.979  1.00  0.00     0.010 A 
HETATM   18  C   UNL     1      44.325 -28.913  -2.307  1.00  0.00     0.037 A 
HETATM   19  C   UNL     1      44.532 -29.935  -3.235  1.00  0.00     0.068 A 
HETATM   20  C   UNL     1      44.416 -31.262  -2.824  1.00  0.00     0.037 A 
HETATM   21  C   UNL     1      44.090 -31.560  -1.496  1.00  0.00     0.010 A 
BRANCH  19  22
HETATM   22  O   UNL     1      44.832 -29.508  -4.499  1.00  0.00    -0.356 OA
HETATM   23  C   UNL     1      44.381 -30.318  -5.578  1.00  0.00     0.210 C 
ENDBRANCH  19  22
ENDBRANCH  15  16
ENDBRANCH  14  15
ENDBRANCH  12  14
ENDBRANCH   3  12
BRANCH   1  24
HETATM   24  N   UNL     1      47.703 -27.720   1.356  1.00  0.00    -0.277 NA
HETATM   25  H   UNL     1      48.709 -27.718   1.511  1.00  0.00     0.129 HD
BRANCH  24  26
HETATM   26  C   UNL     1      47.384 -27.811  -0.070  1.00  0.00     0.093 C 
BRANCH  26  27
HETATM   27  C   UNL     1      47.745 -29.199  -0.601  1.00  0.00     0.010 C 
HETATM   28  C   UNL     1      48.067 -29.197  -2.089  1.00  0.00     0.006 C 
ENDBRANCH  26  27
ENDBRANCH  24  26
ENDBRANCH   1  24
TORSDOF 8
ENDMDL
MODEL 10
REMARK VINA RESULT:      -7.1      5.290      8.548
REMARK  8 active torsions:
REMARK  status: ('A' for Active; 'I' for Inactive)
REMARK    1  A    between atoms: C_2  and  C_3 
REMARK    2  A    between atoms: C_3  and  N_4 
REMARK    3  A    between atoms: N_4  and  C_5 
REMARK    4  A    between atoms: C_7  and  N_8 
REMARK    5  A    between atoms: N_8  and  C_9 
REMARK    6  A    between atoms: C_9  and  C_10 
REMARK    7  A    between atoms: C_10  and  C_11 
REMARK    8  A    between atoms: C_14  and  O_15 
ROOT
HETATM    1  C   UNL     1      43.862 -16.448   5.347  1.00  0.00     0.119 A 
HETATM    2  N   UNL     1      43.776 -15.542   6.340  1.00  0.00    -0.207 NA
HETATM    3  C   UNL     1      43.282 -14.337   6.039  1.00  0.00     0.181 A 
HETATM    4  N   UNL     1      42.902 -13.985   4.816  1.00  0.00    -0.330 N 
HETATM    5  H   UNL     1      42.611 -13.025   4.681  1.00  0.00     0.168 HD
HETATM    6  C   UNL     1      42.938 -14.854   3.802  1.00  0.00     0.048 A 
HETATM    7  C   UNL     1      43.419 -16.157   4.036  1.00  0.00     0.031 A 
HETATM    8  C   UNL     1      42.493 -14.468   2.529  1.00  0.00     0.030 A 
HETATM    9  C   UNL     1      42.509 -15.383   1.477  1.00  0.00     0.002 A 
HETATM   10  C   UNL     1      42.964 -16.680   1.690  1.00  0.00     0.001 A 
HETATM   11  C   UNL     1      43.416 -17.067   2.954  1.00  0.00     0.017 A 
ENDROOT
BRANCH   3  12
HETATM   12  N   UNL     1      43.226 -13.392   7.056  1.00  0.00    -0.262 NA
HETATM   13  H   UNL     1      42.339 -13.583   7.534  1.00  0.00     0.130 HD
BRANCH  12  14
HETATM   14  C   UNL     1      43.280 -12.000   6.599  1.00  0.00     0.100 C 
BRANCH  14  15
HETATM   15  C   UNL     1      44.583 -11.334   7.058  1.00  0.00     0.053 C 
BRANCH  15  16
HETATM   16  C   UNL     1      44.389 -10.583   8.351  1.00  0.00    -0.057 A 
HETATM   17  C   UNL     1      43.151 -10.015   8.671  1.00  0.00     0.010 A 
HETATM   18  C   UNL     1      42.995  -9.288   9.854  1.00  0.00     0.037 A 
HETATM   19  C   UNL     1      44.062  -9.126  10.739  1.00  0.00     0.068 A 
HETATM   20  C   UNL     1      45.295  -9.699  10.431  1.00  0.00     0.037 A 
HETATM   21  C   UNL     1      45.457 -10.422   9.244  1.00  0.00     0.010 A 
BRANCH  19  22
HETATM   22  O   UNL     1      43.774  -8.390  11.854  1.00  0.00    -0.356 OA
HETATM   23  C   UNL     1      42.498  -7.761  11.900  1.00  0.00     0.210 C 
ENDBRANCH  19  22
ENDBRANCH  15  16
ENDBRANCH  14  15
ENDBRANCH  12  14
ENDBRANCH   3  12
BRANCH   1  24
HETATM   24  N   UNL     1      44.351 -17.729   5.637  1.00  0.00    -0.277 NA
HETATM   25  H   UNL     1      45.152 -17.677   6.264  1.00  0.00     0.129 HD
BRANCH  24  26
HETATM   26  C   UNL     1      43.378 -18.720   6.098  1.00  0.00     0.093 C 
BRANCH  26  27
HETATM   27  C   UNL     1      43.910 -20.133   5.851  1.00  0.00     0.010 C 
HETATM   28  C   UNL     1      43.969 -20.491   4.373  1.00  0.00     0.006 C 
ENDBRANCH  26  27
ENDBRANCH  24  26
ENDBRANCH   1  24
TORSDOF 8
ENDMDL
