MODEL 1
REMARK VINA RESULT:      -7.9      0.000      0.000
REMARK  5 active torsions:
REMARK  status: ('A' for Active; 'I' for Inactive)
REMARK    1  A    between atoms: O_2  and  C_3 
REMARK    2  A    between atoms: C_7  and  C_8 
REMARK       I    between atoms: C_8  and  N_9 
REMARK    3  A    between atoms: N_9  and  C_10 
REMARK    4  A    between atoms: C_10  and  C_11 
REMARK    5  A    between atoms: C_11  and  C_12 
ROOT
HETATM    1  C   UNL     1      41.588 -15.537   1.783  1.00  0.00     0.251 C 
HETATM    2  N   UNL     1      42.155 -14.320   1.485  1.00  0.00    -0.356 N 
HETATM    3  O   UNL     1      40.458 -15.860   1.432  1.00  0.00    -0.268 OA
HETATM    4  H   UNL     1      43.036 -14.034   1.897  1.00  0.00     0.162 HD
ENDROOT
BRANCH   2   5
HETATM    5  C   UNL     1      41.397 -13.261   0.845  1.00  0.00     0.130 C 
BRANCH   5   6
HETATM    6  C   UNL     1      41.523 -11.932   1.590  1.00  0.00     0.098 C 
BRANCH   6   7
HETATM    7  C   UNL     1      42.158 -12.107   2.933  1.00  0.00     0.106 A 
HETATM    8  N   UNL     1      41.709 -12.836   3.938  1.00  0.00    -0.233 NA
HETATM    9  C   UNL     1      42.637 -12.690   4.942  1.00  0.00     0.085 A 
HETATM   10  C   UNL     1      43.674 -11.853   4.543  1.00  0.00     0.062 A 
HETATM   11  C   UNL     1      42.665 -13.245   6.229  1.00  0.00     0.034 A 
HETATM   12  N   UNL     1      43.340 -11.488   3.266  1.00  0.00    -0.343 N 
HETATM   13  C   UNL     1      44.760 -11.533   5.358  1.00  0.00     0.032 A 
HETATM   14  H   UNL     1      43.876 -10.875   2.669  1.00  0.00     0.167 HD
HETATM   15  C   UNL     1      44.772 -12.098   6.639  1.00  0.00     0.002 A 
HETATM   16  C   UNL     1      43.743 -12.939   7.071  1.00  0.00     0.002 A 
ENDBRANCH   6   7
ENDBRANCH   5   6
ENDBRANCH   2   5
BRANCH   1  17
HETATM   17  C   UNL     1      42.421 -16.504   2.546  1.00  0.00     0.035 A 
HETATM   18  C   UNL     1      43.022 -16.181   3.767  1.00  0.00     0.044 A 
HETATM   19  C   UNL     1      43.803 -17.134   4.428  1.00  0.00     0.070 A 
HETATM   20  C   UNL     1      43.969 -18.419   3.893  1.00  0.00     0.111 A 
HETATM   21 CL   UNL     1      44.550 -16.679   5.919  1.00  0.00    -0.081 Cl
HETATM   22  C   UNL     1      43.373 -18.733   2.666  1.00  0.00     0.070 A 
HETATM   23  C   UNL     1      42.590 -17.786   2.005  1.00  0.00     0.044 A 
HETATM   24 CL   UNL     1      43.592 -20.272   1.916  1.00  0.00    -0.081 Cl
BRANCH  20  25
HETATM   25  O   UNL     1      44.784 -19.323   4.527  1.00  0.00    -0.352 OA
HETATM   26  C   UNL     1      44.023 -20.190   5.370  1.00  0.00     0.210 C 
ENDBRANCH  20  25
ENDBRANCH   1  17
TORSDOF 5
ENDMDL
MODEL 2
REMARK VINA RESULT:      -7.9      2.590      5.632
REMARK  5 active torsions:
REMARK  status: ('A' for Active; 'I' for Inactive)
REMARK    1  A    between atoms: O_2  and  C_3 
REMARK    2  A    between atoms: C_7  and  C_8 
REMARK       I    between atoms: C_8  and  N_9 
REMARK    3  A    between atoms: N_9  and  C_10 
REMARK    4  A    between atoms: C_10  and  C_11 
REMARK    5  A    between atoms: C_11  and  C_12 
ROOT
HETATM    1  C   UNL     1      41.479 -15.788   2.572  1.00  0.00     0.251 C 
HETATM    2  N   UNL     1      41.770 -14.508   2.985  1.00  0.00    -0.356 N 
HETATM    3  O   UNL     1      40.575 -16.055   1.788  1.00  0.00    -0.268 OA
HETATM    4  H   UNL     1      42.435 -14.333   3.729  1.00  0.00     0.162 HD
ENDROOT
BRANCH   2   5
HETATM    5  C   UNL     1      40.930 -13.380   2.625  1.00  0.00     0.130 C 
BRANCH   5   6
HETATM    6  C   UNL     1      41.370 -12.732   1.312  1.00  0.00     0.098 C 
BRANCH   6   7
HETATM    7  C   UNL     1      40.401 -13.005   0.206  1.00  0.00     0.106 A 
HETATM    8  N   UNL     1      39.322 -12.308  -0.098  1.00  0.00    -0.233 NA
HETATM    9  C   UNL     1      38.770 -12.940  -1.188  1.00  0.00     0.085 A 
HETATM   10  C   UNL     1      39.528 -14.046  -1.557  1.00  0.00     0.062 A 
HETATM   11  C   UNL     1      37.619 -12.625  -1.923  1.00  0.00     0.034 A 
HETATM   12  N   UNL     1      40.553 -14.071  -0.649  1.00  0.00    -0.343 N 
HETATM   13  C   UNL     1      39.209 -14.871  -2.636  1.00  0.00     0.032 A 
HETATM   14  H   UNL     1      41.297 -14.753  -0.618  1.00  0.00     0.167 HD
HETATM   15  C   UNL     1      38.057 -14.540  -3.360  1.00  0.00     0.002 A 
HETATM   16  C   UNL     1      37.273 -13.438  -3.013  1.00  0.00     0.002 A 
ENDBRANCH   6   7
ENDBRANCH   5   6
ENDBRANCH   2   5
BRANCH   1  17
HETATM   17  C   UNL     1      42.338 -16.881   3.098  1.00  0.00     0.035 A 
HETATM   18  C   UNL     1      42.724 -17.977   2.319  1.00  0.00     0.044 A 
HETATM   19  C   UNL     1      43.524 -18.977   2.879  1.00  0.00     0.070 A 
HETATM   20  C   UNL     1      43.965 -18.882   4.206  1.00  0.00     0.111 A 
HETATM   21 CL   UNL     1      43.952 -20.326   1.886  1.00  0.00    -0.081 Cl
HETATM   22  C   UNL     1      43.567 -17.788   4.984  1.00  0.00     0.070 A 
HETATM   23  C   UNL     1      42.771 -16.786   4.428  1.00  0.00     0.044 A 
HETATM   24 CL   UNL     1      44.015 -17.642   6.645  1.00  0.00    -0.081 Cl
BRANCH  20  25
HETATM   25  O   UNL     1      44.703 -19.900   4.756  1.00  0.00    -0.352 OA
HETATM   26  C   UNL     1      43.850 -20.919   5.284  1.00  0.00     0.210 C 
ENDBRANCH  20  25
ENDBRANCH   1  17
TORSDOF 5
ENDMDL
MODEL 3
REMARK VINA RESULT:      -7.9      0.107      1.863
REMARK  5 active torsions:
REMARK  status: ('A' for Active; 'I' for Inactive)
REMARK    1  A    between atoms: O_2  and  C_3 
REMARK    2  A    between atoms: C_7  and  C_8 
REMARK       I    between atoms: C_8  and  N_9 
REMARK    3  A    between atoms: N_9  and  C_10 
REMARK    4  A    between atoms: C_10  and  C_11 
REMARK    5  A    between atoms: C_11  and  C_12 
ROOT
HETATM    1  C   UNL     1      41.541 -15.627   1.823  1.00  0.00     0.251 C 
HETATM    2  N   UNL     1      42.108 -14.416   1.499  1.00  0.00    -0.356 N 
HETATM    3  O   UNL     1      40.380 -15.922   1.558  1.00  0.00    -0.268 OA
HETATM    4  H   UNL     1      43.024 -14.154   1.843  1.00  0.00     0.162 HD
ENDROOT
BRANCH   2   5
HETATM    5  C   UNL     1      41.324 -13.332   0.936  1.00  0.00     0.130 C 
BRANCH   5   6
HETATM    6  C   UNL     1      41.674 -11.983   1.563  1.00  0.00     0.098 C 
BRANCH   6   7
HETATM    7  C   UNL     1      42.273 -12.144   2.925  1.00  0.00     0.106 A 
HETATM    8  N   UNL     1      41.795 -12.857   3.927  1.00  0.00    -0.233 NA
HETATM    9  C   UNL     1      42.696 -12.702   4.954  1.00  0.00     0.085 A 
HETATM   10  C   UNL     1      43.747 -11.875   4.571  1.00  0.00     0.062 A 
HETATM   11  C   UNL     1      42.688 -13.240   6.248  1.00  0.00     0.034 A 
HETATM   12  N   UNL     1      43.448 -11.525   3.281  1.00  0.00    -0.343 N 
HETATM   13  C   UNL     1      44.813 -11.548   5.411  1.00  0.00     0.032 A 
HETATM   14  H   UNL     1      44.002 -10.922   2.691  1.00  0.00     0.167 HD
HETATM   15  C   UNL     1      44.788 -12.097   6.698  1.00  0.00     0.002 A 
HETATM   16  C   UNL     1      43.745 -12.928   7.114  1.00  0.00     0.002 A 
ENDBRANCH   6   7
ENDBRANCH   5   6
ENDBRANCH   2   5
BRANCH   1  17
HETATM   17  C   UNL     1      42.411 -16.622   2.504  1.00  0.00     0.035 A 
HETATM   18  C   UNL     1      42.658 -17.893   1.975  1.00  0.00     0.044 A 
HETATM   19  C   UNL     1      43.476 -18.786   2.673  1.00  0.00     0.070 A 
HETATM   20  C   UNL     1      44.074 -18.412   3.885  1.00  0.00     0.111 A 
HETATM   21 CL   UNL     1      43.729 -20.356   1.995  1.00  0.00    -0.081 Cl
HETATM   22  C   UNL     1      43.815 -17.142   4.413  1.00  0.00     0.070 A 
HETATM   23  C   UNL     1      43.001 -16.247   3.718  1.00  0.00     0.044 A 
HETATM   24 CL   UNL     1      44.462 -16.641   5.933  1.00  0.00    -0.081 Cl
BRANCH  20  25
HETATM   25  O   UNL     1      44.830 -19.321   4.583  1.00  0.00    -0.352 OA
HETATM   26  C   UNL     1      44.005 -20.121   5.434  1.00  0.00     0.210 C 
ENDBRANCH  20  25
ENDBRANCH   1  17
TORSDOF 5
ENDMDL
MODEL 4
REMARK VINA RESULT:      -7.6      2.545      5.268
REMARK  5 active torsions:
REMARK  status: ('A' for Active; 'I' for Inactive)
REMARK    1  A    between atoms: O_2  and  C_3 
REMARK    2  A    between atoms: C_7  and  C_8 
REMARK       I    between atoms: C_8  and  N_9 
REMARK    3  A    between atoms: N_9  and  C_10 
REMARK    4  A    between atoms: C_10  and  C_11 
REMARK    5  A    between atoms: C_11  and  C_12 
ROOT
HETATM    1  C   UNL     1      41.410 -14.908   2.689  1.00  0.00     0.251 C 
HETATM    2  N   UNL     1      41.797 -13.610   2.929  1.00  0.00    -0.356 N 
HETATM    3  O   UNL     1      40.402 -15.207   2.058  1.00  0.00    -0.268 OA
HETATM    4  H   UNL     1      42.560 -13.396   3.560  1.00  0.00     0.162 HD
ENDROOT
BRANCH   2   5
HETATM    5  C   UNL     1      40.956 -12.484   2.567  1.00  0.00     0.130 C 
BRANCH   5   6
HETATM    6  C   UNL     1      41.313 -11.918   1.192  1.00  0.00     0.098 C 
BRANCH   6   7
HETATM    7  C   UNL     1      40.390 -12.421   0.128  1.00  0.00     0.106 A 
HETATM    8  N   UNL     1      39.215 -11.922  -0.208  1.00  0.00    -0.233 NA
HETATM    9  C   UNL     1      38.759 -12.714  -1.237  1.00  0.00     0.085 A 
HETATM   10  C   UNL     1      39.675 -13.717  -1.534  1.00  0.00     0.062 A 
HETATM   11  C   UNL     1      37.569 -12.636  -1.973  1.00  0.00     0.034 A 
HETATM   12  N   UNL     1      40.698 -13.515  -0.646  1.00  0.00    -0.343 N 
HETATM   13  C   UNL     1      39.479 -14.663  -2.542  1.00  0.00     0.032 A 
HETATM   14  H   UNL     1      41.537 -14.071  -0.577  1.00  0.00     0.167 HD
HETATM   15  C   UNL     1      38.285 -14.568  -3.267  1.00  0.00     0.002 A 
HETATM   16  C   UNL     1      37.344 -13.574  -2.990  1.00  0.00     0.002 A 
ENDBRANCH   6   7
ENDBRANCH   5   6
ENDBRANCH   2   5
BRANCH   1  17
HETATM   17  C   UNL     1      42.294 -15.986   3.208  1.00  0.00     0.035 A 
HETATM   18  C   UNL     1      43.047 -15.843   4.378  1.00  0.00     0.044 A 
HETATM   19  C   UNL     1      43.867 -16.891   4.805  1.00  0.00     0.070 A 
HETATM   20  C   UNL     1      43.924 -18.094   4.087  1.00  0.00     0.111 A 
HETATM   21 CL   UNL     1      44.802 -16.659   6.241  1.00  0.00    -0.081 Cl
HETATM   22  C   UNL     1      43.175 -18.227   2.912  1.00  0.00     0.070 A 
HETATM   23  C   UNL     1      42.353 -17.184   2.484  1.00  0.00     0.044 A 
HETATM   24 CL   UNL     1      43.250 -19.653   1.942  1.00  0.00    -0.081 Cl
BRANCH  20  25
HETATM   25  O   UNL     1      44.777 -19.091   4.491  1.00  0.00    -0.352 OA
HETATM   26  C   UNL     1      44.087 -20.062   5.281  1.00  0.00     0.210 C 
ENDBRANCH  20  25
ENDBRANCH   1  17
TORSDOF 5
ENDMDL
MODEL 5
REMARK VINA RESULT:      -7.3      1.160      2.426
REMARK  5 active torsions:
REMARK  status: ('A' for Active; 'I' for Inactive)
REMARK    1  A    between atoms: O_2  and  C_3 
REMARK    2  A    between atoms: C_7  and  C_8 
REMARK       I    between atoms: C_8  and  N_9 
REMARK    3  A    between atoms: N_9  and  C_10 
REMARK    4  A    between atoms: C_10  and  C_11 
REMARK    5  A    between atoms: C_11  and  C_12 
ROOT
HETATM    1  C   UNL     1      42.056 -15.024   2.105  1.00  0.00     0.251 C 
HETATM    2  N   UNL     1      41.813 -13.927   2.898  1.00  0.00    -0.356 N 
HETATM    3  O   UNL     1      41.760 -15.078   0.916  1.00  0.00    -0.268 OA
HETATM    4  H   UNL     1      41.950 -13.961   3.901  1.00  0.00     0.162 HD
ENDROOT
BRANCH   2   5
HETATM    5  C   UNL     1      41.054 -12.789   2.413  1.00  0.00     0.130 C 
BRANCH   5   6
HETATM    6  C   UNL     1      41.875 -11.499   2.433  1.00  0.00     0.098 C 
BRANCH   6   7
HETATM    7  C   UNL     1      42.671 -11.369   3.693  1.00  0.00     0.106 A 
HETATM    8  N   UNL     1      43.950 -11.648   3.861  1.00  0.00    -0.233 NA
HETATM    9  C   UNL     1      44.221 -11.356   5.178  1.00  0.00     0.085 A 
HETATM   10  C   UNL     1      43.084 -10.890   5.827  1.00  0.00     0.062 A 
HETATM   11  C   UNL     1      45.422 -11.462   5.893  1.00  0.00     0.034 A 
HETATM   12  N   UNL     1      42.110 -10.917   4.865  1.00  0.00    -0.343 N 
HETATM   13  C   UNL     1      43.068 -10.510   7.170  1.00  0.00     0.032 A 
HETATM   14  H   UNL     1      41.147 -10.645   4.994  1.00  0.00     0.167 HD
HETATM   15  C   UNL     1      44.276 -10.620   7.868  1.00  0.00     0.002 A 
HETATM   16  C   UNL     1      45.435 -11.088   7.245  1.00  0.00     0.002 A 
ENDBRANCH   6   7
ENDBRANCH   5   6
ENDBRANCH   2   5
BRANCH   1  17
HETATM   17  C   UNL     1      42.740 -16.182   2.741  1.00  0.00     0.035 A 
HETATM   18  C   UNL     1      42.799 -17.444   2.142  1.00  0.00     0.044 A 
HETATM   19  C   UNL     1      43.448 -18.493   2.800  1.00  0.00     0.070 A 
HETATM   20  C   UNL     1      44.062 -18.287   4.043  1.00  0.00     0.111 A 
HETATM   21 CL   UNL     1      43.471 -20.042   2.033  1.00  0.00    -0.081 Cl
HETATM   22  C   UNL     1      43.990 -17.025   4.643  1.00  0.00     0.070 A 
HETATM   23  C   UNL     1      43.347 -15.974   3.988  1.00  0.00     0.044 A 
HETATM   24 CL   UNL     1      44.664 -16.718   6.203  1.00  0.00    -0.081 Cl
BRANCH  20  25
HETATM   25  O   UNL     1      44.646 -19.342   4.700  1.00  0.00    -0.352 OA
HETATM   26  C   UNL     1      43.709 -19.980   5.571  1.00  0.00     0.210 C 
ENDBRANCH  20  25
ENDBRANCH   1  17
TORSDOF 5
ENDMDL
MODEL 6
REMARK VINA RESULT:      -7.3      4.021      7.497
REMARK  5 active torsions:
REMARK  status: ('A' for Active; 'I' for Inactive)
REMARK    1  A    between atoms: O_2  and  C_3 
REMARK    2  A    between atoms: C_7  and  C_8 
REMARK       I    between atoms: C_8  and  N_9 
REMARK    3  A    between atoms: N_9  and  C_10 
REMARK    4  A    between atoms: C_10  and  C_11 
REMARK    5  A    between atoms: C_11  and  C_12 
ROOT
HETATM    1  C   UNL     1      40.368 -14.560   1.402  1.00  0.00     0.251 C 
HETATM    2  N   UNL     1      41.038 -13.874   2.388  1.00  0.00    -0.356 N 
HETATM    3  O   UNL     1      40.177 -15.772   1.432  1.00  0.00    -0.268 OA
HETATM    4  H   UNL     1      41.291 -12.900   2.273  1.00  0.00     0.162 HD
ENDROOT
BRANCH   2   5
HETATM    5  C   UNL     1      41.697 -14.562   3.483  1.00  0.00     0.130 C 
BRANCH   5   6
HETATM    6  C   UNL     1      43.125 -14.974   3.127  1.00  0.00     0.098 C 
BRANCH   6   7
HETATM    7  C   UNL     1      43.362 -16.429   3.380  1.00  0.00     0.106 A 
HETATM    8  N   UNL     1      43.686 -16.997   4.526  1.00  0.00    -0.233 NA
HETATM    9  C   UNL     1      43.781 -18.342   4.258  1.00  0.00     0.085 A 
HETATM   10  C   UNL     1      43.509 -18.602   2.919  1.00  0.00     0.062 A 
HETATM   11  C   UNL     1      44.093 -19.410   5.111  1.00  0.00     0.034 A 
HETATM   12  N   UNL     1      43.255 -17.368   2.381  1.00  0.00    -0.343 N 
HETATM   13  C   UNL     1      43.523 -19.884   2.367  1.00  0.00     0.032 A 
HETATM   14  H   UNL     1      43.023 -17.183   1.416  1.00  0.00     0.167 HD
HETATM   15  C   UNL     1      43.835 -20.937   3.234  1.00  0.00     0.002 A 
HETATM   16  C   UNL     1      44.117 -20.709   4.583  1.00  0.00     0.002 A 
ENDBRANCH   6   7
ENDBRANCH   5   6
ENDBRANCH   2   5
BRANCH   1  17
HETATM   17  C   UNL     1      39.834 -13.764   0.265  1.00  0.00     0.035 A 
HETATM   18  C   UNL     1      39.683 -12.375   0.324  1.00  0.00     0.044 A 
HETATM   19  C   UNL     1      39.163 -11.687  -0.776  1.00  0.00     0.070 A 
HETATM   20  C   UNL     1      38.814 -12.372  -1.949  1.00  0.00     0.111 A 
HETATM   21 CL   UNL     1      38.967  -9.975  -0.646  1.00  0.00    -0.081 Cl
HETATM   22  C   UNL     1      38.958 -13.764  -1.998  1.00  0.00     0.070 A 
HETATM   23  C   UNL     1      39.480 -14.453  -0.903  1.00  0.00     0.044 A 
HETATM   24 CL   UNL     1      38.484 -14.679  -3.383  1.00  0.00    -0.081 Cl
BRANCH  20  25
HETATM   25  O   UNL     1      38.253 -11.689  -2.998  1.00  0.00    -0.352 OA
HETATM   26  C   UNL     1      36.840 -11.562  -2.826  1.00  0.00     0.210 C 
ENDBRANCH  20  25
ENDBRANCH   1  17
TORSDOF 5
ENDMDL
MODEL 7
REMARK VINA RESULT:      -7.2      2.117      2.833
REMARK  5 active torsions:
REMARK  status: ('A' for Active; 'I' for Inactive)
REMARK    1  A    between atoms: O_2  and  C_3 
REMARK    2  A    between atoms: C_7  and  C_8 
REMARK       I    between atoms: C_8  and  N_9 
REMARK    3  A    between atoms: N_9  and  C_10 
REMARK    4  A    between atoms: C_10  and  C_11 
REMARK    5  A    between atoms: C_11  and  C_12 
ROOT
HETATM    1  C   UNL     1      40.884 -14.185   4.352  1.00  0.00     0.251 C 
HETATM    2  N   UNL     1      40.686 -13.461   5.504  1.00  0.00    -0.356 N 
HETATM    3  O   UNL     1      40.298 -13.954   3.300  1.00  0.00    -0.268 OA
HETATM    4  H   UNL     1      41.086 -13.755   6.387  1.00  0.00     0.162 HD
ENDROOT
BRANCH   2   5
HETATM    5  C   UNL     1      39.654 -12.445   5.599  1.00  0.00     0.130 C 
BRANCH   5   6
HETATM    6  C   UNL     1      40.235 -11.031   5.568  1.00  0.00     0.098 C 
BRANCH   6   7
HETATM    7  C   UNL     1      41.651 -11.003   6.048  1.00  0.00     0.106 A 
HETATM    8  N   UNL     1      42.731 -11.338   5.367  1.00  0.00    -0.233 NA
HETATM    9  C   UNL     1      43.786 -11.133   6.225  1.00  0.00     0.085 A 
HETATM   10  C   UNL     1      43.342 -10.664   7.456  1.00  0.00     0.062 A 
HETATM   11  C   UNL     1      45.160 -11.324   6.023  1.00  0.00     0.034 A 
HETATM   12  N   UNL     1      41.980 -10.600   7.321  1.00  0.00    -0.343 N 
HETATM   13  C   UNL     1      44.196 -10.362   8.518  1.00  0.00     0.032 A 
HETATM   14  H   UNL     1      41.331 -10.300   8.034  1.00  0.00     0.167 HD
HETATM   15  C   UNL     1      45.564 -10.557   8.297  1.00  0.00     0.002 A 
HETATM   16  C   UNL     1      46.042 -11.030   7.073  1.00  0.00     0.002 A 
ENDBRANCH   6   7
ENDBRANCH   5   6
ENDBRANCH   2   5
BRANCH   1  17
HETATM   17  C   UNL     1      41.887 -15.282   4.405  1.00  0.00     0.035 A 
HETATM   18  C   UNL     1      42.868 -15.358   5.398  1.00  0.00     0.044 A 
HETATM   19  C   UNL     1      43.789 -16.410   5.383  1.00  0.00     0.070 A 
HETATM   20  C   UNL     1      43.724 -17.404   4.397  1.00  0.00     0.111 A 
HETATM   21 CL   UNL     1      45.001 -16.446   6.615  1.00  0.00    -0.081 Cl
HETATM   22  C   UNL     1      42.746 -17.316   3.399  1.00  0.00     0.070 A 
HETATM   23  C   UNL     1      41.823 -16.270   3.413  1.00  0.00     0.044 A 
HETATM   24 CL   UNL     1      42.652 -18.466   2.115  1.00  0.00    -0.081 Cl
BRANCH  20  25
HETATM   25  O   UNL     1      44.670 -18.398   4.365  1.00  0.00    -0.352 OA
HETATM   26  C   UNL     1      44.191 -19.577   5.014  1.00  0.00     0.210 C 
ENDBRANCH  20  25
ENDBRANCH   1  17
TORSDOF 5
ENDMDL
MODEL 8
REMARK VINA RESULT:      -7.2      3.777      7.488
REMARK  5 active torsions:
REMARK  status: ('A' for Active; 'I' for Inactive)
REMARK    1  A    between atoms: O_2  and  C_3 
REMARK    2  A    between atoms: C_7  and  C_8 
REMARK       I    between atoms: C_8  and  N_9 
REMARK    3  A    between atoms: N_9  and  C_10 
REMARK    4  A    between atoms: C_10  and  C_11 
REMARK    5  A    between atoms: C_11  and  C_12 
ROOT
HETATM    1  C   UNL     1      42.810 -13.473   5.390  1.00  0.00     0.251 C 
HETATM    2  N   UNL     1      42.358 -13.342   4.097  1.00  0.00    -0.356 N 
HETATM    3  O   UNL     1      43.001 -14.556   5.933  1.00  0.00    -0.268 OA
HETATM    4  H   UNL     1      42.088 -12.441   3.722  1.00  0.00     0.162 HD
ENDROOT
BRANCH   2   5
HETATM    5  C   UNL     1      41.938 -14.491   3.316  1.00  0.00     0.130 C 
BRANCH   5   6
HETATM    6  C   UNL     1      43.094 -15.102   2.525  1.00  0.00     0.098 C 
BRANCH   6   7
HETATM    7  C   UNL     1      43.298 -16.544   2.866  1.00  0.00     0.106 A 
HETATM    8  N   UNL     1      43.202 -17.578   2.051  1.00  0.00    -0.233 NA
HETATM    9  C   UNL     1      43.487 -18.682   2.820  1.00  0.00     0.085 A 
HETATM   10  C   UNL     1      43.763 -18.315   4.132  1.00  0.00     0.062 A 
HETATM   11  C   UNL     1      43.533 -20.037   2.465  1.00  0.00     0.034 A 
HETATM   12  N   UNL     1      43.626 -16.952   4.137  1.00  0.00    -0.343 N 
HETATM   13  C   UNL     1      44.093 -19.231   5.133  1.00  0.00     0.032 A 
HETATM   14  H   UNL     1      43.752 -16.351   4.938  1.00  0.00     0.167 HD
HETATM   15  C   UNL     1      44.137 -20.579   4.760  1.00  0.00     0.002 A 
HETATM   16  C   UNL     1      43.861 -20.980   3.450  1.00  0.00     0.002 A 
ENDBRANCH   6   7
ENDBRANCH   5   6
ENDBRANCH   2   5
BRANCH   1  17
HETATM   17  C   UNL     1      43.100 -12.219   6.136  1.00  0.00     0.035 A 
HETATM   18  C   UNL     1      42.119 -11.259   6.405  1.00  0.00     0.044 A 
HETATM   19  C   UNL     1      42.462 -10.096   7.102  1.00  0.00     0.070 A 
HETATM   20  C   UNL     1      43.773  -9.894   7.556  1.00  0.00     0.111 A 
HETATM   21 CL   UNL     1      41.223  -8.924   7.386  1.00  0.00    -0.081 Cl
HETATM   22  C   UNL     1      44.751 -10.854   7.275  1.00  0.00     0.070 A 
HETATM   23  C   UNL     1      44.413 -12.018   6.583  1.00  0.00     0.044 A 
HETATM   24 CL   UNL     1      46.399 -10.638   7.743  1.00  0.00    -0.081 Cl
BRANCH  20  25
HETATM   25  O   UNL     1      44.103  -8.722   8.189  1.00  0.00    -0.352 OA
HETATM   26  C   UNL     1      43.982  -8.858   9.607  1.00  0.00     0.210 C 
ENDBRANCH  20  25
ENDBRANCH   1  17
TORSDOF 5
ENDMDL
MODEL 9
REMARK VINA RESULT:      -7.1      3.074      5.679
REMARK  5 active torsions:
REMARK  status: ('A' for Active; 'I' for Inactive)
REMARK    1  A    between atoms: O_2  and  C_3 
REMARK    2  A    between atoms: C_7  and  C_8 
REMARK       I    between atoms: C_8  and  N_9 
REMARK    3  A    between atoms: N_9  and  C_10 
REMARK    4  A    between atoms: C_10  and  C_11 
REMARK    5  A    between atoms: C_11  and  C_12 
ROOT
HETATM    1  C   UNL     1      42.079 -15.431   2.176  1.00  0.00     0.251 C 
HETATM    2  N   UNL     1      40.708 -15.365   2.265  1.00  0.00    -0.356 N 
HETATM    3  O   UNL     1      42.754 -14.631   1.537  1.00  0.00    -0.268 OA
HETATM    4  H   UNL     1      40.171 -16.111   2.691  1.00  0.00     0.162 HD
ENDROOT
BRANCH   2   5
HETATM    5  C   UNL     1      39.938 -14.413   1.485  1.00  0.00     0.130 C 
BRANCH   5   6
HETATM    6  C   UNL     1      39.852 -14.812   0.012  1.00  0.00     0.098 C 
BRANCH   6   7
HETATM    7  C   UNL     1      39.562 -13.636  -0.865  1.00  0.00     0.106 A 
HETATM    8  N   UNL     1      40.437 -12.884  -1.506  1.00  0.00    -0.233 NA
HETATM    9  C   UNL     1      39.692 -11.946  -2.182  1.00  0.00     0.085 A 
HETATM   10  C   UNL     1      38.334 -12.128  -1.948  1.00  0.00     0.062 A 
HETATM   11  C   UNL     1      40.107 -10.902  -3.021  1.00  0.00     0.034 A 
HETATM   12  N   UNL     1      38.279 -13.202  -1.100  1.00  0.00    -0.343 N 
HETATM   13  C   UNL     1      37.342 -11.325  -2.513  1.00  0.00     0.032 A 
HETATM   14  H   UNL     1      37.437 -13.609  -0.719  1.00  0.00     0.167 HD
HETATM   15  C   UNL     1      37.775 -10.290  -3.351  1.00  0.00     0.002 A 
HETATM   16  C   UNL     1      39.133 -10.078  -3.602  1.00  0.00     0.002 A 
ENDBRANCH   6   7
ENDBRANCH   5   6
ENDBRANCH   2   5
BRANCH   1  17
HETATM   17  C   UNL     1      42.755 -16.522   2.928  1.00  0.00     0.035 A 
HETATM   18  C   UNL     1      43.170 -16.377   4.255  1.00  0.00     0.044 A 
HETATM   19  C   UNL     1      43.811 -17.439   4.900  1.00  0.00     0.070 A 
HETATM   20  C   UNL     1      44.020 -18.657   4.238  1.00  0.00     0.111 A 
HETATM   21 CL   UNL     1      44.332 -17.204   6.531  1.00  0.00    -0.081 Cl
HETATM   22  C   UNL     1      43.611 -18.792   2.906  1.00  0.00     0.070 A 
HETATM   23  C   UNL     1      42.968 -17.736   2.260  1.00  0.00     0.044 A 
HETATM   24 CL   UNL     1      43.899 -20.239   2.009  1.00  0.00    -0.081 Cl
BRANCH  20  25
HETATM   25  O   UNL     1      44.700 -19.669   4.868  1.00  0.00    -0.352 OA
HETATM   26  C   UNL     1      43.795 -20.559   5.526  1.00  0.00     0.210 C 
ENDBRANCH  20  25
ENDBRANCH   1  17
TORSDOF 5
ENDMDL
MODEL 10
REMARK VINA RESULT:      -7.0      5.675      9.301
REMARK  5 active torsions:
REMARK  status: ('A' for Active; 'I' for Inactive)
REMARK    1  A    between atoms: O_2  and  C_3 
REMARK    2  A    between atoms: C_7  and  C_8 
REMARK       I    between atoms: C_8  and  N_9 
REMARK    3  A    between atoms: N_9  and  C_10 
REMARK    4  A    between atoms: C_10  and  C_11 
REMARK    5  A    between atoms: C_11  and  C_12 
ROOT
HETATM    1  C   UNL     1      44.397 -10.997   8.271  1.00  0.00     0.251 C 
HETATM    2  N   UNL     1      43.460 -11.662   7.514  1.00  0.00    -0.356 N 
HETATM    3  O   UNL     1      45.605 -11.176   8.161  1.00  0.00    -0.268 OA
HETATM    4  H   UNL     1      42.471 -11.588   7.717  1.00  0.00     0.162 HD
ENDROOT
BRANCH   2   5
HETATM    5  C   UNL     1      43.831 -12.739   6.614  1.00  0.00     0.130 C 
BRANCH   5   6
HETATM    6  C   UNL     1      43.418 -14.108   7.155  1.00  0.00     0.098 C 
BRANCH   6   7
HETATM    7  C   UNL     1      43.520 -15.171   6.108  1.00  0.00     0.106 A 
HETATM    8  N   UNL     1      44.114 -16.344   6.218  1.00  0.00    -0.233 NA
HETATM    9  C   UNL     1      43.930 -16.966   5.005  1.00  0.00     0.085 A 
HETATM   10  C   UNL     1      43.209 -16.155   4.136  1.00  0.00     0.062 A 
HETATM   11  C   UNL     1      44.350 -18.231   4.570  1.00  0.00     0.034 A 
HETATM   12  N   UNL     1      42.970 -15.016   4.857  1.00  0.00    -0.343 N 
HETATM   13  C   UNL     1      42.868 -16.534   2.836  1.00  0.00     0.032 A 
HETATM   14  H   UNL     1      42.468 -14.205   4.527  1.00  0.00     0.167 HD
HETATM   15  C   UNL     1      43.293 -17.801   2.420  1.00  0.00     0.002 A 
HETATM   16  C   UNL     1      44.022 -18.638   3.269  1.00  0.00     0.002 A 
ENDBRANCH   6   7
ENDBRANCH   5   6
ENDBRANCH   2   5
BRANCH   1  17
HETATM   17  C   UNL     1      43.893  -9.994   9.246  1.00  0.00     0.035 A 
HETATM   18  C   UNL     1      43.801  -8.631   8.945  1.00  0.00     0.044 A 
HETATM   19  C   UNL     1      43.329  -7.739   9.913  1.00  0.00     0.070 A 
HETATM   20  C   UNL     1      42.922  -8.199  11.173  1.00  0.00     0.111 A 
HETATM   21 CL   UNL     1      43.260  -6.061   9.506  1.00  0.00    -0.081 Cl
HETATM   22  C   UNL     1      43.026  -9.563  11.471  1.00  0.00     0.070 A 
HETATM   23  C   UNL     1      43.493 -10.457  10.507  1.00  0.00     0.044 A 
HETATM   24 CL   UNL     1      42.608 -10.189  13.025  1.00  0.00    -0.081 Cl
BRANCH  20  25
HETATM   25  O   UNL     1      42.514  -7.303  12.129  1.00  0.00    -0.352 OA
HETATM   26  C   UNL     1      41.096  -7.129  12.091  1.00  0.00     0.210 C 
ENDBRANCH  20  25
ENDBRANCH   1  17
TORSDOF 5
ENDMDL
