MODEL 1
REMARK VINA RESULT:      -9.5      0.000      0.000
REMARK  7 active torsions:
REMARK  status: ('A' for Active; 'I' for Inactive)
REMARK    1  A    between atoms: C_3  and  O_4 
REMARK    2  A    between atoms: O_4  and  C_5 
REMARK    3  A    between atoms: C_5  and  C_6 
REMARK       I    between atoms: C_6  and  N_7 
REMARK    4  A    between atoms: N_7  and  C_8 
REMARK    5  A    between atoms: C_11  and  N_12 
REMARK    6  A    between atoms: N_15  and  C_17 
REMARK    7  A    between atoms: C_17  and  C_18 
ROOT
HETATM    1  C   UNL     1      42.910 -13.216   5.212  1.00  0.00     0.034 A 
HETATM    2  C   UNL     1      42.158 -12.047   5.137  1.00  0.00     0.032 A 
HETATM    3  C   UNL     1      42.339 -11.014   6.071  1.00  0.00     0.031 A 
HETATM    4  C   UNL     1      43.260 -11.120   7.120  1.00  0.00     0.030 A 
HETATM    5  C   UNL     1      44.014 -12.302   7.173  1.00  0.00     0.031 A 
HETATM    6  C   UNL     1      43.848 -13.332   6.238  1.00  0.00     0.032 A 
ENDROOT
BRANCH   4   7
HETATM    7  N   UNL     1      43.480 -10.111   8.055  1.00  0.00    -0.378 N 
HETATM    8  C   UNL     1      44.369 -10.419   9.193  1.00  0.00     0.150 C 
HETATM    9  C   UNL     1      43.546 -10.773  10.451  1.00  0.00     0.255 C 
HETATM   10  N   UNL     1      42.553  -9.649  10.764  1.00  0.00    -0.064 N 
HETATM   11  H   UNL     1      43.111  -8.798  10.900  1.00  0.00     0.280 HD
HETATM   12  C   UNL     1      41.632  -9.404   9.571  1.00  0.00     0.255 C 
HETATM   13  C   UNL     1      42.461  -9.081   8.311  1.00  0.00     0.150 C 
BRANCH  10  14
HETATM   14  C   UNL     1      41.779  -9.876  12.037  1.00  0.00     0.273 C 
BRANCH  14  15
HETATM   15  C   UNL     1      42.123  -8.889  13.119  1.00  0.00    -0.033 A 
HETATM   16  C   UNL     1      41.407  -8.870  14.329  1.00  0.00     0.009 A 
HETATM   17  C   UNL     1      41.710  -7.930  15.314  1.00  0.00     0.001 A 
HETATM   18  C   UNL     1      42.733  -7.007  15.108  1.00  0.00     0.000 A 
HETATM   19  C   UNL     1      43.460  -7.025  13.920  1.00  0.00     0.001 A 
HETATM   20  C   UNL     1      43.158  -7.960  12.929  1.00  0.00     0.009 A 
ENDBRANCH  14  15
ENDBRANCH  10  14
ENDBRANCH   4   7
BRANCH   1  21
HETATM   21  N   UNL     1      42.810 -14.286   4.301  1.00  0.00    -0.325 N 
HETATM   22  C   UNL     1      41.811 -15.253   4.239  1.00  0.00     0.246 C 
HETATM   23  O   UNL     1      40.876 -15.361   5.026  1.00  0.00    -0.271 OA
HETATM   24  H   UNL     1      43.568 -14.372   3.635  1.00  0.00     0.169 HD
BRANCH  22  25
HETATM   25  C   UNL     1      42.013 -16.202   3.049  1.00  0.00     0.278 C 
BRANCH  25  26
HETATM   26  O   UNL     1      43.376 -16.586   2.886  1.00  0.00    -0.342 OA
BRANCH  26  27
HETATM   27  C   UNL     1      43.537 -17.917   3.163  1.00  0.00     0.075 A 
HETATM   28  C   UNL     1      44.076 -18.339   4.385  1.00  0.00    -0.029 A 
HETATM   29  C   UNL     1      44.490 -17.360   5.445  1.00  0.00     0.051 C 
HETATM   30  C   UNL     1      44.192 -19.715   4.622  1.00  0.00     0.009 A 
HETATM   31  C   UNL     1      43.818 -20.640   3.644  1.00  0.00     0.001 A 
HETATM   32  C   UNL     1      43.323 -20.201   2.417  1.00  0.00     0.003 A 
HETATM   33  C   UNL     1      43.186 -18.837   2.172  1.00  0.00     0.037 A 
ENDBRANCH  26  27
ENDBRANCH  25  26
ENDBRANCH  22  25
ENDBRANCH   1  21
TORSDOF 7
ENDMDL
MODEL 2
REMARK VINA RESULT:      -9.2      1.107      1.473
REMARK  7 active torsions:
REMARK  status: ('A' for Active; 'I' for Inactive)
REMARK    1  A    between atoms: C_3  and  O_4 
REMARK    2  A    between atoms: O_4  and  C_5 
REMARK    3  A    between atoms: C_5  and  C_6 
REMARK       I    between atoms: C_6  and  N_7 
REMARK    4  A    between atoms: N_7  and  C_8 
REMARK    5  A    between atoms: C_11  and  N_12 
REMARK    6  A    between atoms: N_15  and  C_17 
REMARK    7  A    between atoms: C_17  and  C_18 
ROOT
HETATM    1  C   UNL     1      43.062 -12.786   5.698  1.00  0.00     0.034 A 
HETATM    2  C   UNL     1      44.201 -12.774   6.497  1.00  0.00     0.032 A 
HETATM    3  C   UNL     1      44.391 -11.772   7.463  1.00  0.00     0.031 A 
HETATM    4  C   UNL     1      43.463 -10.740   7.650  1.00  0.00     0.030 A 
HETATM    5  C   UNL     1      42.318 -10.776   6.840  1.00  0.00     0.031 A 
HETATM    6  C   UNL     1      42.115 -11.779   5.883  1.00  0.00     0.032 A 
ENDROOT
BRANCH   4   7
HETATM    7  N   UNL     1      43.609  -9.740   8.608  1.00  0.00    -0.378 N 
HETATM    8  C   UNL     1      44.652  -9.931   9.637  1.00  0.00     0.150 C 
HETATM    9  C   UNL     1      44.034 -10.460  10.950  1.00  0.00     0.255 C 
HETATM   10  N   UNL     1      42.908  -9.531  11.414  1.00  0.00    -0.064 N 
HETATM   11  H   UNL     1      43.328  -8.603  11.537  1.00  0.00     0.280 HD
HETATM   12  C   UNL     1      41.839  -9.407  10.330  1.00  0.00     0.255 C 
HETATM   13  C   UNL     1      42.467  -8.907   9.014  1.00  0.00     0.150 C 
BRANCH  10  14
HETATM   14  C   UNL     1      42.319  -9.928  12.744  1.00  0.00     0.273 C 
BRANCH  14  15
HETATM   15  C   UNL     1      42.296  -8.799  13.738  1.00  0.00    -0.033 A 
HETATM   16  C   UNL     1      41.381  -8.799  14.805  1.00  0.00     0.009 A 
HETATM   17  C   UNL     1      41.344  -7.732  15.703  1.00  0.00     0.001 A 
HETATM   18  C   UNL     1      42.221  -6.660  15.552  1.00  0.00     0.000 A 
HETATM   19  C   UNL     1      43.142  -6.655  14.507  1.00  0.00     0.001 A 
HETATM   20  C   UNL     1      43.181  -7.718  13.603  1.00  0.00     0.009 A 
ENDBRANCH  14  15
ENDBRANCH  10  14
ENDBRANCH   4   7
BRANCH   1  21
HETATM   21  N   UNL     1      42.782 -13.769   4.728  1.00  0.00    -0.325 N 
HETATM   22  C   UNL     1      43.081 -13.726   3.369  1.00  0.00     0.246 C 
HETATM   23  O   UNL     1      43.591 -12.777   2.784  1.00  0.00    -0.271 OA
HETATM   24  H   UNL     1      42.280 -14.586   5.057  1.00  0.00     0.169 HD
BRANCH  22  25
HETATM   25  C   UNL     1      42.688 -15.029   2.660  1.00  0.00     0.278 C 
BRANCH  25  26
HETATM   26  O   UNL     1      42.168 -16.003   3.561  1.00  0.00    -0.342 OA
BRANCH  26  27
HETATM   27  C   UNL     1      42.809 -17.201   3.397  1.00  0.00     0.075 A 
HETATM   28  C   UNL     1      43.770 -17.637   4.319  1.00  0.00    -0.029 A 
HETATM   29  C   UNL     1      44.131 -16.821   5.526  1.00  0.00     0.051 C 
HETATM   30  C   UNL     1      44.374 -18.884   4.112  1.00  0.00     0.009 A 
HETATM   31  C   UNL     1      44.054 -19.653   2.990  1.00  0.00     0.001 A 
HETATM   32  C   UNL     1      43.126 -19.184   2.060  1.00  0.00     0.003 A 
HETATM   33  C   UNL     1      42.506 -17.953   2.260  1.00  0.00     0.037 A 
ENDBRANCH  26  27
ENDBRANCH  25  26
ENDBRANCH  22  25
ENDBRANCH   1  21
TORSDOF 7
ENDMDL
MODEL 3
REMARK VINA RESULT:      -8.2      3.317     11.988
REMARK  7 active torsions:
REMARK  status: ('A' for Active; 'I' for Inactive)
REMARK    1  A    between atoms: C_3  and  O_4 
REMARK    2  A    between atoms: O_4  and  C_5 
REMARK    3  A    between atoms: C_5  and  C_6 
REMARK       I    between atoms: C_6  and  N_7 
REMARK    4  A    between atoms: N_7  and  C_8 
REMARK    5  A    between atoms: C_11  and  N_12 
REMARK    6  A    between atoms: N_15  and  C_17 
REMARK    7  A    between atoms: C_17  and  C_18 
ROOT
HETATM    1  C   UNL     1      43.555  -8.940  10.561  1.00  0.00     0.034 A 
HETATM    2  C   UNL     1      44.694  -9.700  10.309  1.00  0.00     0.032 A 
HETATM    3  C   UNL     1      44.885 -10.317   9.061  1.00  0.00     0.031 A 
HETATM    4  C   UNL     1      43.941 -10.213   8.033  1.00  0.00     0.030 A 
HETATM    5  C   UNL     1      42.804  -9.436   8.305  1.00  0.00     0.031 A 
HETATM    6  C   UNL     1      42.612  -8.808   9.542  1.00  0.00     0.032 A 
ENDROOT
BRANCH   4   7
HETATM    7  N   UNL     1      44.104 -10.796   6.779  1.00  0.00    -0.378 N 
HETATM    8  C   UNL     1      42.972 -10.703   5.834  1.00  0.00     0.150 C 
HETATM    9  C   UNL     1      42.155 -12.014   5.829  1.00  0.00     0.255 C 
HETATM   10  N   UNL     1      43.072 -13.206   5.537  1.00  0.00    -0.064 N 
HETATM   11  H   UNL     1      43.506 -13.023   4.626  1.00  0.00     0.280 HD
HETATM   12  C   UNL     1      44.195 -13.278   6.570  1.00  0.00     0.255 C 
HETATM   13  C   UNL     1      44.989 -11.956   6.592  1.00  0.00     0.150 C 
BRANCH  10  14
HETATM   14  C   UNL     1      42.330 -14.513   5.418  1.00  0.00     0.273 C 
BRANCH  14  15
HETATM   15  C   UNL     1      42.645 -15.254   4.147  1.00  0.00    -0.033 A 
HETATM   16  C   UNL     1      42.666 -16.659   4.122  1.00  0.00     0.009 A 
HETATM   17  C   UNL     1      42.992 -17.339   2.947  1.00  0.00     0.001 A 
HETATM   18  C   UNL     1      43.291 -16.628   1.788  1.00  0.00     0.000 A 
HETATM   19  C   UNL     1      43.259 -15.235   1.797  1.00  0.00     0.001 A 
HETATM   20  C   UNL     1      42.938 -14.549   2.970  1.00  0.00     0.009 A 
ENDBRANCH  14  15
ENDBRANCH  10  14
ENDBRANCH   4   7
BRANCH   1  21
HETATM   21  N   UNL     1      43.301  -8.267  11.772  1.00  0.00    -0.325 N 
HETATM   22  C   UNL     1      42.732  -8.793  12.929  1.00  0.00     0.246 C 
HETATM   23  O   UNL     1      42.300  -9.934  13.052  1.00  0.00    -0.271 OA
HETATM   24  H   UNL     1      43.534  -7.281  11.788  1.00  0.00     0.169 HD
BRANCH  22  25
HETATM   25  C   UNL     1      42.699  -7.761  14.065  1.00  0.00     0.278 C 
BRANCH  25  26
HETATM   26  O   UNL     1      41.993  -8.234  15.209  1.00  0.00    -0.342 OA
BRANCH  26  27
HETATM   27  C   UNL     1      40.901  -7.448  15.459  1.00  0.00     0.075 A 
HETATM   28  C   UNL     1      40.544  -7.106  16.770  1.00  0.00    -0.029 A 
HETATM   29  C   UNL     1      41.342  -7.573  17.952  1.00  0.00     0.051 C 
HETATM   30  C   UNL     1      39.431  -6.276  16.962  1.00  0.00     0.009 A 
HETATM   31  C   UNL     1      38.673  -5.838  15.873  1.00  0.00     0.001 A 
HETATM   32  C   UNL     1      39.018  -6.224  14.578  1.00  0.00     0.003 A 
HETATM   33  C   UNL     1      40.131  -7.034  14.370  1.00  0.00     0.037 A 
ENDBRANCH  26  27
ENDBRANCH  25  26
ENDBRANCH  22  25
ENDBRANCH   1  21
TORSDOF 7
ENDMDL
MODEL 4
REMARK VINA RESULT:      -8.2      1.275      1.909
REMARK  7 active torsions:
REMARK  status: ('A' for Active; 'I' for Inactive)
REMARK    1  A    between atoms: C_3  and  O_4 
REMARK    2  A    between atoms: O_4  and  C_5 
REMARK    3  A    between atoms: C_5  and  C_6 
REMARK       I    between atoms: C_6  and  N_7 
REMARK    4  A    between atoms: N_7  and  C_8 
REMARK    5  A    between atoms: C_11  and  N_12 
REMARK    6  A    between atoms: N_15  and  C_17 
REMARK    7  A    between atoms: C_17  and  C_18 
ROOT
HETATM    1  C   UNL     1      43.372 -12.743   5.640  1.00  0.00     0.034 A 
HETATM    2  C   UNL     1      44.475 -12.728   6.489  1.00  0.00     0.032 A 
HETATM    3  C   UNL     1      44.754 -11.605   7.285  1.00  0.00     0.031 A 
HETATM    4  C   UNL     1      43.956 -10.456   7.247  1.00  0.00     0.030 A 
HETATM    5  C   UNL     1      42.844 -10.495   6.391  1.00  0.00     0.031 A 
HETATM    6  C   UNL     1      42.553 -11.615   5.603  1.00  0.00     0.032 A 
ENDROOT
BRANCH   4   7
HETATM    7  N   UNL     1      44.191  -9.331   8.034  1.00  0.00    -0.378 N 
HETATM    8  C   UNL     1      45.326  -9.386   8.977  1.00  0.00     0.150 C 
HETATM    9  C   UNL     1      44.836  -9.714  10.405  1.00  0.00     0.255 C 
HETATM   10  N   UNL     1      43.758  -8.714  10.834  1.00  0.00    -0.064 N 
HETATM   11  H   UNL     1      44.187  -7.784  10.784  1.00  0.00     0.280 HD
HETATM   12  C   UNL     1      42.591  -8.733   9.849  1.00  0.00     0.255 C 
HETATM   13  C   UNL     1      43.091  -8.434   8.422  1.00  0.00     0.150 C 
BRANCH  10  14
HETATM   14  C   UNL     1      43.298  -8.910  12.257  1.00  0.00     0.273 C 
BRANCH  14  15
HETATM   15  C   UNL     1      41.842  -8.584  12.454  1.00  0.00    -0.033 A 
HETATM   16  C   UNL     1      41.414  -7.250  12.568  1.00  0.00     0.009 A 
HETATM   17  C   UNL     1      40.067  -6.956  12.784  1.00  0.00     0.001 A 
HETATM   18  C   UNL     1      39.134  -7.986  12.882  1.00  0.00     0.000 A 
HETATM   19  C   UNL     1      39.544  -9.312  12.757  1.00  0.00     0.001 A 
HETATM   20  C   UNL     1      40.891  -9.612  12.545  1.00  0.00     0.009 A 
ENDBRANCH  14  15
ENDBRANCH  10  14
ENDBRANCH   4   7
BRANCH   1  21
HETATM   21  N   UNL     1      43.007 -13.837   4.831  1.00  0.00    -0.325 N 
HETATM   22  C   UNL     1      42.005 -14.773   5.075  1.00  0.00     0.246 C 
HETATM   23  O   UNL     1      41.312 -14.824   6.085  1.00  0.00    -0.271 OA
HETATM   24  H   UNL     1      43.559 -13.970   3.991  1.00  0.00     0.169 HD
BRANCH  22  25
HETATM   25  C   UNL     1      41.861 -15.766   3.913  1.00  0.00     0.278 C 
BRANCH  25  26
HETATM   26  O   UNL     1      43.107 -16.049   3.282  1.00  0.00    -0.342 OA
BRANCH  26  27
HETATM   27  C   UNL     1      43.357 -17.395   3.294  1.00  0.00     0.075 A 
HETATM   28  C   UNL     1      44.086 -17.983   4.335  1.00  0.00    -0.029 A 
HETATM   29  C   UNL     1      44.616 -17.174   5.482  1.00  0.00     0.051 C 
HETATM   30  C   UNL     1      44.288 -19.370   4.306  1.00  0.00     0.009 A 
HETATM   31  C   UNL     1      43.808 -20.137   3.241  1.00  0.00     0.001 A 
HETATM   32  C   UNL     1      43.120 -19.527   2.192  1.00  0.00     0.003 A 
HETATM   33  C   UNL     1      42.898 -18.153   2.215  1.00  0.00     0.037 A 
ENDBRANCH  26  27
ENDBRANCH  25  26
ENDBRANCH  22  25
ENDBRANCH   1  21
TORSDOF 7
ENDMDL
MODEL 5
REMARK VINA RESULT:      -8.1      1.994      2.728
REMARK  7 active torsions:
REMARK  status: ('A' for Active; 'I' for Inactive)
REMARK    1  A    between atoms: C_3  and  O_4 
REMARK    2  A    between atoms: O_4  and  C_5 
REMARK    3  A    between atoms: C_5  and  C_6 
REMARK       I    between atoms: C_6  and  N_7 
REMARK    4  A    between atoms: N_7  and  C_8 
REMARK    5  A    between atoms: C_11  and  N_12 
REMARK    6  A    between atoms: N_15  and  C_17 
REMARK    7  A    between atoms: C_17  and  C_18 
ROOT
HETATM    1  C   UNL     1      41.562 -13.378   5.870  1.00  0.00     0.034 A 
HETATM    2  C   UNL     1      40.249 -12.943   6.032  1.00  0.00     0.032 A 
HETATM    3  C   UNL     1      39.961 -11.581   6.216  1.00  0.00     0.031 A 
HETATM    4  C   UNL     1      40.970 -10.612   6.264  1.00  0.00     0.030 A 
HETATM    5  C   UNL     1      42.285 -11.070   6.090  1.00  0.00     0.031 A 
HETATM    6  C   UNL     1      42.580 -12.425   5.894  1.00  0.00     0.032 A 
ENDROOT
BRANCH   4   7
HETATM    7  N   UNL     1      40.722  -9.251   6.428  1.00  0.00    -0.378 N 
HETATM    8  C   UNL     1      41.863  -8.392   6.803  1.00  0.00     0.150 C 
HETATM    9  C   UNL     1      41.858  -8.107   8.321  1.00  0.00     0.255 C 
HETATM   10  N   UNL     1      40.509  -7.515   8.742  1.00  0.00    -0.064 N 
HETATM   11  H   UNL     1      40.384  -6.658   8.193  1.00  0.00     0.280 HD
HETATM   12  C   UNL     1      39.372  -8.464   8.371  1.00  0.00     0.255 C 
HETATM   13  C   UNL     1      39.400  -8.769   6.859  1.00  0.00     0.150 C 
BRANCH  10  14
HETATM   14  C   UNL     1      40.461  -7.118  10.196  1.00  0.00     0.273 C 
BRANCH  14  15
HETATM   15  C   UNL     1      41.335  -7.977  11.068  1.00  0.00    -0.033 A 
HETATM   16  C   UNL     1      40.878  -9.218  11.545  1.00  0.00     0.009 A 
HETATM   17  C   UNL     1      41.681  -9.993  12.381  1.00  0.00     0.001 A 
HETATM   18  C   UNL     1      42.949  -9.545  12.745  1.00  0.00     0.000 A 
HETATM   19  C   UNL     1      43.419  -8.323  12.268  1.00  0.00     0.001 A 
HETATM   20  C   UNL     1      42.618  -7.541  11.434  1.00  0.00     0.009 A 
ENDBRANCH  14  15
ENDBRANCH  10  14
ENDBRANCH   4   7
BRANCH   1  21
HETATM   21  N   UNL     1      41.934 -14.719   5.652  1.00  0.00    -0.325 N 
HETATM   22  C   UNL     1      42.471 -15.609   6.578  1.00  0.00     0.246 C 
HETATM   23  O   UNL     1      42.767 -15.335   7.737  1.00  0.00    -0.271 OA
HETATM   24  H   UNL     1      41.821 -15.062   4.705  1.00  0.00     0.169 HD
BRANCH  22  25
HETATM   25  C   UNL     1      42.664 -17.007   5.976  1.00  0.00     0.278 C 
BRANCH  25  26
HETATM   26  O   UNL     1      43.790 -17.073   5.105  1.00  0.00    -0.342 OA
BRANCH  26  27
HETATM   27  C   UNL     1      43.783 -18.246   4.398  1.00  0.00     0.075 A 
HETATM   28  C   UNL     1      43.524 -18.257   3.022  1.00  0.00    -0.029 A 
HETATM   29  C   UNL     1      43.253 -16.992   2.260  1.00  0.00     0.051 C 
HETATM   30  C   UNL     1      43.556 -19.485   2.347  1.00  0.00     0.009 A 
HETATM   31  C   UNL     1      43.800 -20.672   3.043  1.00  0.00     0.001 A 
HETATM   32  C   UNL     1      44.013 -20.647   4.420  1.00  0.00     0.003 A 
HETATM   33  C   UNL     1      44.000 -19.432   5.102  1.00  0.00     0.037 A 
ENDBRANCH  26  27
ENDBRANCH  25  26
ENDBRANCH  22  25
ENDBRANCH   1  21
TORSDOF 7
ENDMDL
MODEL 6
REMARK VINA RESULT:      -8.1      2.299      3.391
REMARK  7 active torsions:
REMARK  status: ('A' for Active; 'I' for Inactive)
REMARK    1  A    between atoms: C_3  and  O_4 
REMARK    2  A    between atoms: O_4  and  C_5 
REMARK    3  A    between atoms: C_5  and  C_6 
REMARK       I    between atoms: C_6  and  N_7 
REMARK    4  A    between atoms: N_7  and  C_8 
REMARK    5  A    between atoms: C_11  and  N_12 
REMARK    6  A    between atoms: N_15  and  C_17 
REMARK    7  A    between atoms: C_17  and  C_18 
ROOT
HETATM    1  C   UNL     1      40.514 -12.712   5.034  1.00  0.00     0.034 A 
HETATM    2  C   UNL     1      39.182 -12.364   5.237  1.00  0.00     0.032 A 
HETATM    3  C   UNL     1      38.843 -11.233   5.998  1.00  0.00     0.031 A 
HETATM    4  C   UNL     1      39.817 -10.425   6.596  1.00  0.00     0.030 A 
HETATM    5  C   UNL     1      41.154 -10.788   6.372  1.00  0.00     0.031 A 
HETATM    6  C   UNL     1      41.501 -11.907   5.604  1.00  0.00     0.032 A 
ENDROOT
BRANCH   4   7
HETATM    7  N   UNL     1      39.520  -9.287   7.342  1.00  0.00    -0.378 N 
HETATM    8  C   UNL     1      39.899  -7.980   6.770  1.00  0.00     0.150 C 
HETATM    9  C   UNL     1      41.223  -7.476   7.385  1.00  0.00     0.255 C 
HETATM   10  N   UNL     1      41.115  -7.443   8.913  1.00  0.00    -0.064 N 
HETATM   11  H   UNL     1      40.330  -6.821   9.136  1.00  0.00     0.280 HD
HETATM   12  C   UNL     1      40.766  -8.829   9.452  1.00  0.00     0.255 C 
HETATM   13  C   UNL     1      39.459  -9.339   8.811  1.00  0.00     0.150 C 
BRANCH  10  14
HETATM   14  C   UNL     1      42.337  -6.869   9.584  1.00  0.00     0.273 C 
BRANCH  14  15
HETATM   15  C   UNL     1      43.466  -7.858   9.695  1.00  0.00    -0.033 A 
HETATM   16  C   UNL     1      44.386  -8.019   8.645  1.00  0.00     0.009 A 
HETATM   17  C   UNL     1      45.410  -8.962   8.742  1.00  0.00     0.001 A 
HETATM   18  C   UNL     1      45.532  -9.747   9.887  1.00  0.00     0.000 A 
HETATM   19  C   UNL     1      44.634  -9.587  10.940  1.00  0.00     0.001 A 
HETATM   20  C   UNL     1      43.605  -8.648  10.847  1.00  0.00     0.009 A 
ENDBRANCH  14  15
ENDBRANCH  10  14
ENDBRANCH   4   7
BRANCH   1  21
HETATM   21  N   UNL     1      40.939 -13.811   4.263  1.00  0.00    -0.325 N 
HETATM   22  C   UNL     1      41.056 -15.137   4.671  1.00  0.00     0.246 C 
HETATM   23  O   UNL     1      40.860 -15.549   5.810  1.00  0.00    -0.271 OA
HETATM   24  H   UNL     1      41.218 -13.603   3.311  1.00  0.00     0.169 HD
BRANCH  22  25
HETATM   25  C   UNL     1      41.473 -16.054   3.513  1.00  0.00     0.278 C 
BRANCH  25  26
HETATM   26  O   UNL     1      42.887 -16.203   3.420  1.00  0.00    -0.342 OA
BRANCH  26  27
HETATM   27  C   UNL     1      43.232 -17.528   3.417  1.00  0.00     0.075 A 
HETATM   28  C   UNL     1      43.838 -18.117   4.534  1.00  0.00    -0.029 A 
HETATM   29  C   UNL     1      44.127 -17.333   5.780  1.00  0.00     0.051 C 
HETATM   30  C   UNL     1      44.144 -19.484   4.481  1.00  0.00     0.009 A 
HETATM   31  C   UNL     1      43.888 -20.227   3.326  1.00  0.00     0.001 A 
HETATM   32  C   UNL     1      43.323 -19.613   2.209  1.00  0.00     0.003 A 
HETATM   33  C   UNL     1      42.998 -18.260   2.251  1.00  0.00     0.037 A 
ENDBRANCH  26  27
ENDBRANCH  25  26
ENDBRANCH  22  25
ENDBRANCH   1  21
TORSDOF 7
ENDMDL
MODEL 7
REMARK VINA RESULT:      -8.0      2.733     10.762
REMARK  7 active torsions:
REMARK  status: ('A' for Active; 'I' for Inactive)
REMARK    1  A    between atoms: C_3  and  O_4 
REMARK    2  A    between atoms: O_4  and  C_5 
REMARK    3  A    between atoms: C_5  and  C_6 
REMARK       I    between atoms: C_6  and  N_7 
REMARK    4  A    between atoms: N_7  and  C_8 
REMARK    5  A    between atoms: C_11  and  N_12 
REMARK    6  A    between atoms: N_15  and  C_17 
REMARK    7  A    between atoms: C_17  and  C_18 
ROOT
HETATM    1  C   UNL     1      43.008 -10.672   7.254  1.00  0.00     0.034 A 
HETATM    2  C   UNL     1      41.767 -10.474   6.657  1.00  0.00     0.032 A 
HETATM    3  C   UNL     1      41.507 -10.954   5.363  1.00  0.00     0.031 A 
HETATM    4  C   UNL     1      42.479 -11.628   4.615  1.00  0.00     0.030 A 
HETATM    5  C   UNL     1      43.721 -11.825   5.238  1.00  0.00     0.031 A 
HETATM    6  C   UNL     1      43.984 -11.360   6.533  1.00  0.00     0.032 A 
ENDROOT
BRANCH   4   7
HETATM    7  N   UNL     1      42.253 -12.132   3.337  1.00  0.00    -0.378 N 
HETATM    8  C   UNL     1      40.856 -12.431   2.961  1.00  0.00     0.150 C 
HETATM    9  C   UNL     1      40.560 -13.940   3.110  1.00  0.00     0.255 C 
HETATM   10  N   UNL     1      41.576 -14.757   2.306  1.00  0.00    -0.064 N 
HETATM   11  H   UNL     1      41.494 -14.447   1.332  1.00  0.00     0.280 HD
HETATM   12  C   UNL     1      42.997 -14.442   2.767  1.00  0.00     0.255 C 
HETATM   13  C   UNL     1      43.277 -12.931   2.645  1.00  0.00     0.150 C 
BRANCH  10  14
HETATM   14  C   UNL     1      41.294 -16.239   2.322  1.00  0.00     0.273 C 
BRANCH  14  15
HETATM   15  C   UNL     1      42.354 -17.031   3.038  1.00  0.00    -0.033 A 
HETATM   16  C   UNL     1      43.162 -17.945   2.340  1.00  0.00     0.009 A 
HETATM   17  C   UNL     1      44.119 -18.701   3.017  1.00  0.00     0.001 A 
HETATM   18  C   UNL     1      44.287 -18.549   4.391  1.00  0.00     0.000 A 
HETATM   19  C   UNL     1      43.502 -17.636   5.092  1.00  0.00     0.001 A 
HETATM   20  C   UNL     1      42.539 -16.880   4.421  1.00  0.00     0.009 A 
ENDBRANCH  14  15
ENDBRANCH  10  14
ENDBRANCH   4   7
BRANCH   1  21
HETATM   21  N   UNL     1      43.341 -10.249   8.556  1.00  0.00    -0.325 N 
HETATM   22  C   UNL     1      43.816  -8.999   8.944  1.00  0.00     0.246 C 
HETATM   23  O   UNL     1      44.082  -8.073   8.184  1.00  0.00    -0.271 OA
HETATM   24  H   UNL     1      43.249 -10.946   9.285  1.00  0.00     0.169 HD
BRANCH  22  25
HETATM   25  C   UNL     1      43.981  -8.902  10.467  1.00  0.00     0.278 C 
BRANCH  25  26
HETATM   26  O   UNL     1      43.128  -7.918  11.044  1.00  0.00    -0.342 OA
BRANCH  26  27
HETATM   27  C   UNL     1      42.238  -8.499  11.907  1.00  0.00     0.075 A 
HETATM   28  C   UNL     1      42.299  -8.247  13.283  1.00  0.00    -0.029 A 
HETATM   29  C   UNL     1      43.328  -7.326  13.872  1.00  0.00     0.051 C 
HETATM   30  C   UNL     1      41.344  -8.850  14.114  1.00  0.00     0.009 A 
HETATM   31  C   UNL     1      40.384  -9.715  13.582  1.00  0.00     0.001 A 
HETATM   32  C   UNL     1      40.366  -9.988  12.215  1.00  0.00     0.003 A 
HETATM   33  C   UNL     1      41.298  -9.383  11.375  1.00  0.00     0.037 A 
ENDBRANCH  26  27
ENDBRANCH  25  26
ENDBRANCH  22  25
ENDBRANCH   1  21
TORSDOF 7
ENDMDL
MODEL 8
REMARK VINA RESULT:      -8.0      2.799     11.021
REMARK  7 active torsions:
REMARK  status: ('A' for Active; 'I' for Inactive)
REMARK    1  A    between atoms: C_3  and  O_4 
REMARK    2  A    between atoms: O_4  and  C_5 
REMARK    3  A    between atoms: C_5  and  C_6 
REMARK       I    between atoms: C_6  and  N_7 
REMARK    4  A    between atoms: N_7  and  C_8 
REMARK    5  A    between atoms: C_11  and  N_12 
REMARK    6  A    between atoms: N_15  and  C_17 
REMARK    7  A    between atoms: C_17  and  C_18 
ROOT
HETATM    1  C   UNL     1      40.465 -11.540   6.100  1.00  0.00     0.034 A 
HETATM    2  C   UNL     1      41.385 -12.584   6.106  1.00  0.00     0.032 A 
HETATM    3  C   UNL     1      41.368 -13.562   5.098  1.00  0.00     0.031 A 
HETATM    4  C   UNL     1      40.423 -13.543   4.065  1.00  0.00     0.030 A 
HETATM    5  C   UNL     1      39.510 -12.477   4.074  1.00  0.00     0.031 A 
HETATM    6  C   UNL     1      39.529 -11.491   5.068  1.00  0.00     0.032 A 
ENDROOT
BRANCH   4   7
HETATM    7  N   UNL     1      40.385 -14.485   3.040  1.00  0.00    -0.378 N 
HETATM    8  C   UNL     1      40.269 -15.906   3.426  1.00  0.00     0.150 C 
HETATM    9  C   UNL     1      41.650 -16.598   3.390  1.00  0.00     0.255 C 
HETATM   10  N   UNL     1      42.296 -16.410   2.013  1.00  0.00    -0.064 N 
HETATM   11  H   UNL     1      41.648 -16.816   1.330  1.00  0.00     0.280 HD
HETATM   12  C   UNL     1      42.432 -14.925   1.686  1.00  0.00     0.255 C 
HETATM   13  C   UNL     1      41.055 -14.233   1.755  1.00  0.00     0.150 C 
BRANCH  10  14
HETATM   14  C   UNL     1      43.606 -17.142   1.867  1.00  0.00     0.273 C 
BRANCH  14  15
HETATM   15  C   UNL     1      43.701 -18.360   2.745  1.00  0.00    -0.033 A 
HETATM   16  C   UNL     1      44.090 -18.246   4.091  1.00  0.00     0.009 A 
HETATM   17  C   UNL     1      44.208 -19.383   4.890  1.00  0.00     0.001 A 
HETATM   18  C   UNL     1      43.933 -20.642   4.361  1.00  0.00     0.000 A 
HETATM   19  C   UNL     1      43.533 -20.767   3.032  1.00  0.00     0.001 A 
HETATM   20  C   UNL     1      43.417 -19.632   2.226  1.00  0.00     0.009 A 
ENDBRANCH  14  15
ENDBRANCH  10  14
ENDBRANCH   4   7
BRANCH   1  21
HETATM   21  N   UNL     1      40.432 -10.505   7.056  1.00  0.00    -0.325 N 
HETATM   22  C   UNL     1      39.492 -10.315   8.065  1.00  0.00     0.246 C 
HETATM   23  O   UNL     1      38.491 -11.001   8.242  1.00  0.00    -0.271 OA
HETATM   24  H   UNL     1      41.162  -9.807   6.978  1.00  0.00     0.169 HD
BRANCH  22  25
HETATM   25  C   UNL     1      39.850  -9.117   8.956  1.00  0.00     0.278 C 
BRANCH  25  26
HETATM   26  O   UNL     1      41.243  -8.820   8.934  1.00  0.00    -0.342 OA
BRANCH  26  27
HETATM   27  C   UNL     1      41.757  -8.831  10.203  1.00  0.00     0.075 A 
HETATM   28  C   UNL     1      42.860  -8.038  10.541  1.00  0.00    -0.029 A 
HETATM   29  C   UNL     1      43.521  -7.138   9.539  1.00  0.00     0.051 C 
HETATM   30  C   UNL     1      43.325  -8.071  11.863  1.00  0.00     0.009 A 
HETATM   31  C   UNL     1      42.726  -8.909  12.807  1.00  0.00     0.001 A 
HETATM   32  C   UNL     1      41.655  -9.724  12.442  1.00  0.00     0.003 A 
HETATM   33  C   UNL     1      41.172  -9.690  11.136  1.00  0.00     0.037 A 
ENDBRANCH  26  27
ENDBRANCH  25  26
ENDBRANCH  22  25
ENDBRANCH   1  21
TORSDOF 7
ENDMDL
MODEL 9
REMARK VINA RESULT:      -7.9      1.598      2.820
REMARK  7 active torsions:
REMARK  status: ('A' for Active; 'I' for Inactive)
REMARK    1  A    between atoms: C_3  and  O_4 
REMARK    2  A    between atoms: O_4  and  C_5 
REMARK    3  A    between atoms: C_5  and  C_6 
REMARK       I    between atoms: C_6  and  N_7 
REMARK    4  A    between atoms: N_7  and  C_8 
REMARK    5  A    between atoms: C_11  and  N_12 
REMARK    6  A    between atoms: N_15  and  C_17 
REMARK    7  A    between atoms: C_17  and  C_18 
ROOT
HETATM    1  C   UNL     1      43.285 -11.487   6.879  1.00  0.00     0.034 A 
HETATM    2  C   UNL     1      44.266 -11.407   7.864  1.00  0.00     0.032 A 
HETATM    3  C   UNL     1      44.191 -10.434   8.874  1.00  0.00     0.031 A 
HETATM    4  C   UNL     1      43.151  -9.499   8.925  1.00  0.00     0.030 A 
HETATM    5  C   UNL     1      42.169  -9.602   7.928  1.00  0.00     0.031 A 
HETATM    6  C   UNL     1      42.229 -10.577   6.924  1.00  0.00     0.032 A 
ENDROOT
BRANCH   4   7
HETATM    7  N   UNL     1      43.035  -8.531   9.920  1.00  0.00    -0.378 N 
HETATM    8  C   UNL     1      43.881  -8.686  11.120  1.00  0.00     0.150 C 
HETATM    9  C   UNL     1      43.077  -9.316  12.280  1.00  0.00     0.255 C 
HETATM   10  N   UNL     1      41.812  -8.494  12.550  1.00  0.00    -0.064 N 
HETATM   11  H   UNL     1      42.125  -7.544  12.775  1.00  0.00     0.280 HD
HETATM   12  C   UNL     1      40.956  -8.405  11.289  1.00  0.00     0.255 C 
HETATM   13  C   UNL     1      41.773  -7.805  10.127  1.00  0.00     0.150 C 
BRANCH  10  14
HETATM   14  C   UNL     1      41.022  -8.990  13.734  1.00  0.00     0.273 C 
BRANCH  14  15
HETATM   15  C   UNL     1      40.754  -7.917  14.753  1.00  0.00    -0.033 A 
HETATM   16  C   UNL     1      41.300  -8.000  16.046  1.00  0.00     0.009 A 
HETATM   17  C   UNL     1      41.020  -7.017  16.996  1.00  0.00     0.001 A 
HETATM   18  C   UNL     1      40.199  -5.941  16.667  1.00  0.00     0.000 A 
HETATM   19  C   UNL     1      39.663  -5.840  15.385  1.00  0.00     0.001 A 
HETATM   20  C   UNL     1      39.937  -6.822  14.432  1.00  0.00     0.009 A 
ENDBRANCH  14  15
ENDBRANCH  10  14
ENDBRANCH   4   7
BRANCH   1  21
HETATM   21  N   UNL     1      43.270 -12.448   5.849  1.00  0.00    -0.325 N 
HETATM   22  C   UNL     1      43.032 -13.814   5.970  1.00  0.00     0.246 C 
HETATM   23  O   UNL     1      42.855 -14.413   7.026  1.00  0.00    -0.271 OA
HETATM   24  H   UNL     1      43.486 -12.105   4.920  1.00  0.00     0.169 HD
BRANCH  22  25
HETATM   25  C   UNL     1      43.020 -14.512   4.603  1.00  0.00     0.278 C 
BRANCH  25  26
HETATM   26  O   UNL     1      42.096 -15.595   4.553  1.00  0.00    -0.342 OA
BRANCH  26  27
HETATM   27  C   UNL     1      42.681 -16.702   4.000  1.00  0.00     0.075 A 
HETATM   28  C   UNL     1      42.288 -17.172   2.740  1.00  0.00    -0.029 A 
HETATM   29  C   UNL     1      41.222 -16.483   1.939  1.00  0.00     0.051 C 
HETATM   30  C   UNL     1      42.942 -18.294   2.214  1.00  0.00     0.009 A 
HETATM   31  C   UNL     1      43.933 -18.950   2.950  1.00  0.00     0.001 A 
HETATM   32  C   UNL     1      44.281 -18.494   4.220  1.00  0.00     0.003 A 
HETATM   33  C   UNL     1      43.651 -17.370   4.750  1.00  0.00     0.037 A 
ENDBRANCH  26  27
ENDBRANCH  25  26
ENDBRANCH  22  25
ENDBRANCH   1  21
TORSDOF 7
ENDMDL
MODEL 10
REMARK VINA RESULT:      -7.6      3.106     10.768
REMARK  7 active torsions:
REMARK  status: ('A' for Active; 'I' for Inactive)
REMARK    1  A    between atoms: C_3  and  O_4 
REMARK    2  A    between atoms: O_4  and  C_5 
REMARK    3  A    between atoms: C_5  and  C_6 
REMARK       I    between atoms: C_6  and  N_7 
REMARK    4  A    between atoms: N_7  and  C_8 
REMARK    5  A    between atoms: C_11  and  N_12 
REMARK    6  A    between atoms: N_15  and  C_17 
REMARK    7  A    between atoms: C_17  and  C_18 
ROOT
HETATM    1  C   UNL     1      40.511 -10.567   6.884  1.00  0.00     0.034 A 
HETATM    2  C   UNL     1      39.480 -11.323   6.332  1.00  0.00     0.032 A 
HETATM    3  C   UNL     1      39.561 -11.791   5.010  1.00  0.00     0.031 A 
HETATM    4  C   UNL     1      40.660 -11.505   4.190  1.00  0.00     0.030 A 
HETATM    5  C   UNL     1      41.690 -10.749   4.769  1.00  0.00     0.031 A 
HETATM    6  C   UNL     1      41.623 -10.288   6.090  1.00  0.00     0.032 A 
ENDROOT
BRANCH   4   7
HETATM    7  N   UNL     1      40.782 -11.966   2.882  1.00  0.00    -0.378 N 
HETATM    8  C   UNL     1      39.596 -12.598   2.270  1.00  0.00     0.150 C 
HETATM    9  C   UNL     1      39.701 -14.137   2.334  1.00  0.00     0.255 C 
HETATM   10  N   UNL     1      41.014 -14.602   1.696  1.00  0.00    -0.064 N 
HETATM   11  H   UNL     1      41.005 -14.261   0.729  1.00  0.00     0.280 HD
HETATM   12  C   UNL     1      42.206 -13.953   2.397  1.00  0.00     0.255 C 
HETATM   13  C   UNL     1      42.080 -12.417   2.356  1.00  0.00     0.150 C 
BRANCH  10  14
HETATM   14  C   UNL     1      41.146 -16.103   1.632  1.00  0.00     0.273 C 
BRANCH  14  15
HETATM   15  C   UNL     1      41.978 -16.667   2.752  1.00  0.00    -0.033 A 
HETATM   16  C   UNL     1      41.657 -16.396   4.093  1.00  0.00     0.009 A 
HETATM   17  C   UNL     1      42.453 -16.895   5.125  1.00  0.00     0.001 A 
HETATM   18  C   UNL     1      43.569 -17.675   4.832  1.00  0.00     0.000 A 
HETATM   19  C   UNL     1      43.890 -17.963   3.507  1.00  0.00     0.001 A 
HETATM   20  C   UNL     1      43.100 -17.463   2.470  1.00  0.00     0.009 A 
ENDBRANCH  14  15
ENDBRANCH  10  14
ENDBRANCH   4   7
BRANCH   1  21
HETATM   21  N   UNL     1      40.521 -10.084   8.207  1.00  0.00    -0.325 N 
HETATM   22  C   UNL     1      39.667  -9.139   8.770  1.00  0.00     0.246 C 
HETATM   23  O   UNL     1      38.793  -8.523   8.167  1.00  0.00    -0.271 OA
HETATM   24  H   UNL     1      41.253 -10.448   8.806  1.00  0.00     0.169 HD
BRANCH  22  25
HETATM   25  C   UNL     1      39.946  -8.940  10.266  1.00  0.00     0.278 C 
BRANCH  25  26
HETATM   26  O   UNL     1      41.076  -9.685  10.711  1.00  0.00    -0.342 OA
BRANCH  26  27
HETATM   27  C   UNL     1      41.568  -9.163  11.877  1.00  0.00     0.075 A 
HETATM   28  C   UNL     1      42.834  -8.565  11.922  1.00  0.00    -0.029 A 
HETATM   29  C   UNL     1      43.701  -8.461  10.702  1.00  0.00     0.051 C 
HETATM   30  C   UNL     1      43.272  -8.025  13.139  1.00  0.00     0.009 A 
HETATM   31  C   UNL     1      42.480  -8.120  14.286  1.00  0.00     0.001 A 
HETATM   32  C   UNL     1      41.241  -8.756  14.232  1.00  0.00     0.003 A 
HETATM   33  C   UNL     1      40.784  -9.284  13.027  1.00  0.00     0.037 A 
ENDBRANCH  26  27
ENDBRANCH  25  26
ENDBRANCH  22  25
ENDBRANCH   1  21
TORSDOF 7
ENDMDL
