MODEL 1
REMARK VINA RESULT:      -8.5      0.000      0.000
REMARK  8 active torsions:
REMARK  status: ('A' for Active; 'I' for Inactive)
REMARK    1  A    between atoms: O_2  and  C_3 
REMARK    2  A    between atoms: C_6  and  C_7 
REMARK    3  A    between atoms: C_11  and  S_12 
REMARK    4  A    between atoms: S_12  and  C_13 
REMARK    5  A    between atoms: C_13  and  C_14 
REMARK       I    between atoms: C_14  and  N_15 
REMARK    6  A    between atoms: N_15  and  C_16 
REMARK    7  A    between atoms: C_16  and  C_17 
REMARK       I    between atoms: C_17  and  N_18 
REMARK    8  A    between atoms: N_18  and  C_19 
ROOT
HETATM    1  C   UNL     1      43.906 -11.445   5.597  1.00  0.00     0.185 C 
ENDROOT
BRANCH   1   2
HETATM    2  S   UNL     1      45.633 -11.288   6.156  1.00  0.00    -0.081 SA
BRANCH   2   3
HETATM    3  C   UNL     1      45.395 -10.445   7.635  1.00  0.00     0.185 A 
HETATM    4  N   UNL     1      46.223  -9.445   8.026  1.00  0.00    -0.253 N 
HETATM    5  N   UNL     1      45.864  -8.964   9.227  1.00  0.00    -0.152 NA
HETATM    6  H   UNL     1      47.028  -9.061   7.547  1.00  0.00     0.191 HD
HETATM    7  C   UNL     1      44.789  -9.719   9.520  1.00  0.00     0.182 A 
HETATM    8  N   UNL     1      44.473 -10.642   8.540  1.00  0.00    -0.201 NA
BRANCH   7   9
HETATM    9  C   UNL     1      44.017  -9.604  10.754  1.00  0.00     0.014 A 
HETATM   10  C   UNL     1      43.658  -8.351  11.268  1.00  0.00     0.018 A 
HETATM   11  C   UNL     1      42.920  -8.256  12.452  1.00  0.00     0.037 A 
HETATM   12  C   UNL     1      42.523  -9.404  13.140  1.00  0.00     0.068 A 
HETATM   13  C   UNL     1      42.881 -10.655  12.639  1.00  0.00     0.037 A 
HETATM   14  C   UNL     1      43.623 -10.753  11.454  1.00  0.00     0.018 A 
BRANCH  12  15
HETATM   15  O   UNL     1      41.802  -9.170  14.278  1.00  0.00    -0.356 OA
HETATM   16  C   UNL     1      41.093  -7.939  14.346  1.00  0.00     0.210 C 
ENDBRANCH  12  15
ENDBRANCH   7   9
ENDBRANCH   2   3
ENDBRANCH   1   2
BRANCH   1  17
HETATM   17  C   UNL     1      43.350 -12.856   5.733  1.00  0.00     0.227 C 
HETATM   18  N   UNL     1      43.756 -13.602   6.809  1.00  0.00    -0.352 N 
HETATM   19  H   UNL     1      44.412 -13.190   7.464  1.00  0.00     0.162 HD
HETATM   20  O   UNL     1      42.607 -13.341   4.877  1.00  0.00    -0.273 OA
BRANCH  18  21
HETATM   21  C   UNL     1      43.200 -14.908   7.120  1.00  0.00     0.225 C 
BRANCH  21  22
HETATM   22  C   UNL     1      43.863 -16.052   6.343  1.00  0.00     0.239 C 
HETATM   23  N   UNL     1      43.051 -16.565   5.346  1.00  0.00    -0.326 N 
HETATM   24  H   UNL     1      42.152 -16.092   5.226  1.00  0.00     0.169 HD
HETATM   25  O   UNL     1      44.979 -16.457   6.660  1.00  0.00    -0.271 OA
BRANCH  23  26
HETATM   26  C   UNL     1      43.312 -17.645   4.484  1.00  0.00     0.035 A 
HETATM   27  C   UNL     1      43.890 -18.850   4.894  1.00  0.00     0.032 A 
HETATM   28  C   UNL     1      44.108 -19.879   3.972  1.00  0.00     0.044 A 
HETATM   29  C   UNL     1      43.748 -19.701   2.643  1.00  0.00     0.116 A 
HETATM   30  F   UNL     1      43.955 -20.688   1.762  1.00  0.00    -0.206 F 
HETATM   31  C   UNL     1      43.173 -18.511   2.216  1.00  0.00     0.044 A 
HETATM   32  C   UNL     1      42.956 -17.483   3.137  1.00  0.00     0.032 A 
ENDBRANCH  23  26
ENDBRANCH  21  22
ENDBRANCH  18  21
ENDBRANCH   1  17
TORSDOF 8
ENDMDL
MODEL 2
REMARK VINA RESULT:      -8.4      5.410      9.016
REMARK  8 active torsions:
REMARK  status: ('A' for Active; 'I' for Inactive)
REMARK    1  A    between atoms: O_2  and  C_3 
REMARK    2  A    between atoms: C_6  and  C_7 
REMARK    3  A    between atoms: C_11  and  S_12 
REMARK    4  A    between atoms: S_12  and  C_13 
REMARK    5  A    between atoms: C_13  and  C_14 
REMARK       I    between atoms: C_14  and  N_15 
REMARK    6  A    between atoms: N_15  and  C_16 
REMARK    7  A    between atoms: C_16  and  C_17 
REMARK       I    between atoms: C_17  and  N_18 
REMARK    8  A    between atoms: N_18  and  C_19 
ROOT
HETATM    1  C   UNL     1      40.025 -12.044   0.762  1.00  0.00     0.185 C 
ENDROOT
BRANCH   1   2
HETATM    2  S   UNL     1      40.067 -13.739   0.093  1.00  0.00    -0.081 SA
BRANCH   2   3
HETATM    3  C   UNL     1      41.310 -14.416   1.070  1.00  0.00     0.185 A 
HETATM    4  N   UNL     1      42.380 -13.685   1.469  1.00  0.00    -0.253 N 
HETATM    5  N   UNL     1      43.233 -14.434   2.187  1.00  0.00    -0.152 NA
HETATM    6  H   UNL     1      42.589 -12.712   1.287  1.00  0.00     0.191 HD
HETATM    7  C   UNL     1      42.617 -15.630   2.195  1.00  0.00     0.182 A 
HETATM    8  N   UNL     1      41.414 -15.641   1.513  1.00  0.00    -0.201 NA
BRANCH   7   9
HETATM    9  C   UNL     1      43.150 -16.823   2.846  1.00  0.00     0.014 A 
HETATM   10  C   UNL     1      43.717 -16.757   4.125  1.00  0.00     0.018 A 
HETATM   11  C   UNL     1      44.226 -17.908   4.735  1.00  0.00     0.037 A 
HETATM   12  C   UNL     1      44.174 -19.143   4.086  1.00  0.00     0.068 A 
HETATM   13  C   UNL     1      43.618 -19.217   2.808  1.00  0.00     0.037 A 
HETATM   14  C   UNL     1      43.109 -18.063   2.194  1.00  0.00     0.018 A 
BRANCH  12  15
HETATM   15  O   UNL     1      44.700 -20.187   4.795  1.00  0.00    -0.356 OA
HETATM   16  C   UNL     1      43.812 -20.888   5.656  1.00  0.00     0.210 C 
ENDBRANCH  12  15
ENDBRANCH   7   9
ENDBRANCH   2   3
ENDBRANCH   1   2
BRANCH   1  17
HETATM   17  C   UNL     1      39.285 -11.934   2.088  1.00  0.00     0.227 C 
HETATM   18  N   UNL     1      39.933 -11.329   3.134  1.00  0.00    -0.352 N 
HETATM   19  H   UNL     1      40.876 -10.988   2.986  1.00  0.00     0.162 HD
HETATM   20  O   UNL     1      38.163 -12.423   2.242  1.00  0.00    -0.273 OA
BRANCH  18  21
HETATM   21  C   UNL     1      39.288 -11.048   4.406  1.00  0.00     0.225 C 
BRANCH  21  22
HETATM   22  C   UNL     1      39.785 -11.941   5.550  1.00  0.00     0.239 C 
HETATM   23  N   UNL     1      40.797 -12.800   5.158  1.00  0.00    -0.326 N 
HETATM   24  H   UNL     1      41.111 -12.696   4.190  1.00  0.00     0.169 HD
HETATM   25  O   UNL     1      39.258 -11.885   6.658  1.00  0.00    -0.271 OA
BRANCH  23  26
HETATM   26  C   UNL     1      41.443 -13.786   5.925  1.00  0.00     0.035 A 
HETATM   27  C   UNL     1      40.860 -15.007   6.279  1.00  0.00     0.032 A 
HETATM   28  C   UNL     1      41.577 -15.938   7.038  1.00  0.00     0.044 A 
HETATM   29  C   UNL     1      42.873 -15.647   7.441  1.00  0.00     0.116 A 
HETATM   30  F   UNL     1      43.558 -16.540   8.166  1.00  0.00    -0.206 F 
HETATM   31  C   UNL     1      43.469 -14.439   7.100  1.00  0.00     0.044 A 
HETATM   32  C   UNL     1      42.753 -13.509   6.342  1.00  0.00     0.032 A 
ENDBRANCH  23  26
ENDBRANCH  21  22
ENDBRANCH  18  21
ENDBRANCH   1  17
TORSDOF 8
ENDMDL
MODEL 3
REMARK VINA RESULT:      -8.4      1.784      2.387
REMARK  8 active torsions:
REMARK  status: ('A' for Active; 'I' for Inactive)
REMARK    1  A    between atoms: O_2  and  C_3 
REMARK    2  A    between atoms: C_6  and  C_7 
REMARK    3  A    between atoms: C_11  and  S_12 
REMARK    4  A    between atoms: S_12  and  C_13 
REMARK    5  A    between atoms: C_13  and  C_14 
REMARK       I    between atoms: C_14  and  N_15 
REMARK    6  A    between atoms: N_15  and  C_16 
REMARK    7  A    between atoms: C_16  and  C_17 
REMARK       I    between atoms: C_17  and  N_18 
REMARK    8  A    between atoms: N_18  and  C_19 
ROOT
HETATM    1  C   UNL     1      44.246 -11.811   7.356  1.00  0.00     0.185 C 
ENDROOT
BRANCH   1   2
HETATM    2  S   UNL     1      43.820 -10.067   7.667  1.00  0.00    -0.081 SA
BRANCH   2   3
HETATM    3  C   UNL     1      43.642 -10.101   9.377  1.00  0.00     0.185 A 
HETATM    4  N   UNL     1      43.844 -11.236  10.091  1.00  0.00    -0.253 N 
HETATM    5  N   UNL     1      43.610 -11.031  11.397  1.00  0.00    -0.152 NA
HETATM    6  H   UNL     1      44.122 -12.153   9.764  1.00  0.00     0.191 HD
HETATM    7  C   UNL     1      43.267  -9.730  11.419  1.00  0.00     0.182 A 
HETATM    8  N   UNL     1      43.288  -9.128  10.174  1.00  0.00    -0.201 NA
BRANCH   7   9
HETATM    9  C   UNL     1      42.893  -9.000  12.627  1.00  0.00     0.014 A 
HETATM   10  C   UNL     1      41.890  -9.478  13.479  1.00  0.00     0.018 A 
HETATM   11  C   UNL     1      41.541  -8.768  14.632  1.00  0.00     0.037 A 
HETATM   12  C   UNL     1      42.188  -7.575  14.959  1.00  0.00     0.068 A 
HETATM   13  C   UNL     1      43.184  -7.088  14.113  1.00  0.00     0.037 A 
HETATM   14  C   UNL     1      43.533  -7.798  12.955  1.00  0.00     0.018 A 
BRANCH  12  15
HETATM   15  O   UNL     1      41.756  -6.986  16.114  1.00  0.00    -0.356 OA
HETATM   16  C   UNL     1      40.381  -6.623  16.173  1.00  0.00     0.210 C 
ENDBRANCH  12  15
ENDBRANCH   7   9
ENDBRANCH   2   3
ENDBRANCH   1   2
BRANCH   1  17
HETATM   17  C   UNL     1      43.315 -12.494   6.363  1.00  0.00     0.227 C 
HETATM   18  N   UNL     1      42.319 -13.291   6.866  1.00  0.00    -0.352 N 
HETATM   19  H   UNL     1      42.246 -13.399   7.871  1.00  0.00     0.162 HD
HETATM   20  O   UNL     1      43.482 -12.388   5.146  1.00  0.00    -0.273 OA
BRANCH  18  21
HETATM   21  C   UNL     1      41.291 -13.891   6.031  1.00  0.00     0.225 C 
BRANCH  21  22
HETATM   22  C   UNL     1      41.571 -15.357   5.680  1.00  0.00     0.239 C 
HETATM   23  N   UNL     1      42.575 -15.500   4.738  1.00  0.00    -0.326 N 
HETATM   24  H   UNL     1      43.025 -14.631   4.440  1.00  0.00     0.169 HD
HETATM   25  O   UNL     1      40.901 -16.257   6.180  1.00  0.00    -0.271 OA
BRANCH  23  26
HETATM   26  C   UNL     1      43.050 -16.686   4.149  1.00  0.00     0.035 A 
HETATM   27  C   UNL     1      44.025 -17.508   4.723  1.00  0.00     0.032 A 
HETATM   28  C   UNL     1      44.435 -18.677   4.073  1.00  0.00     0.044 A 
HETATM   29  C   UNL     1      43.868 -19.021   2.853  1.00  0.00     0.116 A 
HETATM   30  F   UNL     1      44.261 -20.142   2.234  1.00  0.00    -0.206 F 
HETATM   31  C   UNL     1      42.900 -18.218   2.266  1.00  0.00     0.044 A 
HETATM   32  C   UNL     1      42.490 -17.050   2.916  1.00  0.00     0.032 A 
ENDBRANCH  23  26
ENDBRANCH  21  22
ENDBRANCH  18  21
ENDBRANCH   1  17
TORSDOF 8
ENDMDL
MODEL 4
REMARK VINA RESULT:      -8.4      4.343      8.801
REMARK  8 active torsions:
REMARK  status: ('A' for Active; 'I' for Inactive)
REMARK    1  A    between atoms: O_2  and  C_3 
REMARK    2  A    between atoms: C_6  and  C_7 
REMARK    3  A    between atoms: C_11  and  S_12 
REMARK    4  A    between atoms: S_12  and  C_13 
REMARK    5  A    between atoms: C_13  and  C_14 
REMARK       I    between atoms: C_14  and  N_15 
REMARK    6  A    between atoms: N_15  and  C_16 
REMARK    7  A    between atoms: C_16  and  C_17 
REMARK       I    between atoms: C_17  and  N_18 
REMARK    8  A    between atoms: N_18  and  C_19 
ROOT
HETATM    1  C   UNL     1      42.499 -11.756   5.846  1.00  0.00     0.185 C 
ENDROOT
BRANCH   1   2
HETATM    2  S   UNL     1      43.381 -11.423   4.287  1.00  0.00    -0.081 SA
BRANCH   2   3
HETATM    3  C   UNL     1      42.474 -12.412   3.211  1.00  0.00     0.185 A 
HETATM    4  N   UNL     1      42.130 -13.684   3.533  1.00  0.00    -0.253 N 
HETATM    5  N   UNL     1      41.460 -14.270   2.527  1.00  0.00    -0.152 NA
HETATM    6  H   UNL     1      42.320 -14.199   4.383  1.00  0.00     0.191 HD
HETATM    7  C   UNL     1      41.423 -13.289   1.607  1.00  0.00     0.182 A 
HETATM    8  N   UNL     1      42.041 -12.120   2.014  1.00  0.00    -0.201 NA
BRANCH   7   9
HETATM    9  C   UNL     1      40.806 -13.422   0.291  1.00  0.00     0.014 A 
HETATM   10  C   UNL     1      40.964 -12.430  -0.686  1.00  0.00     0.018 A 
HETATM   11  C   UNL     1      40.366 -12.570  -1.942  1.00  0.00     0.037 A 
HETATM   12  C   UNL     1      39.606 -13.701  -2.249  1.00  0.00     0.068 A 
HETATM   13  C   UNL     1      39.437 -14.690  -1.280  1.00  0.00     0.037 A 
HETATM   14  C   UNL     1      40.034 -14.550  -0.019  1.00  0.00     0.018 A 
BRANCH  12  15
HETATM   15  O   UNL     1      39.083 -13.715  -3.512  1.00  0.00    -0.356 OA
HETATM   16  C   UNL     1      38.087 -14.693  -3.782  1.00  0.00     0.210 C 
ENDBRANCH  12  15
ENDBRANCH   7   9
ENDBRANCH   2   3
ENDBRANCH   1   2
BRANCH   1  17
HETATM   17  C   UNL     1      43.169 -12.818   6.707  1.00  0.00     0.227 C 
HETATM   18  N   UNL     1      42.497 -13.996   6.908  1.00  0.00    -0.352 N 
HETATM   19  H   UNL     1      41.583 -14.110   6.483  1.00  0.00     0.162 HD
HETATM   20  O   UNL     1      44.252 -12.610   7.259  1.00  0.00    -0.273 OA
BRANCH  18  21
HETATM   21  C   UNL     1      43.083 -15.132   7.599  1.00  0.00     0.225 C 
BRANCH  21  22
HETATM   22  C   UNL     1      43.814 -16.102   6.663  1.00  0.00     0.239 C 
HETATM   23  N   UNL     1      42.971 -16.686   5.733  1.00  0.00    -0.326 N 
HETATM   24  H   UNL     1      42.001 -16.365   5.757  1.00  0.00     0.169 HD
HETATM   25  O   UNL     1      45.012 -16.331   6.813  1.00  0.00    -0.271 OA
BRANCH  23  26
HETATM   26  C   UNL     1      43.287 -17.656   4.765  1.00  0.00     0.035 A 
HETATM   27  C   UNL     1      43.889 -18.884   5.056  1.00  0.00     0.032 A 
HETATM   28  C   UNL     1      44.161 -19.798   4.032  1.00  0.00     0.044 A 
HETATM   29  C   UNL     1      43.831 -19.481   2.721  1.00  0.00     0.116 A 
HETATM   30  F   UNL     1      44.091 -20.358   1.743  1.00  0.00    -0.206 F 
HETATM   31  C   UNL     1      43.234 -18.267   2.411  1.00  0.00     0.044 A 
HETATM   32  C   UNL     1      42.962 -17.354   3.434  1.00  0.00     0.032 A 
ENDBRANCH  23  26
ENDBRANCH  21  22
ENDBRANCH  18  21
ENDBRANCH   1  17
TORSDOF 8
ENDMDL
MODEL 5
REMARK VINA RESULT:      -8.3      4.435      9.201
REMARK  8 active torsions:
REMARK  status: ('A' for Active; 'I' for Inactive)
REMARK    1  A    between atoms: O_2  and  C_3 
REMARK    2  A    between atoms: C_6  and  C_7 
REMARK    3  A    between atoms: C_11  and  S_12 
REMARK    4  A    between atoms: S_12  and  C_13 
REMARK    5  A    between atoms: C_13  and  C_14 
REMARK       I    between atoms: C_14  and  N_15 
REMARK    6  A    between atoms: N_15  and  C_16 
REMARK    7  A    between atoms: C_16  and  C_17 
REMARK       I    between atoms: C_17  and  N_18 
REMARK    8  A    between atoms: N_18  and  C_19 
ROOT
HETATM    1  C   UNL     1      39.601 -11.911   2.800  1.00  0.00     0.185 C 
ENDROOT
BRANCH   1   2
HETATM    2  S   UNL     1      41.232 -11.694   2.017  1.00  0.00    -0.081 SA
BRANCH   2   3
HETATM    3  C   UNL     1      41.718 -13.337   1.875  1.00  0.00     0.185 A 
HETATM    4  N   UNL     1      41.511 -14.045   0.737  1.00  0.00    -0.253 N 
HETATM    5  N   UNL     1      41.937 -15.311   0.873  1.00  0.00    -0.152 NA
HETATM    6  H   UNL     1      41.093 -13.742  -0.134  1.00  0.00     0.191 HD
HETATM    7  C   UNL     1      42.405 -15.313   2.135  1.00  0.00     0.182 A 
HETATM    8  N   UNL     1      42.286 -14.094   2.775  1.00  0.00    -0.201 NA
BRANCH   7   9
HETATM    9  C   UNL     1      42.978 -16.483   2.795  1.00  0.00     0.014 A 
HETATM   10  C   UNL     1      43.454 -16.411   4.110  1.00  0.00     0.018 A 
HETATM   11  C   UNL     1      44.001 -17.539   4.729  1.00  0.00     0.037 A 
HETATM   12  C   UNL     1      44.079 -18.758   4.053  1.00  0.00     0.068 A 
HETATM   13  C   UNL     1      43.614 -18.837   2.740  1.00  0.00     0.037 A 
HETATM   14  C   UNL     1      43.067 -17.707   2.117  1.00  0.00     0.018 A 
BRANCH  12  15
HETATM   15  O   UNL     1      44.630 -19.780   4.774  1.00  0.00    -0.356 OA
HETATM   16  C   UNL     1      43.799 -20.395   5.751  1.00  0.00     0.210 C 
ENDBRANCH  12  15
ENDBRANCH   7   9
ENDBRANCH   2   3
ENDBRANCH   1   2
BRANCH   1  17
HETATM   17  C   UNL     1      39.677 -12.166   4.299  1.00  0.00     0.227 C 
HETATM   18  N   UNL     1      39.994 -13.432   4.717  1.00  0.00    -0.352 N 
HETATM   19  H   UNL     1      40.158 -14.146   4.016  1.00  0.00     0.162 HD
HETATM   20  O   UNL     1      39.404 -11.283   5.117  1.00  0.00    -0.273 OA
BRANCH  18  21
HETATM   21  C   UNL     1      40.225 -13.768   6.113  1.00  0.00     0.225 C 
BRANCH  21  22
HETATM   22  C   UNL     1      41.689 -13.618   6.540  1.00  0.00     0.239 C 
HETATM   23  N   UNL     1      42.106 -12.299   6.571  1.00  0.00    -0.326 N 
HETATM   24  H   UNL     1      41.385 -11.605   6.358  1.00  0.00     0.169 HD
HETATM   25  O   UNL     1      42.378 -14.610   6.765  1.00  0.00    -0.271 OA
BRANCH  23  26
HETATM   26  C   UNL     1      43.389 -11.801   6.862  1.00  0.00     0.035 A 
HETATM   27  C   UNL     1      43.746 -11.230   8.088  1.00  0.00     0.032 A 
HETATM   28  C   UNL     1      45.049 -10.766   8.298  1.00  0.00     0.044 A 
HETATM   29  C   UNL     1      45.991 -10.875   7.283  1.00  0.00     0.116 A 
HETATM   30  F   UNL     1      47.238 -10.432   7.488  1.00  0.00    -0.206 F 
HETATM   31  C   UNL     1      45.656 -11.438   6.059  1.00  0.00     0.044 A 
HETATM   32  C   UNL     1      44.354 -11.901   5.849  1.00  0.00     0.032 A 
ENDBRANCH  23  26
ENDBRANCH  21  22
ENDBRANCH  18  21
ENDBRANCH   1  17
TORSDOF 8
ENDMDL
MODEL 6
REMARK VINA RESULT:      -8.3      4.235     10.798
REMARK  8 active torsions:
REMARK  status: ('A' for Active; 'I' for Inactive)
REMARK    1  A    between atoms: O_2  and  C_3 
REMARK    2  A    between atoms: C_6  and  C_7 
REMARK    3  A    between atoms: C_11  and  S_12 
REMARK    4  A    between atoms: S_12  and  C_13 
REMARK    5  A    between atoms: C_13  and  C_14 
REMARK       I    between atoms: C_14  and  N_15 
REMARK    6  A    between atoms: N_15  and  C_16 
REMARK    7  A    between atoms: C_16  and  C_17 
REMARK       I    between atoms: C_17  and  N_18 
REMARK    8  A    between atoms: N_18  and  C_19 
ROOT
HETATM    1  C   UNL     1      42.064 -11.630   6.046  1.00  0.00     0.185 C 
ENDROOT
BRANCH   1   2
HETATM    2  S   UNL     1      42.133 -11.190   4.279  1.00  0.00    -0.081 SA
BRANCH   2   3
HETATM    3  C   UNL     1      42.465 -12.733   3.598  1.00  0.00     0.185 A 
HETATM    4  N   UNL     1      42.338 -12.967   2.268  1.00  0.00    -0.253 N 
HETATM    5  N   UNL     1      42.612 -14.249   1.976  1.00  0.00    -0.152 NA
HETATM    6  H   UNL     1      42.070 -12.326   1.532  1.00  0.00     0.191 HD
HETATM    7  C   UNL     1      42.909 -14.753   3.188  1.00  0.00     0.182 A 
HETATM    8  N   UNL     1      42.832 -13.827   4.211  1.00  0.00    -0.201 NA
BRANCH   7   9
HETATM    9  C   UNL     1      43.269 -16.147   3.429  1.00  0.00     0.014 A 
HETATM   10  C   UNL     1      43.719 -16.571   4.687  1.00  0.00     0.018 A 
HETATM   11  C   UNL     1      44.062 -17.909   4.903  1.00  0.00     0.037 A 
HETATM   12  C   UNL     1      43.958 -18.848   3.875  1.00  0.00     0.068 A 
HETATM   13  C   UNL     1      43.518 -18.434   2.618  1.00  0.00     0.037 A 
HETATM   14  C   UNL     1      43.176 -17.093   2.398  1.00  0.00     0.018 A 
BRANCH  12  15
HETATM   15  O   UNL     1      44.319 -20.120   4.222  1.00  0.00    -0.356 OA
HETATM   16  C   UNL     1      43.886 -20.585   5.495  1.00  0.00     0.210 C 
ENDBRANCH  12  15
ENDBRANCH   7   9
ENDBRANCH   2   3
ENDBRANCH   1   2
BRANCH   1  17
HETATM   17  C   UNL     1      43.316 -11.236   6.818  1.00  0.00     0.227 C 
HETATM   18  N   UNL     1      43.152 -10.672   8.057  1.00  0.00    -0.352 N 
HETATM   19  H   UNL     1      42.210 -10.534   8.405  1.00  0.00     0.162 HD
HETATM   20  O   UNL     1      44.441 -11.361   6.328  1.00  0.00    -0.273 OA
BRANCH  18  21
HETATM   21  C   UNL     1      44.265 -10.375   8.943  1.00  0.00     0.225 C 
BRANCH  21  22
HETATM   22  C   UNL     1      43.888 -10.413  10.429  1.00  0.00     0.239 C 
HETATM   23  N   UNL     1      43.036  -9.383  10.791  1.00  0.00    -0.326 N 
HETATM   24  H   UNL     1      42.736  -8.773  10.028  1.00  0.00     0.169 HD
HETATM   25  O   UNL     1      44.369 -11.263  11.173  1.00  0.00    -0.271 OA
BRANCH  23  26
HETATM   26  C   UNL     1      42.536  -9.082  12.070  1.00  0.00     0.035 A 
HETATM   27  C   UNL     1      43.176  -8.235  12.981  1.00  0.00     0.032 A 
HETATM   28  C   UNL     1      42.605  -7.981  14.232  1.00  0.00     0.044 A 
HETATM   29  C   UNL     1      41.395  -8.572  14.569  1.00  0.00     0.116 A 
HETATM   30  F   UNL     1      40.848  -8.325  15.767  1.00  0.00    -0.206 F 
HETATM   31  C   UNL     1      40.743  -9.416  13.680  1.00  0.00     0.044 A 
HETATM   32  C   UNL     1      41.315  -9.670  12.430  1.00  0.00     0.032 A 
ENDBRANCH  23  26
ENDBRANCH  21  22
ENDBRANCH  18  21
ENDBRANCH   1  17
TORSDOF 8
ENDMDL
MODEL 7
REMARK VINA RESULT:      -8.2      4.337     10.672
REMARK  8 active torsions:
REMARK  status: ('A' for Active; 'I' for Inactive)
REMARK    1  A    between atoms: O_2  and  C_3 
REMARK    2  A    between atoms: C_6  and  C_7 
REMARK    3  A    between atoms: C_11  and  S_12 
REMARK    4  A    between atoms: S_12  and  C_13 
REMARK    5  A    between atoms: C_13  and  C_14 
REMARK       I    between atoms: C_14  and  N_15 
REMARK    6  A    between atoms: N_15  and  C_16 
REMARK    7  A    between atoms: C_16  and  C_17 
REMARK       I    between atoms: C_17  and  N_18 
REMARK    8  A    between atoms: N_18  and  C_19 
ROOT
HETATM    1  C   UNL     1      41.002 -10.620   5.455  1.00  0.00     0.185 C 
ENDROOT
BRANCH   1   2
HETATM    2  S   UNL     1      39.926 -11.950   6.083  1.00  0.00    -0.081 SA
BRANCH   2   3
HETATM    3  C   UNL     1      40.337 -13.211   4.988  1.00  0.00     0.185 A 
HETATM    4  N   UNL     1      39.662 -13.393   3.826  1.00  0.00    -0.253 N 
HETATM    5  N   UNL     1      40.134 -14.457   3.157  1.00  0.00    -0.152 NA
HETATM    6  H   UNL     1      38.892 -12.856   3.446  1.00  0.00     0.191 HD
HETATM    7  C   UNL     1      41.115 -14.886   3.972  1.00  0.00     0.182 A 
HETATM    8  N   UNL     1      41.265 -14.121   5.114  1.00  0.00    -0.201 NA
BRANCH   7   9
HETATM    9  C   UNL     1      41.950 -16.054   3.706  1.00  0.00     0.014 A 
HETATM   10  C   UNL     1      41.764 -16.829   2.553  1.00  0.00     0.018 A 
HETATM   11  C   UNL     1      42.570 -17.946   2.312  1.00  0.00     0.037 A 
HETATM   12  C   UNL     1      43.578 -18.306   3.209  1.00  0.00     0.068 A 
HETATM   13  C   UNL     1      43.766 -17.545   4.363  1.00  0.00     0.037 A 
HETATM   14  C   UNL     1      42.957 -16.426   4.607  1.00  0.00     0.018 A 
BRANCH  12  15
HETATM   15  O   UNL     1      44.295 -19.413   2.851  1.00  0.00    -0.356 OA
HETATM   16  C   UNL     1      43.680 -20.305   1.929  1.00  0.00     0.210 C 
ENDBRANCH  12  15
ENDBRANCH   7   9
ENDBRANCH   2   3
ENDBRANCH   1   2
BRANCH   1  17
HETATM   17  C   UNL     1      42.451 -10.748   5.909  1.00  0.00     0.227 C 
HETATM   18  N   UNL     1      42.691 -10.868   7.253  1.00  0.00    -0.352 N 
HETATM   19  H   UNL     1      41.901 -10.860   7.889  1.00  0.00     0.162 HD
HETATM   20  O   UNL     1      43.385 -10.685   5.106  1.00  0.00    -0.273 OA
BRANCH  18  21
HETATM   21  C   UNL     1      44.014 -11.126   7.798  1.00  0.00     0.225 C 
BRANCH  21  22
HETATM   22  C   UNL     1      44.161 -10.700   9.264  1.00  0.00     0.239 C 
HETATM   23  N   UNL     1      42.985 -10.200   9.798  1.00  0.00    -0.326 N 
HETATM   24  H   UNL     1      42.175 -10.225   9.174  1.00  0.00     0.169 HD
HETATM   25  O   UNL     1      45.250 -10.771   9.828  1.00  0.00    -0.271 OA
BRANCH  23  26
HETATM   26  C   UNL     1      42.772  -9.671  11.083  1.00  0.00     0.035 A 
HETATM   27  C   UNL     1      41.810 -10.152  11.976  1.00  0.00     0.032 A 
HETATM   28  C   UNL     1      41.669  -9.573  13.242  1.00  0.00     0.044 A 
HETATM   29  C   UNL     1      42.490  -8.516  13.611  1.00  0.00     0.116 A 
HETATM   30  F   UNL     1      42.355  -7.965  14.824  1.00  0.00    -0.206 F 
HETATM   31  C   UNL     1      43.451  -8.024  12.738  1.00  0.00     0.044 A 
HETATM   32  C   UNL     1      43.591  -8.602  11.474  1.00  0.00     0.032 A 
ENDBRANCH  23  26
ENDBRANCH  21  22
ENDBRANCH  18  21
ENDBRANCH   1  17
TORSDOF 8
ENDMDL
MODEL 8
REMARK VINA RESULT:      -8.2      1.725      2.323
REMARK  8 active torsions:
REMARK  status: ('A' for Active; 'I' for Inactive)
REMARK    1  A    between atoms: O_2  and  C_3 
REMARK    2  A    between atoms: C_6  and  C_7 
REMARK    3  A    between atoms: C_11  and  S_12 
REMARK    4  A    between atoms: S_12  and  C_13 
REMARK    5  A    between atoms: C_13  and  C_14 
REMARK       I    between atoms: C_14  and  N_15 
REMARK    6  A    between atoms: N_15  and  C_16 
REMARK    7  A    between atoms: C_16  and  C_17 
REMARK       I    between atoms: C_17  and  N_18 
REMARK    8  A    between atoms: N_18  and  C_19 
ROOT
HETATM    1  C   UNL     1      43.825 -12.757   6.928  1.00  0.00     0.185 C 
ENDROOT
BRANCH   1   2
HETATM    2  S   UNL     1      45.207 -11.736   6.321  1.00  0.00    -0.081 SA
BRANCH   2   3
HETATM    3  C   UNL     1      45.134 -10.435   7.443  1.00  0.00     0.185 A 
HETATM    4  N   UNL     1      46.129  -9.519   7.536  1.00  0.00    -0.253 N 
HETATM    5  N   UNL     1      45.870  -8.623   8.503  1.00  0.00    -0.152 NA
HETATM    6  H   UNL     1      46.985  -9.452   7.000  1.00  0.00     0.191 HD
HETATM    7  C   UNL     1      44.682  -9.050   8.968  1.00  0.00     0.182 A 
HETATM    8  N   UNL     1      44.200 -10.171   8.317  1.00  0.00    -0.201 NA
BRANCH   7   9
HETATM    9  C   UNL     1      43.953  -8.416  10.062  1.00  0.00     0.014 A 
HETATM   10  C   UNL     1      43.979  -8.952  11.356  1.00  0.00     0.018 A 
HETATM   11  C   UNL     1      43.275  -8.334  12.394  1.00  0.00     0.037 A 
HETATM   12  C   UNL     1      42.540  -7.170  12.164  1.00  0.00     0.068 A 
HETATM   13  C   UNL     1      42.503  -6.632  10.878  1.00  0.00     0.037 A 
HETATM   14  C   UNL     1      43.206  -7.252   9.835  1.00  0.00     0.018 A 
BRANCH  12  15
HETATM   15  O   UNL     1      41.905  -6.666  13.265  1.00  0.00    -0.356 OA
HETATM   16  C   UNL     1      40.674  -5.989  13.041  1.00  0.00     0.210 C 
ENDBRANCH  12  15
ENDBRANCH   7   9
ENDBRANCH   2   3
ENDBRANCH   1   2
BRANCH   1  17
HETATM   17  C   UNL     1      42.762 -13.027   5.872  1.00  0.00     0.227 C 
HETATM   18  N   UNL     1      43.183 -13.322   4.601  1.00  0.00    -0.352 N 
HETATM   19  H   UNL     1      44.180 -13.341   4.414  1.00  0.00     0.162 HD
HETATM   20  O   UNL     1      41.559 -12.927   6.128  1.00  0.00    -0.273 OA
BRANCH  18  21
HETATM   21  C   UNL     1      42.274 -13.724   3.541  1.00  0.00     0.225 C 
BRANCH  21  22
HETATM   22  C   UNL     1      42.055 -15.241   3.471  1.00  0.00     0.239 C 
HETATM   23  N   UNL     1      43.241 -15.955   3.499  1.00  0.00    -0.326 N 
HETATM   24  H   UNL     1      44.089 -15.394   3.611  1.00  0.00     0.169 HD
HETATM   25  O   UNL     1      40.924 -15.703   3.349  1.00  0.00    -0.271 OA
BRANCH  23  26
HETATM   26  C   UNL     1      43.419 -17.346   3.398  1.00  0.00     0.035 A 
HETATM   27  C   UNL     1      43.054 -18.101   2.279  1.00  0.00     0.032 A 
HETATM   28  C   UNL     1      43.274 -19.482   2.256  1.00  0.00     0.044 A 
HETATM   29  C   UNL     1      43.858 -20.105   3.352  1.00  0.00     0.116 A 
HETATM   30  F   UNL     1      44.069 -21.427   3.327  1.00  0.00    -0.206 F 
HETATM   31  C   UNL     1      44.226 -19.373   4.473  1.00  0.00     0.044 A 
HETATM   32  C   UNL     1      44.006 -17.993   4.495  1.00  0.00     0.032 A 
ENDBRANCH  23  26
ENDBRANCH  21  22
ENDBRANCH  18  21
ENDBRANCH   1  17
TORSDOF 8
ENDMDL
MODEL 9
REMARK VINA RESULT:      -8.1      5.984      7.413
REMARK  8 active torsions:
REMARK  status: ('A' for Active; 'I' for Inactive)
REMARK    1  A    between atoms: O_2  and  C_3 
REMARK    2  A    between atoms: C_6  and  C_7 
REMARK    3  A    between atoms: C_11  and  S_12 
REMARK    4  A    between atoms: S_12  and  C_13 
REMARK    5  A    between atoms: C_13  and  C_14 
REMARK       I    between atoms: C_14  and  N_15 
REMARK    6  A    between atoms: N_15  and  C_16 
REMARK    7  A    between atoms: C_16  and  C_17 
REMARK       I    between atoms: C_17  and  N_18 
REMARK    8  A    between atoms: N_18  and  C_19 
ROOT
HETATM    1  C   UNL     1      40.636  -9.583   3.254  1.00  0.00     0.185 C 
ENDROOT
BRANCH   1   2
HETATM    2  S   UNL     1      39.026 -10.194   3.850  1.00  0.00    -0.081 SA
BRANCH   2   3
HETATM    3  C   UNL     1      39.537 -11.589   4.717  1.00  0.00     0.185 A 
HETATM    4  N   UNL     1      38.987 -11.927   5.909  1.00  0.00    -0.253 N 
HETATM    5  N   UNL     1      39.569 -13.026   6.414  1.00  0.00    -0.152 NA
HETATM    6  H   UNL     1      38.246 -11.465   6.422  1.00  0.00     0.191 HD
HETATM    7  C   UNL     1      40.478 -13.320   5.466  1.00  0.00     0.182 A 
HETATM    8  N   UNL     1      40.471 -12.444   4.396  1.00  0.00    -0.201 NA
BRANCH   7   9
HETATM    9  C   UNL     1      41.405 -14.445   5.540  1.00  0.00     0.014 A 
HETATM   10  C   UNL     1      40.964 -15.724   5.906  1.00  0.00     0.018 A 
HETATM   11  C   UNL     1      41.864 -16.792   5.974  1.00  0.00     0.037 A 
HETATM   12  C   UNL     1      43.215 -16.608   5.675  1.00  0.00     0.068 A 
HETATM   13  C   UNL     1      43.665 -15.337   5.316  1.00  0.00     0.037 A 
HETATM   14  C   UNL     1      42.765 -14.264   5.250  1.00  0.00     0.018 A 
BRANCH  12  15
HETATM   15  O   UNL     1      43.983 -17.734   5.775  1.00  0.00    -0.356 OA
HETATM   16  C   UNL     1      43.390 -18.860   6.410  1.00  0.00     0.210 C 
ENDBRANCH  12  15
ENDBRANCH   7   9
ENDBRANCH   2   3
ENDBRANCH   1   2
BRANCH   1  17
HETATM   17  C   UNL     1      41.153 -10.329   2.031  1.00  0.00     0.227 C 
HETATM   18  N   UNL     1      40.230 -10.896   1.190  1.00  0.00    -0.352 N 
HETATM   19  H   UNL     1      39.247 -10.802   1.418  1.00  0.00     0.162 HD
HETATM   20  O   UNL     1      42.361 -10.474   1.829  1.00  0.00    -0.273 OA
BRANCH  18  21
HETATM   21  C   UNL     1      40.591 -11.518  -0.072  1.00  0.00     0.225 C 
BRANCH  21  22
HETATM   22  C   UNL     1      40.748 -13.041   0.023  1.00  0.00     0.239 C 
HETATM   23  N   UNL     1      41.358 -13.444   1.199  1.00  0.00    -0.326 N 
HETATM   24  H   UNL     1      41.577 -12.694   1.859  1.00  0.00     0.169 HD
HETATM   25  O   UNL     1      40.395 -13.764  -0.905  1.00  0.00    -0.271 OA
BRANCH  23  26
HETATM   26  C   UNL     1      41.708 -14.748   1.592  1.00  0.00     0.035 A 
HETATM   27  C   UNL     1      40.792 -15.695   2.060  1.00  0.00     0.032 A 
HETATM   28  C   UNL     1      41.223 -16.975   2.423  1.00  0.00     0.044 A 
HETATM   29  C   UNL     1      42.567 -17.306   2.316  1.00  0.00     0.116 A 
HETATM   30  F   UNL     1      42.977 -18.533   2.662  1.00  0.00    -0.206 F 
HETATM   31  C   UNL     1      43.493 -16.379   1.854  1.00  0.00     0.044 A 
HETATM   32  C   UNL     1      43.062 -15.100   1.492  1.00  0.00     0.032 A 
ENDBRANCH  23  26
ENDBRANCH  21  22
ENDBRANCH  18  21
ENDBRANCH   1  17
TORSDOF 8
ENDMDL
MODEL 10
REMARK VINA RESULT:      -8.0      4.143     11.063
REMARK  8 active torsions:
REMARK  status: ('A' for Active; 'I' for Inactive)
REMARK    1  A    between atoms: O_2  and  C_3 
REMARK    2  A    between atoms: C_6  and  C_7 
REMARK    3  A    between atoms: C_11  and  S_12 
REMARK    4  A    between atoms: S_12  and  C_13 
REMARK    5  A    between atoms: C_13  and  C_14 
REMARK       I    between atoms: C_14  and  N_15 
REMARK    6  A    between atoms: N_15  and  C_16 
REMARK    7  A    between atoms: C_16  and  C_17 
REMARK       I    between atoms: C_17  and  N_18 
REMARK    8  A    between atoms: N_18  and  C_19 
ROOT
HETATM    1  C   UNL     1      44.580 -11.767   6.877  1.00  0.00     0.185 C 
ENDROOT
BRANCH   1   2
HETATM    2  S   UNL     1      42.843 -11.573   6.362  1.00  0.00    -0.081 SA
BRANCH   2   3
HETATM    3  C   UNL     1      42.469 -13.200   5.946  1.00  0.00     0.185 A 
HETATM    4  N   UNL     1      41.406 -13.846   6.485  1.00  0.00    -0.253 N 
HETATM    5  N   UNL     1      41.338 -15.112   6.043  1.00  0.00    -0.152 NA
HETATM    6  H   UNL     1      40.718 -13.501   7.143  1.00  0.00     0.191 HD
HETATM    7  C   UNL     1      42.401 -15.178   5.220  1.00  0.00     0.182 A 
HETATM    8  N   UNL     1      43.116 -13.997   5.138  1.00  0.00    -0.201 NA
BRANCH   7   9
HETATM    9  C   UNL     1      42.793 -16.375   4.481  1.00  0.00     0.014 A 
HETATM   10  C   UNL     1      43.561 -17.379   5.085  1.00  0.00     0.018 A 
HETATM   11  C   UNL     1      43.930 -18.519   4.364  1.00  0.00     0.037 A 
HETATM   12  C   UNL     1      43.537 -18.682   3.035  1.00  0.00     0.068 A 
HETATM   13  C   UNL     1      42.777 -17.684   2.423  1.00  0.00     0.037 A 
HETATM   14  C   UNL     1      42.409 -16.539   3.143  1.00  0.00     0.018 A 
BRANCH  12  15
HETATM   15  O   UNL     1      43.959 -19.843   2.449  1.00  0.00    -0.356 OA
HETATM   16  C   UNL     1      43.945 -21.011   3.260  1.00  0.00     0.210 C 
ENDBRANCH  12  15
ENDBRANCH   7   9
ENDBRANCH   2   3
ENDBRANCH   1   2
BRANCH   1  17
HETATM   17  C   UNL     1      45.141 -10.544   7.591  1.00  0.00     0.227 C 
HETATM   18  N   UNL     1      44.269  -9.536   7.912  1.00  0.00    -0.352 N 
HETATM   19  H   UNL     1      43.294  -9.640   7.657  1.00  0.00     0.162 HD
HETATM   20  O   UNL     1      46.347 -10.431   7.822  1.00  0.00    -0.273 OA
BRANCH  18  21
HETATM   21  C   UNL     1      44.656  -8.381   8.705  1.00  0.00     0.225 C 
BRANCH  21  22
HETATM   22  C   UNL     1      43.650  -8.037   9.810  1.00  0.00     0.239 C 
HETATM   23  N   UNL     1      43.849  -8.775  10.964  1.00  0.00    -0.326 N 
HETATM   24  H   UNL     1      44.654  -9.405  10.949  1.00  0.00     0.169 HD
HETATM   25  O   UNL     1      42.754  -7.222   9.606  1.00  0.00    -0.271 OA
BRANCH  23  26
HETATM   26  C   UNL     1      43.086  -8.760  12.145  1.00  0.00     0.035 A 
HETATM   27  C   UNL     1      42.038  -9.647  12.410  1.00  0.00     0.032 A 
HETATM   28  C   UNL     1      41.334  -9.570  13.617  1.00  0.00     0.044 A 
HETATM   29  C   UNL     1      41.680  -8.606  14.554  1.00  0.00     0.116 A 
HETATM   30  F   UNL     1      41.006  -8.534  15.710  1.00  0.00    -0.206 F 
HETATM   31  C   UNL     1      42.716  -7.715  14.310  1.00  0.00     0.044 A 
HETATM   32  C   UNL     1      43.419  -7.793  13.104  1.00  0.00     0.032 A 
ENDBRANCH  23  26
ENDBRANCH  21  22
ENDBRANCH  18  21
ENDBRANCH   1  17
TORSDOF 8
ENDMDL
