MODEL 1
REMARK VINA RESULT:      -9.0      0.000      0.000
REMARK  3 active torsions:
REMARK  status: ('A' for Active; 'I' for Inactive)
REMARK    1  A    between atoms: C_8  and  C_9 
REMARK       I    between atoms: C_9  and  N_10 
REMARK    2  A    between atoms: N_10  and  C_11 
REMARK    3  A    between atoms: C_18  and  C_19 
REMARK       I    between atoms: C_19  and  N_20 
ROOT
HETATM    1  C   UNL     1      42.637 -15.627   2.375  1.00  0.00     0.035 A 
HETATM    2  C   UNL     1      42.454 -15.550   3.762  1.00  0.00     0.046 A 
HETATM    3  C   UNL     1      42.861 -16.628   4.580  1.00  0.00     0.030 A 
HETATM    4  C   UNL     1      43.454 -17.734   3.985  1.00  0.00     0.063 A 
HETATM    5  N   UNL     1      43.746 -18.586   5.013  1.00  0.00    -0.277 N 
HETATM    6  H   UNL     1      44.192 -19.494   4.948  1.00  0.00     0.189 HD
HETATM    7  N   UNL     1      43.373 -18.145   6.224  1.00  0.00    -0.168 NA
HETATM    8  C   UNL     1      42.818 -16.936   5.973  1.00  0.00     0.156 A 
HETATM    9  C   UNL     1      43.655 -17.843   2.608  1.00  0.00     0.034 A 
HETATM   10  C   UNL     1      43.223 -16.772   1.817  1.00  0.00     0.032 A 
ENDROOT
BRANCH   1  11
HETATM   11  N   UNL     1      42.233 -14.619   1.473  1.00  0.00    -0.327 N 
HETATM   12  C   UNL     1      41.025 -14.517   0.807  1.00  0.00     0.231 C 
HETATM   13  O   UNL     1      40.063 -15.265   0.978  1.00  0.00    -0.272 OA
HETATM   14  H   UNL     1      42.894 -13.863   1.348  1.00  0.00     0.169 HD
BRANCH  12  15
HETATM   15  C   UNL     1      40.921 -13.399  -0.245  1.00  0.00     0.116 C 
HETATM   16  C   UNL     1      39.751 -13.488  -1.196  1.00  0.00    -0.012 A 
HETATM   17  C   UNL     1      39.787 -14.378  -2.282  1.00  0.00     0.011 A 
HETATM   18  C   UNL     1      38.611 -12.702  -0.996  1.00  0.00     0.075 A 
HETATM   19  C   UNL     1      38.697 -14.478  -3.149  1.00  0.00     0.001 A 
HETATM   20  C   UNL     1      37.569 -13.689  -2.943  1.00  0.00     0.003 A 
HETATM   21  C   UNL     1      37.528 -12.799  -1.870  1.00  0.00     0.037 A 
HETATM   22  O   UNL     1      38.480 -11.784   0.009  1.00  0.00    -0.351 OA
HETATM   23  C   UNL     1      39.485 -11.817   1.026  1.00  0.00     0.176 C 
HETATM   24  C   UNL     1      40.880 -12.044   0.466  1.00  0.00     0.045 C 
ENDBRANCH  12  15
ENDBRANCH   1  11
BRANCH   8  25
HETATM   25  C   UNL     1      42.253 -16.120   7.056  1.00  0.00     0.270 C 
HETATM   26  N   UNL     1      43.057 -16.023   8.160  1.00  0.00    -0.365 N 
HETATM   27  H   UNL     1      43.942 -16.517   8.160  1.00  0.00     0.159 HD
HETATM   28  H   UNL     1      42.739 -15.506   8.964  1.00  0.00     0.159 HD
HETATM   29  O   UNL     1      41.158 -15.570   7.019  1.00  0.00    -0.266 OA
ENDBRANCH   8  25
TORSDOF 3
ENDMDL
MODEL 2
REMARK VINA RESULT:      -8.8      2.839      8.456
REMARK  3 active torsions:
REMARK  status: ('A' for Active; 'I' for Inactive)
REMARK    1  A    between atoms: C_8  and  C_9 
REMARK       I    between atoms: C_9  and  N_10 
REMARK    2  A    between atoms: N_10  and  C_11 
REMARK    3  A    between atoms: C_18  and  C_19 
REMARK       I    between atoms: C_19  and  N_20 
ROOT
HETATM    1  C   UNL     1      40.658 -13.540   0.337  1.00  0.00     0.035 A 
HETATM    2  C   UNL     1      40.067 -14.125  -0.790  1.00  0.00     0.046 A 
HETATM    3  C   UNL     1      38.967 -13.489  -1.409  1.00  0.00     0.030 A 
HETATM    4  C   UNL     1      38.512 -12.283  -0.892  1.00  0.00     0.063 A 
HETATM    5  N   UNL     1      37.469 -11.914  -1.695  1.00  0.00    -0.277 N 
HETATM    6  H   UNL     1      36.900 -11.079  -1.617  1.00  0.00     0.189 HD
HETATM    7  N   UNL     1      37.188 -12.785  -2.677  1.00  0.00    -0.168 NA
HETATM    8  C   UNL     1      38.102 -13.769  -2.510  1.00  0.00     0.156 A 
HETATM    9  C   UNL     1      39.079 -11.671   0.227  1.00  0.00     0.034 A 
HETATM   10  C   UNL     1      40.152 -12.332   0.836  1.00  0.00     0.032 A 
ENDROOT
BRANCH   1  11
HETATM   11  N   UNL     1      41.736 -14.115   1.044  1.00  0.00    -0.327 N 
HETATM   12  C   UNL     1      41.680 -14.862   2.208  1.00  0.00     0.231 C 
HETATM   13  O   UNL     1      40.643 -15.221   2.762  1.00  0.00    -0.272 OA
HETATM   14  H   UNL     1      42.644 -14.002   0.611  1.00  0.00     0.169 HD
BRANCH  12  15
HETATM   15  C   UNL     1      43.032 -15.223   2.849  1.00  0.00     0.116 C 
HETATM   16  C   UNL     1      42.988 -15.638   4.301  1.00  0.00    -0.012 A 
HETATM   17  C   UNL     1      42.873 -14.669   5.312  1.00  0.00     0.011 A 
HETATM   18  C   UNL     1      43.042 -16.991   4.654  1.00  0.00     0.075 A 
HETATM   19  C   UNL     1      42.810 -15.053   6.652  1.00  0.00     0.001 A 
HETATM   20  C   UNL     1      42.867 -16.401   6.994  1.00  0.00     0.003 A 
HETATM   21  C   UNL     1      42.988 -17.368   5.996  1.00  0.00     0.037 A 
HETATM   22  O   UNL     1      43.183 -18.012   3.757  1.00  0.00    -0.351 OA
HETATM   23  C   UNL     1      43.034 -17.663   2.378  1.00  0.00     0.176 C 
HETATM   24  C   UNL     1      43.692 -16.337   2.034  1.00  0.00     0.045 C 
ENDBRANCH  12  15
ENDBRANCH   1  11
BRANCH   8  25
HETATM   25  C   UNL     1      38.119 -14.948  -3.388  1.00  0.00     0.270 C 
HETATM   26  N   UNL     1      38.211 -16.139  -2.720  1.00  0.00    -0.365 N 
HETATM   27  H   UNL     1      38.278 -16.124  -1.709  1.00  0.00     0.159 HD
HETATM   28  H   UNL     1      38.258 -17.000  -3.242  1.00  0.00     0.159 HD
HETATM   29  O   UNL     1      38.070 -14.909  -4.612  1.00  0.00    -0.266 OA
ENDBRANCH   8  25
TORSDOF 3
ENDMDL
MODEL 3
REMARK VINA RESULT:      -8.7      3.120      7.983
REMARK  3 active torsions:
REMARK  status: ('A' for Active; 'I' for Inactive)
REMARK    1  A    between atoms: C_8  and  C_9 
REMARK       I    between atoms: C_9  and  N_10 
REMARK    2  A    between atoms: N_10  and  C_11 
REMARK    3  A    between atoms: C_18  and  C_19 
REMARK       I    between atoms: C_19  and  N_20 
ROOT
HETATM    1  C   UNL     1      40.407 -13.804  -0.137  1.00  0.00     0.035 A 
HETATM    2  C   UNL     1      40.937 -12.507  -0.085  1.00  0.00     0.046 A 
HETATM    3  C   UNL     1      40.918 -11.700  -1.245  1.00  0.00     0.030 A 
HETATM    4  C   UNL     1      40.353 -12.210  -2.407  1.00  0.00     0.063 A 
HETATM    5  N   UNL     1      40.468 -11.212  -3.334  1.00  0.00    -0.277 N 
HETATM    6  H   UNL     1      40.155 -11.231  -4.298  1.00  0.00     0.189 HD
HETATM    7  N   UNL     1      41.079 -10.104  -2.886  1.00  0.00    -0.168 NA
HETATM    8  C   UNL     1      41.370 -10.392  -1.596  1.00  0.00     0.156 A 
HETATM    9  C   UNL     1      39.815 -13.495  -2.494  1.00  0.00     0.034 A 
HETATM   10  C   UNL     1      39.866 -14.283  -1.338  1.00  0.00     0.032 A 
ENDROOT
BRANCH   1  11
HETATM   11  N   UNL     1      40.412 -14.697   0.956  1.00  0.00    -0.327 N 
HETATM   12  C   UNL     1      41.498 -15.352   1.507  1.00  0.00     0.231 C 
HETATM   13  O   UNL     1      42.669 -15.176   1.171  1.00  0.00    -0.272 OA
HETATM   14  H   UNL     1      39.516 -14.824   1.412  1.00  0.00     0.169 HD
BRANCH  12  15
HETATM   15  C   UNL     1      41.184 -16.397   2.592  1.00  0.00     0.116 C 
HETATM   16  C   UNL     1      42.351 -17.227   3.074  1.00  0.00    -0.012 A 
HETATM   17  C   UNL     1      42.821 -18.304   2.304  1.00  0.00     0.011 A 
HETATM   18  C   UNL     1      42.989 -16.920   4.280  1.00  0.00     0.075 A 
HETATM   19  C   UNL     1      43.913 -19.057   2.737  1.00  0.00     0.001 A 
HETATM   20  C   UNL     1      44.540 -18.746   3.940  1.00  0.00     0.003 A 
HETATM   21  C   UNL     1      44.075 -17.682   4.713  1.00  0.00     0.037 A 
HETATM   22  O   UNL     1      42.599 -15.915   5.121  1.00  0.00    -0.351 OA
HETATM   23  C   UNL     1      41.628 -15.002   4.601  1.00  0.00     0.176 C 
HETATM   24  C   UNL     1      40.543 -15.696   3.792  1.00  0.00     0.045 C 
ENDBRANCH  12  15
ENDBRANCH   1  11
BRANCH   8  25
HETATM   25  C   UNL     1      42.077  -9.428  -0.743  1.00  0.00     0.270 C 
HETATM   26  N   UNL     1      41.553  -9.307   0.516  1.00  0.00    -0.365 N 
HETATM   27  H   UNL     1      40.735  -9.856   0.755  1.00  0.00     0.159 HD
HETATM   28  H   UNL     1      41.957  -8.648   1.163  1.00  0.00     0.159 HD
HETATM   29  O   UNL     1      43.045  -8.762  -1.093  1.00  0.00    -0.266 OA
ENDBRANCH   8  25
TORSDOF 3
ENDMDL
MODEL 4
REMARK VINA RESULT:      -8.3      4.411      7.123
REMARK  3 active torsions:
REMARK  status: ('A' for Active; 'I' for Inactive)
REMARK    1  A    between atoms: C_8  and  C_9 
REMARK       I    between atoms: C_9  and  N_10 
REMARK    2  A    between atoms: N_10  and  C_11 
REMARK    3  A    between atoms: C_18  and  C_19 
REMARK       I    between atoms: C_19  and  N_20 
ROOT
HETATM    1  C   UNL     1      43.747 -12.592   6.354  1.00  0.00     0.035 A 
HETATM    2  C   UNL     1      43.540 -12.114   7.655  1.00  0.00     0.046 A 
HETATM    3  C   UNL     1      44.402 -11.124   8.179  1.00  0.00     0.030 A 
HETATM    4  C   UNL     1      45.426 -10.635   7.379  1.00  0.00     0.063 A 
HETATM    5  N   UNL     1      46.067  -9.699   8.141  1.00  0.00    -0.277 N 
HETATM    6  H   UNL     1      46.863  -9.132   7.875  1.00  0.00     0.189 HD
HETATM    7  N   UNL     1      45.566  -9.551   9.378  1.00  0.00    -0.168 NA
HETATM    8  C   UNL     1      44.539 -10.431   9.420  1.00  0.00     0.156 A 
HETATM    9  C   UNL     1      45.660 -11.086   6.079  1.00  0.00     0.034 A 
HETATM   10  C   UNL     1      44.806 -12.082   5.590  1.00  0.00     0.032 A 
ENDROOT
BRANCH   1  11
HETATM   11  N   UNL     1      42.964 -13.602   5.756  1.00  0.00    -0.327 N 
HETATM   12  C   UNL     1      41.608 -13.570   5.486  1.00  0.00     0.231 C 
HETATM   13  O   UNL     1      40.882 -12.590   5.649  1.00  0.00    -0.272 OA
HETATM   14  H   UNL     1      43.477 -14.420   5.449  1.00  0.00     0.169 HD
BRANCH  12  15
HETATM   15  C   UNL     1      40.984 -14.883   4.978  1.00  0.00     0.116 C 
HETATM   16  C   UNL     1      41.843 -15.712   4.053  1.00  0.00    -0.012 A 
HETATM   17  C   UNL     1      41.973 -15.358   2.699  1.00  0.00     0.011 A 
HETATM   18  C   UNL     1      42.535 -16.828   4.536  1.00  0.00     0.075 A 
HETATM   19  C   UNL     1      42.785 -16.110   1.848  1.00  0.00     0.001 A 
HETATM   20  C   UNL     1      43.466 -17.221   2.338  1.00  0.00     0.003 A 
HETATM   21  C   UNL     1      43.338 -17.582   3.679  1.00  0.00     0.037 A 
HETATM   22  O   UNL     1      42.458 -17.278   5.824  1.00  0.00    -0.351 OA
HETATM   23  C   UNL     1      41.811 -16.408   6.757  1.00  0.00     0.176 C 
HETATM   24  C   UNL     1      40.575 -15.740   6.177  1.00  0.00     0.045 C 
ENDBRANCH  12  15
ENDBRANCH   1  11
BRANCH   8  25
HETATM   25  C   UNL     1      43.730 -10.598  10.635  1.00  0.00     0.270 C 
HETATM   26  N   UNL     1      42.508  -9.982  10.581  1.00  0.00    -0.365 N 
HETATM   27  H   UNL     1      42.265  -9.460   9.747  1.00  0.00     0.159 HD
HETATM   28  H   UNL     1      41.896 -10.019  11.381  1.00  0.00     0.159 HD
HETATM   29  O   UNL     1      44.086 -11.214  11.634  1.00  0.00    -0.266 OA
ENDBRANCH   8  25
TORSDOF 3
ENDMDL
MODEL 5
REMARK VINA RESULT:      -8.2      2.948      8.242
REMARK  3 active torsions:
REMARK  status: ('A' for Active; 'I' for Inactive)
REMARK    1  A    between atoms: C_8  and  C_9 
REMARK       I    between atoms: C_9  and  N_10 
REMARK    2  A    between atoms: N_10  and  C_11 
REMARK    3  A    between atoms: C_18  and  C_19 
REMARK       I    between atoms: C_19  and  N_20 
ROOT
HETATM    1  C   UNL     1      41.275 -12.798   1.616  1.00  0.00     0.035 A 
HETATM    2  C   UNL     1      40.903 -12.880   0.267  1.00  0.00     0.046 A 
HETATM    3  C   UNL     1      40.925 -11.716  -0.533  1.00  0.00     0.030 A 
HETATM    4  C   UNL     1      41.336 -10.518   0.036  1.00  0.00     0.063 A 
HETATM    5  N   UNL     1      41.265  -9.595  -0.969  1.00  0.00    -0.277 N 
HETATM    6  H   UNL     1      41.499  -8.610  -0.915  1.00  0.00     0.189 HD
HETATM    7  N   UNL     1      40.821 -10.080  -2.139  1.00  0.00    -0.168 NA
HETATM    8  C   UNL     1      40.600 -11.390  -1.885  1.00  0.00     0.156 A 
HETATM    9  C   UNL     1      41.716 -10.401   1.374  1.00  0.00     0.034 A 
HETATM   10  C   UNL     1      41.664 -11.563   2.153  1.00  0.00     0.032 A 
ENDROOT
BRANCH   1  11
HETATM   11  N   UNL     1      41.253 -13.895   2.504  1.00  0.00    -0.327 N 
HETATM   12  C   UNL     1      42.252 -14.827   2.721  1.00  0.00     0.231 C 
HETATM   13  O   UNL     1      43.376 -14.779   2.223  1.00  0.00    -0.272 OA
HETATM   14  H   UNL     1      40.421 -13.968   3.077  1.00  0.00     0.169 HD
BRANCH  12  15
HETATM   15  C   UNL     1      41.888 -16.015   3.628  1.00  0.00     0.116 C 
HETATM   16  C   UNL     1      42.719 -17.265   3.451  1.00  0.00    -0.012 A 
HETATM   17  C   UNL     1      42.473 -18.132   2.374  1.00  0.00     0.011 A 
HETATM   18  C   UNL     1      43.753 -17.562   4.345  1.00  0.00     0.075 A 
HETATM   19  C   UNL     1      43.254 -19.275   2.196  1.00  0.00     0.001 A 
HETATM   20  C   UNL     1      44.279 -19.564   3.092  1.00  0.00     0.003 A 
HETATM   21  C   UNL     1      44.525 -18.711   4.168  1.00  0.00     0.037 A 
HETATM   22  O   UNL     1      44.061 -16.806   5.441  1.00  0.00    -0.351 OA
HETATM   23  C   UNL     1      43.422 -15.528   5.523  1.00  0.00     0.176 C 
HETATM   24  C   UNL     1      41.965 -15.571   5.091  1.00  0.00     0.045 C 
ENDBRANCH  12  15
ENDBRANCH   1  11
BRANCH   8  25
HETATM   25  C   UNL     1      40.075 -12.288  -2.923  1.00  0.00     0.270 C 
HETATM   26  N   UNL     1      38.765 -12.059  -3.249  1.00  0.00    -0.365 N 
HETATM   27  H   UNL     1      38.264 -11.328  -2.758  1.00  0.00     0.159 HD
HETATM   28  H   UNL     1      38.312 -12.645  -3.932  1.00  0.00     0.159 HD
HETATM   29  O   UNL     1      40.716 -13.183  -3.463  1.00  0.00    -0.266 OA
ENDBRANCH   8  25
TORSDOF 3
ENDMDL
MODEL 6
REMARK VINA RESULT:      -8.0      5.018      6.832
REMARK  3 active torsions:
REMARK  status: ('A' for Active; 'I' for Inactive)
REMARK    1  A    between atoms: C_8  and  C_9 
REMARK       I    between atoms: C_9  and  N_10 
REMARK    2  A    between atoms: N_10  and  C_11 
REMARK    3  A    between atoms: C_18  and  C_19 
REMARK       I    between atoms: C_19  and  N_20 
ROOT
HETATM    1  C   UNL     1      44.004 -10.987   6.413  1.00  0.00     0.035 A 
HETATM    2  C   UNL     1      43.225 -10.483   7.463  1.00  0.00     0.046 A 
HETATM    3  C   UNL     1      43.848 -10.115   8.678  1.00  0.00     0.030 A 
HETATM    4  C   UNL     1      45.226 -10.245   8.790  1.00  0.00     0.063 A 
HETATM    5  N   UNL     1      45.530  -9.806  10.049  1.00  0.00    -0.277 N 
HETATM    6  H   UNL     1      46.449  -9.754  10.475  1.00  0.00     0.189 HD
HETATM    7  N   UNL     1      44.469  -9.424  10.776  1.00  0.00    -0.168 NA
HETATM    8  C   UNL     1      43.419  -9.614   9.944  1.00  0.00     0.156 A 
HETATM    9  C   UNL     1      46.032 -10.740   7.764  1.00  0.00     0.034 A 
HETATM   10  C   UNL     1      45.389 -11.119   6.580  1.00  0.00     0.032 A 
ENDROOT
BRANCH   1  11
HETATM   11  N   UNL     1      43.471 -11.413   5.177  1.00  0.00    -0.327 N 
HETATM   12  C   UNL     1      42.973 -12.663   4.858  1.00  0.00     0.231 C 
HETATM   13  O   UNL     1      42.832 -13.588   5.658  1.00  0.00    -0.272 OA
HETATM   14  H   UNL     1      43.407 -10.695   4.465  1.00  0.00     0.169 HD
BRANCH  12  15
HETATM   15  C   UNL     1      42.609 -12.894   3.381  1.00  0.00     0.116 C 
HETATM   16  C   UNL     1      42.307 -14.320   2.986  1.00  0.00    -0.012 A 
HETATM   17  C   UNL     1      43.354 -15.233   2.774  1.00  0.00     0.011 A 
HETATM   18  C   UNL     1      40.984 -14.754   2.846  1.00  0.00     0.075 A 
HETATM   19  C   UNL     1      43.076 -16.557   2.431  1.00  0.00     0.001 A 
HETATM   20  C   UNL     1      41.757 -16.978   2.292  1.00  0.00     0.003 A 
HETATM   21  C   UNL     1      40.712 -16.076   2.494  1.00  0.00     0.037 A 
HETATM   22  O   UNL     1      39.893 -13.946   3.000  1.00  0.00    -0.351 OA
HETATM   23  C   UNL     1      40.141 -12.652   3.557  1.00  0.00     0.176 C 
HETATM   24  C   UNL     1      41.411 -12.014   3.017  1.00  0.00     0.045 C 
ENDBRANCH  12  15
ENDBRANCH   1  11
BRANCH   8  25
HETATM   25  C   UNL     1      42.044  -9.331  10.378  1.00  0.00     0.270 C 
HETATM   26  N   UNL     1      41.580 -10.177  11.349  1.00  0.00    -0.365 N 
HETATM   27  H   UNL     1      42.186 -10.921  11.674  1.00  0.00     0.159 HD
HETATM   28  H   UNL     1      40.636 -10.076  11.688  1.00  0.00     0.159 HD
HETATM   29  O   UNL     1      41.339  -8.436   9.926  1.00  0.00    -0.266 OA
ENDBRANCH   8  25
TORSDOF 3
ENDMDL
MODEL 7
REMARK VINA RESULT:      -7.9      1.501      2.454
REMARK  3 active torsions:
REMARK  status: ('A' for Active; 'I' for Inactive)
REMARK    1  A    between atoms: C_8  and  C_9 
REMARK       I    between atoms: C_9  and  N_10 
REMARK    2  A    between atoms: N_10  and  C_11 
REMARK    3  A    between atoms: C_18  and  C_19 
REMARK       I    between atoms: C_19  and  N_20 
ROOT
HETATM    1  C   UNL     1      42.112 -14.728   3.485  1.00  0.00     0.035 A 
HETATM    2  C   UNL     1      42.701 -15.999   3.458  1.00  0.00     0.046 A 
HETATM    3  C   UNL     1      42.930 -16.687   4.671  1.00  0.00     0.030 A 
HETATM    4  C   UNL     1      42.544 -16.090   5.864  1.00  0.00     0.063 A 
HETATM    5  N   UNL     1      42.876 -16.985   6.842  1.00  0.00    -0.277 N 
HETATM    6  H   UNL     1      42.733 -16.883   7.840  1.00  0.00     0.189 HD
HETATM    7  N   UNL     1      43.467 -18.104   6.395  1.00  0.00    -0.168 NA
HETATM    8  C   UNL     1      43.513 -17.933   5.053  1.00  0.00     0.156 A 
HETATM    9  C   UNL     1      41.953 -14.827   5.928  1.00  0.00     0.034 A 
HETATM   10  C   UNL     1      41.757 -14.156   4.715  1.00  0.00     0.032 A 
ENDROOT
BRANCH   1  11
HETATM   11  N   UNL     1      41.875 -13.948   2.333  1.00  0.00    -0.327 N 
HETATM   12  C   UNL     1      40.811 -14.042   1.454  1.00  0.00     0.231 C 
HETATM   13  O   UNL     1      39.839 -14.781   1.604  1.00  0.00    -0.272 OA
HETATM   14  H   UNL     1      42.544 -13.205   2.171  1.00  0.00     0.169 HD
BRANCH  12  15
HETATM   15  C   UNL     1      40.897 -13.172   0.187  1.00  0.00     0.116 C 
HETATM   16  C   UNL     1      39.813 -13.389  -0.842  1.00  0.00    -0.012 A 
HETATM   17  C   UNL     1      39.870 -14.492  -1.709  1.00  0.00     0.011 A 
HETATM   18  C   UNL     1      38.731 -12.505  -0.931  1.00  0.00     0.075 A 
HETATM   19  C   UNL     1      38.857 -14.706  -2.646  1.00  0.00     0.001 A 
HETATM   20  C   UNL     1      37.787 -13.820  -2.728  1.00  0.00     0.003 A 
HETATM   21  C   UNL     1      37.726 -12.719  -1.875  1.00  0.00     0.037 A 
HETATM   22  O   UNL     1      38.590 -11.386  -0.159  1.00  0.00    -0.351 OA
HETATM   23  C   UNL     1      39.494 -11.265   0.943  1.00  0.00     0.176 C 
HETATM   24  C   UNL     1      40.909 -11.696   0.593  1.00  0.00     0.045 C 
ENDBRANCH  12  15
ENDBRANCH   1  11
BRANCH   8  25
HETATM   25  C   UNL     1      44.120 -18.946   4.178  1.00  0.00     0.270 C 
HETATM   26  N   UNL     1      44.359 -20.144   4.795  1.00  0.00    -0.365 N 
HETATM   27  H   UNL     1      44.128 -20.239   5.777  1.00  0.00     0.159 HD
HETATM   28  H   UNL     1      44.800 -20.890   4.279  1.00  0.00     0.159 HD
HETATM   29  O   UNL     1      44.412 -18.768   3.001  1.00  0.00    -0.266 OA
ENDBRANCH   8  25
TORSDOF 3
ENDMDL
MODEL 8
REMARK VINA RESULT:      -7.9     12.942     17.701
REMARK  3 active torsions:
REMARK  status: ('A' for Active; 'I' for Inactive)
REMARK    1  A    between atoms: C_8  and  C_9 
REMARK       I    between atoms: C_9  and  N_10 
REMARK    2  A    between atoms: N_10  and  C_11 
REMARK    3  A    between atoms: C_18  and  C_19 
REMARK       I    between atoms: C_19  and  N_20 
ROOT
HETATM    1  C   UNL     1      41.653  -7.901  15.808  1.00  0.00     0.035 A 
HETATM    2  C   UNL     1      40.971  -8.824  15.003  1.00  0.00     0.046 A 
HETATM    3  C   UNL     1      41.259  -8.889  13.621  1.00  0.00     0.030 A 
HETATM    4  C   UNL     1      42.230  -8.046  13.098  1.00  0.00     0.063 A 
HETATM    5  N   UNL     1      42.292  -8.347  11.766  1.00  0.00    -0.277 N 
HETATM    6  H   UNL     1      42.899  -7.929  11.070  1.00  0.00     0.189 HD
HETATM    7  N   UNL     1      41.429  -9.296  11.369  1.00  0.00    -0.168 NA
HETATM    8  C   UNL     1      40.778  -9.638  12.505  1.00  0.00     0.156 A 
HETATM    9  C   UNL     1      42.930  -7.118  13.870  1.00  0.00     0.034 A 
HETATM   10  C   UNL     1      42.612  -7.056  15.231  1.00  0.00     0.032 A 
ENDROOT
BRANCH   1  11
HETATM   11  N   UNL     1      41.412  -7.736  17.189  1.00  0.00    -0.327 N 
HETATM   12  C   UNL     1      40.357  -7.073  17.788  1.00  0.00     0.231 C 
HETATM   13  O   UNL     1      39.397  -6.593  17.188  1.00  0.00    -0.272 OA
HETATM   14  H   UNL     1      42.070  -8.206  17.799  1.00  0.00     0.169 HD
BRANCH  12  15
HETATM   15  C   UNL     1      40.438  -6.908  19.316  1.00  0.00     0.116 C 
HETATM   16  C   UNL     1      41.457  -7.769  20.025  1.00  0.00    -0.012 A 
HETATM   17  C   UNL     1      41.186  -9.124  20.278  1.00  0.00     0.011 A 
HETATM   18  C   UNL     1      42.688  -7.233  20.418  1.00  0.00     0.075 A 
HETATM   19  C   UNL     1      42.136  -9.926  20.912  1.00  0.00     0.001 A 
HETATM   20  C   UNL     1      43.357  -9.383  21.302  1.00  0.00     0.003 A 
HETATM   21  C   UNL     1      43.631  -8.037  21.060  1.00  0.00     0.037 A 
HETATM   22  O   UNL     1      43.044  -5.925  20.248  1.00  0.00    -0.351 OA
HETATM   23  C   UNL     1      42.184  -5.142  19.415  1.00  0.00     0.176 C 
HETATM   24  C   UNL     1      40.711  -5.439  19.649  1.00  0.00     0.045 C 
ENDBRANCH  12  15
ENDBRANCH   1  11
BRANCH   8  25
HETATM   25  C   UNL     1      39.713 -10.650  12.494  1.00  0.00     0.270 C 
HETATM   26  N   UNL     1      39.097 -10.800  11.281  1.00  0.00    -0.365 N 
HETATM   27  H   UNL     1      39.394 -10.212  10.511  1.00  0.00     0.159 HD
HETATM   28  H   UNL     1      38.335 -11.453  11.186  1.00  0.00     0.159 HD
HETATM   29  O   UNL     1      39.368 -11.312  13.467  1.00  0.00    -0.266 OA
ENDBRANCH   8  25
TORSDOF 3
ENDMDL
MODEL 9
REMARK VINA RESULT:      -7.9      5.336      7.145
REMARK  3 active torsions:
REMARK  status: ('A' for Active; 'I' for Inactive)
REMARK    1  A    between atoms: C_8  and  C_9 
REMARK       I    between atoms: C_9  and  N_10 
REMARK    2  A    between atoms: N_10  and  C_11 
REMARK    3  A    between atoms: C_18  and  C_19 
REMARK       I    between atoms: C_19  and  N_20 
ROOT
HETATM    1  C   UNL     1      43.356 -11.809   6.905  1.00  0.00     0.035 A 
HETATM    2  C   UNL     1      42.998 -10.523   7.334  1.00  0.00     0.046 A 
HETATM    3  C   UNL     1      44.005  -9.625   7.757  1.00  0.00     0.030 A 
HETATM    4  C   UNL     1      45.330 -10.036   7.717  1.00  0.00     0.063 A 
HETATM    5  N   UNL     1      46.055  -8.968   8.164  1.00  0.00    -0.277 N 
HETATM    6  H   UNL     1      47.063  -8.908   8.262  1.00  0.00     0.189 HD
HETATM    7  N   UNL     1      45.318  -7.902   8.515  1.00  0.00    -0.168 NA
HETATM    8  C   UNL     1      44.045  -8.295   8.275  1.00  0.00     0.156 A 
HETATM    9  C   UNL     1      45.722 -11.308   7.293  1.00  0.00     0.034 A 
HETATM   10  C   UNL     1      44.706 -12.186   6.901  1.00  0.00     0.032 A 
ENDROOT
BRANCH   1  11
HETATM   11  N   UNL     1      42.423 -12.787   6.498  1.00  0.00    -0.327 N 
HETATM   12  C   UNL     1      42.239 -13.302   5.227  1.00  0.00     0.231 C 
HETATM   13  O   UNL     1      42.946 -13.040   4.255  1.00  0.00    -0.272 OA
HETATM   14  H   UNL     1      41.864 -13.184   7.243  1.00  0.00     0.169 HD
BRANCH  12  15
HETATM   15  C   UNL     1      41.034 -14.240   5.042  1.00  0.00     0.116 C 
HETATM   16  C   UNL     1      40.701 -14.619   3.618  1.00  0.00    -0.012 A 
HETATM   17  C   UNL     1      40.011 -13.721   2.787  1.00  0.00     0.011 A 
HETATM   18  C   UNL     1      41.092 -15.861   3.105  1.00  0.00     0.075 A 
HETATM   19  C   UNL     1      39.722 -14.062   1.465  1.00  0.00     0.001 A 
HETATM   20  C   UNL     1      40.113 -15.300   0.964  1.00  0.00     0.003 A 
HETATM   21  C   UNL     1      40.793 -16.201   1.785  1.00  0.00     0.037 A 
HETATM   22  O   UNL     1      41.740 -16.821   3.830  1.00  0.00    -0.351 OA
HETATM   23  C   UNL     1      42.233 -16.416   5.110  1.00  0.00     0.176 C 
HETATM   24  C   UNL     1      41.261 -15.515   5.856  1.00  0.00     0.045 C 
ENDBRANCH  12  15
ENDBRANCH   1  11
BRANCH   8  25
HETATM   25  C   UNL     1      42.910  -7.406   8.556  1.00  0.00     0.270 C 
HETATM   26  N   UNL     1      42.182  -7.763   9.659  1.00  0.00    -0.365 N 
HETATM   27  H   UNL     1      42.455  -8.593  10.173  1.00  0.00     0.159 HD
HETATM   28  H   UNL     1      41.367  -7.227   9.913  1.00  0.00     0.159 HD
HETATM   29  O   UNL     1      42.600  -6.431   7.880  1.00  0.00    -0.266 OA
ENDBRANCH   8  25
TORSDOF 3
ENDMDL
MODEL 10
REMARK VINA RESULT:      -7.7      5.082      7.704
REMARK  3 active torsions:
REMARK  status: ('A' for Active; 'I' for Inactive)
REMARK    1  A    between atoms: C_8  and  C_9 
REMARK       I    between atoms: C_9  and  N_10 
REMARK    2  A    between atoms: N_10  and  C_11 
REMARK    3  A    between atoms: C_18  and  C_19 
REMARK       I    between atoms: C_19  and  N_20 
ROOT
HETATM    1  C   UNL     1      41.632 -11.257   6.541  1.00  0.00     0.035 A 
HETATM    2  C   UNL     1      42.863 -11.008   7.160  1.00  0.00     0.046 A 
HETATM    3  C   UNL     1      43.190  -9.691   7.557  1.00  0.00     0.030 A 
HETATM    4  C   UNL     1      42.267  -8.677   7.338  1.00  0.00     0.063 A 
HETATM    5  N   UNL     1      42.851  -7.543   7.831  1.00  0.00    -0.277 N 
HETATM    6  H   UNL     1      42.459  -6.608   7.845  1.00  0.00     0.189 HD
HETATM    7  N   UNL     1      44.084  -7.723   8.330  1.00  0.00    -0.168 NA
HETATM    8  C   UNL     1      44.311  -9.047   8.162  1.00  0.00     0.156 A 
HETATM    9  C   UNL     1      41.031  -8.889   6.727  1.00  0.00     0.034 A 
HETATM   10  C   UNL     1      40.740 -10.198   6.323  1.00  0.00     0.032 A 
ENDROOT
BRANCH   1  11
HETATM   11  N   UNL     1      41.230 -12.529   6.078  1.00  0.00    -0.327 N 
HETATM   12  C   UNL     1      41.914 -13.370   5.220  1.00  0.00     0.231 C 
HETATM   13  O   UNL     1      43.050 -13.166   4.794  1.00  0.00    -0.272 OA
HETATM   14  H   UNL     1      40.360 -12.873   6.467  1.00  0.00     0.169 HD
BRANCH  12  15
HETATM   15  C   UNL     1      41.159 -14.628   4.755  1.00  0.00     0.116 C 
HETATM   16  C   UNL     1      41.941 -15.594   3.897  1.00  0.00    -0.012 A 
HETATM   17  C   UNL     1      42.145 -15.325   2.533  1.00  0.00     0.011 A 
HETATM   18  C   UNL     1      42.489 -16.755   4.453  1.00  0.00     0.075 A 
HETATM   19  C   UNL     1      42.887 -16.205   1.743  1.00  0.00     0.001 A 
HETATM   20  C   UNL     1      43.425 -17.359   2.306  1.00  0.00     0.003 A 
HETATM   21  C   UNL     1      43.222 -17.636   3.658  1.00  0.00     0.037 A 
HETATM   22  O   UNL     1      42.330 -17.129   5.758  1.00  0.00    -0.351 OA
HETATM   23  C   UNL     1      41.762 -16.146   6.629  1.00  0.00     0.176 C 
HETATM   24  C   UNL     1      40.625 -15.373   5.980  1.00  0.00     0.045 C 
ENDBRANCH  12  15
ENDBRANCH   1  11
BRANCH   8  25
HETATM   25  C   UNL     1      45.586  -9.656   8.567  1.00  0.00     0.270 C 
HETATM   26  N   UNL     1      46.662  -9.239   7.832  1.00  0.00    -0.365 N 
HETATM   27  H   UNL     1      46.508  -8.579   7.078  1.00  0.00     0.159 HD
HETATM   28  H   UNL     1      47.574  -9.625   8.020  1.00  0.00     0.159 HD
HETATM   29  O   UNL     1      45.713 -10.479   9.467  1.00  0.00    -0.266 OA
ENDBRANCH   8  25
TORSDOF 3
ENDMDL
