MODEL 1
REMARK VINA RESULT:      -8.2      0.000      0.000
REMARK  6 active torsions:
REMARK  status: ('A' for Active; 'I' for Inactive)
REMARK    1  A    between atoms: C_3  and  C_4 
REMARK    2  A    between atoms: C_4  and  N_5 
REMARK    3  A    between atoms: C_4  and  C_19 
REMARK    4  A    between atoms: N_9  and  C_10 
REMARK    5  A    between atoms: C_25  and  N_26 
REMARK       I    between atoms: N_26  and  C_27 
REMARK    6  A    between atoms: C_27  and  C_28 
ROOT
HETATM    1  C   UNL     1      41.557 -12.545   4.602  1.00  0.00     0.259 C 
ENDROOT
BRANCH   1   2
HETATM    2  C   UNL     1      40.689 -11.328   4.285  1.00  0.00     0.018 A 
HETATM    3  C   UNL     1      40.227 -10.415   5.347  1.00  0.00    -0.038 A 
HETATM    4  C   UNL     1      40.654 -10.463   6.789  1.00  0.00     0.050 C 
HETATM    5  C   UNL     1      39.314  -9.487   4.874  1.00  0.00    -0.013 A 
HETATM    6  S   UNL     1      39.029  -9.663   3.214  1.00  0.00    -0.076 SA
HETATM    7  C   UNL     1      38.591  -8.410   5.626  1.00  0.00     0.057 C 
HETATM    8  C   UNL     1      40.155 -10.924   3.060  1.00  0.00     0.086 A 
BRANCH   8   9
HETATM    9  N   UNL     1      40.468 -11.322   1.769  1.00  0.00    -0.315 N 
HETATM   10  C   UNL     1      39.887 -12.386   1.086  1.00  0.00     0.280 C 
HETATM   11  O   UNL     1      39.203 -13.259   1.605  1.00  0.00    -0.265 OA
HETATM   12  H   UNL     1      41.181 -10.840   1.239  1.00  0.00     0.170 HD
BRANCH  10  13
HETATM   13  C   UNL     1      40.342 -12.460  -0.288  1.00  0.00     0.142 A 
HETATM   14  O   UNL     1      41.096 -11.427  -0.791  1.00  0.00    -0.317 OA
HETATM   15  C   UNL     1      41.368 -11.729  -2.087  1.00  0.00     0.143 A 
HETATM   16  C   UNL     1      40.849 -12.961  -2.414  1.00  0.00     0.027 A 
HETATM   17  C   UNL     1      40.196 -13.436  -1.252  1.00  0.00     0.045 A 
ENDBRANCH  10  13
ENDBRANCH   8   9
ENDBRANCH   1   2
BRANCH   1  18
HETATM   18  N   UNL     1      41.472 -13.742   3.606  1.00  0.00    -0.056 N 
HETATM   19  H   UNL     1      40.826 -13.385   2.889  1.00  0.00     0.281 HD
HETATM   20  C   UNL     1      42.740 -14.105   2.862  1.00  0.00     0.256 C 
HETATM   21  C   UNL     1      42.548 -15.289   1.878  1.00  0.00     0.152 C 
HETATM   22  N   UNL     1      41.897 -16.447   2.514  1.00  0.00    -0.364 N 
HETATM   23  C   UNL     1      40.626 -16.110   3.190  1.00  0.00     0.152 C 
HETATM   24  C   UNL     1      40.812 -14.977   4.225  1.00  0.00     0.256 C 
BRANCH  22  25
HETATM   25  C   UNL     1      42.668 -17.522   2.911  1.00  0.00     0.102 A 
HETATM   26  N   UNL     1      43.311 -17.447   4.094  1.00  0.00    -0.352 N 
HETATM   27  H   UNL     1      43.250 -16.573   4.609  1.00  0.00     0.166 HD
HETATM   28  C   UNL     1      44.094 -18.418   4.589  1.00  0.00     0.089 A 
HETATM   29  C   UNL     1      44.291 -19.585   3.871  1.00  0.00     0.017 A 
HETATM   30  C   UNL     1      43.683 -19.711   2.631  1.00  0.00     0.005 A 
HETATM   31  C   UNL     1      42.879 -18.679   2.146  1.00  0.00     0.048 A 
ENDBRANCH  22  25
ENDBRANCH   1  18
BRANCH   1  32
HETATM   32  C   UNL     1      42.926 -12.138   5.116  1.00  0.00    -0.005 A 
HETATM   33  C   UNL     1      43.839 -11.333   4.446  1.00  0.00     0.125 A 
HETATM   34  N   UNL     1      45.093 -11.063   4.872  1.00  0.00    -0.273 NA
HETATM   35  C   UNL     1      45.461 -11.526   6.081  1.00  0.00     0.116 A 
HETATM   36  C   UNL     1      44.620 -12.268   6.880  1.00  0.00     0.020 A 
HETATM   37  C   UNL     1      43.348 -12.570   6.392  1.00  0.00     0.012 A 
ENDBRANCH   1  32
TORSDOF 6
ENDMDL
MODEL 2
REMARK VINA RESULT:      -8.2      5.067      9.000
REMARK  6 active torsions:
REMARK  status: ('A' for Active; 'I' for Inactive)
REMARK    1  A    between atoms: C_3  and  C_4 
REMARK    2  A    between atoms: C_4  and  N_5 
REMARK    3  A    between atoms: C_4  and  C_19 
REMARK    4  A    between atoms: N_9  and  C_10 
REMARK    5  A    between atoms: C_25  and  N_26 
REMARK       I    between atoms: N_26  and  C_27 
REMARK    6  A    between atoms: C_27  and  C_28 
ROOT
HETATM    1  C   UNL     1      42.527  -9.233   8.592  1.00  0.00     0.259 C 
ENDROOT
BRANCH   1   2
HETATM    2  C   UNL     1      41.601  -9.128   7.381  1.00  0.00     0.018 A 
HETATM    3  C   UNL     1      41.295  -7.829   6.756  1.00  0.00    -0.038 A 
HETATM    4  C   UNL     1      41.942  -6.516   7.106  1.00  0.00     0.050 C 
HETATM    5  C   UNL     1      40.304  -7.935   5.793  1.00  0.00    -0.013 A 
HETATM    6  S   UNL     1      39.768  -9.530   5.605  1.00  0.00    -0.076 SA
HETATM    7  C   UNL     1      39.690  -6.857   4.951  1.00  0.00     0.057 C 
HETATM    8  C   UNL     1      40.877 -10.135   6.739  1.00  0.00     0.086 A 
BRANCH   8   9
HETATM    9  N   UNL     1      40.992 -11.515   6.819  1.00  0.00    -0.315 N 
HETATM   10  C   UNL     1      41.580 -12.335   5.861  1.00  0.00     0.280 C 
HETATM   11  O   UNL     1      41.856 -11.989   4.719  1.00  0.00    -0.265 OA
HETATM   12  H   UNL     1      40.623 -12.018   7.613  1.00  0.00     0.170 HD
BRANCH  10  13
HETATM   13  C   UNL     1      41.654 -13.713   6.301  1.00  0.00     0.142 A 
HETATM   14  O   UNL     1      40.540 -14.508   6.177  1.00  0.00    -0.317 OA
HETATM   15  C   UNL     1      40.865 -15.728   6.678  1.00  0.00     0.143 A 
HETATM   16  C   UNL     1      42.182 -15.751   7.074  1.00  0.00     0.027 A 
HETATM   17  C   UNL     1      42.694 -14.456   6.823  1.00  0.00     0.045 A 
ENDBRANCH  10  13
ENDBRANCH   8   9
ENDBRANCH   1   2
BRANCH   1  18
HETATM   18  N   UNL     1      41.893  -9.766   9.913  1.00  0.00    -0.056 N 
HETATM   19  H   UNL     1      41.657 -10.737   9.667  1.00  0.00     0.281 HD
HETATM   20  C   UNL     1      42.805  -9.865  11.118  1.00  0.00     0.256 C 
HETATM   21  C   UNL     1      42.091 -10.430  12.374  1.00  0.00     0.152 C 
HETATM   22  N   UNL     1      40.826  -9.732  12.661  1.00  0.00    -0.364 N 
HETATM   23  C   UNL     1      39.904  -9.686  11.505  1.00  0.00     0.152 C 
HETATM   24  C   UNL     1      40.579  -9.062  10.261  1.00  0.00     0.256 C 
BRANCH  22  25
HETATM   25  C   UNL     1      40.791  -8.775  13.655  1.00  0.00     0.102 A 
HETATM   26  N   UNL     1      39.877  -7.788  13.564  1.00  0.00    -0.352 N 
HETATM   27  H   UNL     1      39.296  -7.759  12.731  1.00  0.00     0.166 HD
HETATM   28  C   UNL     1      39.746  -6.796  14.459  1.00  0.00     0.089 A 
HETATM   29  C   UNL     1      40.587  -6.736  15.556  1.00  0.00     0.017 A 
HETATM   30  C   UNL     1      41.572  -7.704  15.692  1.00  0.00     0.005 A 
HETATM   31  C   UNL     1      41.682  -8.717  14.739  1.00  0.00     0.048 A 
ENDBRANCH  22  25
ENDBRANCH   1  18
BRANCH   1  32
HETATM   32  C   UNL     1      43.903  -9.742   8.202  1.00  0.00    -0.005 A 
HETATM   33  C   UNL     1      44.197 -11.024   7.753  1.00  0.00     0.125 A 
HETATM   34  N   UNL     1      45.442 -11.492   7.507  1.00  0.00    -0.273 NA
HETATM   35  C   UNL     1      46.471 -10.631   7.610  1.00  0.00     0.116 A 
HETATM   36  C   UNL     1      46.302  -9.311   7.968  1.00  0.00     0.020 A 
HETATM   37  C   UNL     1      45.012  -8.870   8.261  1.00  0.00     0.012 A 
ENDBRANCH   1  32
TORSDOF 6
ENDMDL
MODEL 3
REMARK VINA RESULT:      -8.1      3.326      7.250
REMARK  6 active torsions:
REMARK  status: ('A' for Active; 'I' for Inactive)
REMARK    1  A    between atoms: C_3  and  C_4 
REMARK    2  A    between atoms: C_4  and  N_5 
REMARK    3  A    between atoms: C_4  and  C_19 
REMARK    4  A    between atoms: N_9  and  C_10 
REMARK    5  A    between atoms: C_25  and  N_26 
REMARK       I    between atoms: N_26  and  C_27 
REMARK    6  A    between atoms: C_27  and  C_28 
ROOT
HETATM    1  C   UNL     1      41.976 -13.973   4.449  1.00  0.00     0.259 C 
ENDROOT
BRANCH   1   2
HETATM    2  C   UNL     1      42.571 -14.875   5.529  1.00  0.00     0.018 A 
HETATM    3  C   UNL     1      42.798 -16.312   5.292  1.00  0.00    -0.038 A 
HETATM    4  C   UNL     1      42.633 -17.018   3.974  1.00  0.00     0.050 C 
HETATM    5  C   UNL     1      43.175 -16.977   6.448  1.00  0.00    -0.013 A 
HETATM    6  S   UNL     1      43.290 -15.931   7.775  1.00  0.00    -0.076 SA
HETATM    7  C   UNL     1      43.472 -18.434   6.643  1.00  0.00     0.057 C 
HETATM    8  C   UNL     1      42.913 -14.561   6.846  1.00  0.00     0.086 A 
BRANCH   8   9
HETATM    9  N   UNL     1      43.078 -13.329   7.462  1.00  0.00    -0.315 N 
HETATM   10  C   UNL     1      44.050 -12.387   7.140  1.00  0.00     0.280 C 
HETATM   11  O   UNL     1      45.034 -12.608   6.446  1.00  0.00    -0.265 OA
HETATM   12  H   UNL     1      42.476 -13.048   8.222  1.00  0.00     0.170 HD
BRANCH  10  13
HETATM   13  C   UNL     1      43.875 -11.155   7.881  1.00  0.00     0.142 A 
HETATM   14  O   UNL     1      44.263 -11.115   9.199  1.00  0.00    -0.317 OA
HETATM   15  C   UNL     1      43.972  -9.871   9.661  1.00  0.00     0.143 A 
HETATM   16  C   UNL     1      43.454  -9.091   8.653  1.00  0.00     0.027 A 
HETATM   17  C   UNL     1      43.400  -9.915   7.503  1.00  0.00     0.045 A 
ENDBRANCH  10  13
ENDBRANCH   8   9
ENDBRANCH   1   2
BRANCH   1  18
HETATM   18  N   UNL     1      41.585 -14.658   3.103  1.00  0.00    -0.056 N 
HETATM   19  H   UNL     1      42.071 -15.563   3.169  1.00  0.00     0.281 HD
HETATM   20  C   UNL     1      40.122 -14.999   2.908  1.00  0.00     0.256 C 
HETATM   21  C   UNL     1      39.839 -15.700   1.554  1.00  0.00     0.152 C 
HETATM   22  N   UNL     1      40.421 -14.972   0.413  1.00  0.00    -0.364 N 
HETATM   23  C   UNL     1      41.865 -14.691   0.570  1.00  0.00     0.152 C 
HETATM   24  C   UNL     1      42.159 -13.931   1.884  1.00  0.00     0.256 C 
BRANCH  22  25
HETATM   25  C   UNL     1      39.608 -14.177  -0.369  1.00  0.00     0.102 A 
HETATM   26  N   UNL     1      39.169 -13.009   0.143  1.00  0.00    -0.352 N 
HETATM   27  H   UNL     1      39.407 -12.799   1.108  1.00  0.00     0.166 HD
HETATM   28  C   UNL     1      38.370 -12.151  -0.511  1.00  0.00     0.089 A 
HETATM   29  C   UNL     1      37.935 -12.447  -1.791  1.00  0.00     0.017 A 
HETATM   30  C   UNL     1      38.323 -13.650  -2.363  1.00  0.00     0.005 A 
HETATM   31  C   UNL     1      39.151 -14.519  -1.652  1.00  0.00     0.048 A 
ENDBRANCH  22  25
ENDBRANCH   1  18
BRANCH   1  32
HETATM   32  C   UNL     1      41.018 -12.952   5.037  1.00  0.00    -0.005 A 
HETATM   33  C   UNL     1      39.905 -13.239   5.817  1.00  0.00     0.125 A 
HETATM   34  N   UNL     1      39.005 -12.325   6.247  1.00  0.00    -0.273 NA
HETATM   35  C   UNL     1      39.250 -11.028   5.987  1.00  0.00     0.116 A 
HETATM   36  C   UNL     1      40.363 -10.607   5.293  1.00  0.00     0.020 A 
HETATM   37  C   UNL     1      41.248 -11.576   4.821  1.00  0.00     0.012 A 
ENDBRANCH   1  32
TORSDOF 6
ENDMDL
MODEL 4
REMARK VINA RESULT:      -8.1      2.403      6.066
REMARK  6 active torsions:
REMARK  status: ('A' for Active; 'I' for Inactive)
REMARK    1  A    between atoms: C_3  and  C_4 
REMARK    2  A    between atoms: C_4  and  N_5 
REMARK    3  A    between atoms: C_4  and  C_19 
REMARK    4  A    between atoms: N_9  and  C_10 
REMARK    5  A    between atoms: C_25  and  N_26 
REMARK       I    between atoms: N_26  and  C_27 
REMARK    6  A    between atoms: C_27  and  C_28 
ROOT
HETATM    1  C   UNL     1      40.779 -12.794  -0.336  1.00  0.00     0.259 C 
ENDROOT
BRANCH   1   2
HETATM    2  C   UNL     1      40.915 -11.273  -0.401  1.00  0.00     0.018 A 
HETATM    3  C   UNL     1      41.193 -10.579  -1.672  1.00  0.00    -0.038 A 
HETATM    4  C   UNL     1      41.221 -11.222  -3.032  1.00  0.00     0.050 C 
HETATM    5  C   UNL     1      41.453  -9.231  -1.483  1.00  0.00    -0.013 A 
HETATM    6  S   UNL     1      41.342  -8.784   0.147  1.00  0.00    -0.076 SA
HETATM    7  C   UNL     1      41.803  -8.188  -2.501  1.00  0.00     0.057 C 
HETATM    8  C   UNL     1      40.880 -10.342   0.639  1.00  0.00     0.086 A 
BRANCH   8   9
HETATM    9  N   UNL     1      40.447 -10.476   1.949  1.00  0.00    -0.315 N 
HETATM   10  C   UNL     1      39.130 -10.678   2.350  1.00  0.00     0.280 C 
HETATM   11  O   UNL     1      38.150 -10.526   1.632  1.00  0.00    -0.265 OA
HETATM   12  H   UNL     1      41.100 -10.416   2.717  1.00  0.00     0.170 HD
BRANCH  10  13
HETATM   13  C   UNL     1      39.027 -10.903   3.778  1.00  0.00     0.142 A 
HETATM   14  O   UNL     1      39.472 -12.097   4.292  1.00  0.00    -0.317 OA
HETATM   15  C   UNL     1      39.243 -12.062   5.631  1.00  0.00     0.143 A 
HETATM   16  C   UNL     1      38.708 -10.848   5.997  1.00  0.00     0.027 A 
HETATM   17  C   UNL     1      38.578 -10.097   4.804  1.00  0.00     0.045 A 
ENDBRANCH  10  13
ENDBRANCH   8   9
ENDBRANCH   1   2
BRANCH   1  18
HETATM   18  N   UNL     1      40.833 -13.440   1.082  1.00  0.00    -0.056 N 
HETATM   19  H   UNL     1      40.279 -12.780   1.645  1.00  0.00     0.281 HD
HETATM   20  C   UNL     1      40.151 -14.782   1.249  1.00  0.00     0.256 C 
HETATM   21  C   UNL     1      40.236 -15.329   2.698  1.00  0.00     0.152 C 
HETATM   22  N   UNL     1      41.611 -15.308   3.226  1.00  0.00    -0.364 N 
HETATM   23  C   UNL     1      42.260 -13.983   3.123  1.00  0.00     0.152 C 
HETATM   24  C   UNL     1      42.246 -13.452   1.671  1.00  0.00     0.256 C 
BRANCH  22  25
HETATM   25  C   UNL     1      42.346 -16.477   3.248  1.00  0.00     0.102 A 
HETATM   26  N   UNL     1      43.162 -16.701   4.297  1.00  0.00    -0.352 N 
HETATM   27  H   UNL     1      43.247 -15.967   4.994  1.00  0.00     0.166 HD
HETATM   28  C   UNL     1      43.932 -17.793   4.433  1.00  0.00     0.089 A 
HETATM   29  C   UNL     1      43.928 -18.771   3.454  1.00  0.00     0.017 A 
HETATM   30  C   UNL     1      43.134 -18.585   2.332  1.00  0.00     0.005 A 
HETATM   31  C   UNL     1      42.350 -17.436   2.223  1.00  0.00     0.048 A 
ENDBRANCH  22  25
ENDBRANCH   1  18
BRANCH   1  32
HETATM   32  C   UNL     1      39.739 -13.305  -1.317  1.00  0.00    -0.005 A 
HETATM   33  C   UNL     1      39.946 -14.284  -2.281  1.00  0.00     0.125 A 
HETATM   34  N   UNL     1      39.040 -14.655  -3.213  1.00  0.00    -0.273 NA
HETATM   35  C   UNL     1      37.811 -14.112  -3.150  1.00  0.00     0.116 A 
HETATM   36  C   UNL     1      37.455 -13.191  -2.190  1.00  0.00     0.020 A 
HETATM   37  C   UNL     1      38.425 -12.791  -1.271  1.00  0.00     0.012 A 
ENDBRANCH   1  32
TORSDOF 6
ENDMDL
MODEL 5
REMARK VINA RESULT:      -8.0      3.049      6.505
REMARK  6 active torsions:
REMARK  status: ('A' for Active; 'I' for Inactive)
REMARK    1  A    between atoms: C_3  and  C_4 
REMARK    2  A    between atoms: C_4  and  N_5 
REMARK    3  A    between atoms: C_4  and  C_19 
REMARK    4  A    between atoms: N_9  and  C_10 
REMARK    5  A    between atoms: C_25  and  N_26 
REMARK       I    between atoms: N_26  and  C_27 
REMARK    6  A    between atoms: C_27  and  C_28 
ROOT
HETATM    1  C   UNL     1      41.077 -12.301   5.259  1.00  0.00     0.259 C 
ENDROOT
BRANCH   1   2
HETATM    2  C   UNL     1      42.332 -11.987   6.073  1.00  0.00     0.018 A 
HETATM    3  C   UNL     1      42.519 -10.680   6.728  1.00  0.00    -0.038 A 
HETATM    4  C   UNL     1      41.485  -9.589   6.814  1.00  0.00     0.050 C 
HETATM    5  C   UNL     1      43.791 -10.541   7.260  1.00  0.00    -0.013 A 
HETATM    6  S   UNL     1      44.735 -11.927   7.023  1.00  0.00    -0.076 SA
HETATM    7  C   UNL     1      44.388  -9.367   7.977  1.00  0.00     0.057 C 
HETATM    8  C   UNL     1      43.468 -12.774   6.274  1.00  0.00     0.086 A 
BRANCH   8   9
HETATM    9  N   UNL     1      43.676 -14.126   6.046  1.00  0.00    -0.315 N 
HETATM   10  C   UNL     1      43.439 -15.147   6.961  1.00  0.00     0.280 C 
HETATM   11  O   UNL     1      43.250 -14.981   8.159  1.00  0.00    -0.265 OA
HETATM   12  H   UNL     1      44.042 -14.450   5.162  1.00  0.00     0.170 HD
BRANCH  10  13
HETATM   13  C   UNL     1      43.637 -16.457   6.374  1.00  0.00     0.142 A 
HETATM   14  O   UNL     1      44.205 -16.542   5.125  1.00  0.00    -0.317 OA
HETATM   15  C   UNL     1      44.254 -17.860   4.801  1.00  0.00     0.143 A 
HETATM   16  C   UNL     1      43.778 -18.630   5.838  1.00  0.00     0.027 A 
HETATM   17  C   UNL     1      43.389 -17.726   6.855  1.00  0.00     0.045 A 
ENDBRANCH  10  13
ENDBRANCH   8   9
ENDBRANCH   1   2
BRANCH   1  18
HETATM   18  N   UNL     1      40.942 -11.585   3.880  1.00  0.00    -0.056 N 
HETATM   19  H   UNL     1      40.978 -10.591   4.145  1.00  0.00     0.281 HD
HETATM   20  C   UNL     1      42.073 -11.782   2.893  1.00  0.00     0.256 C 
HETATM   21  C   UNL     1      41.859 -11.010   1.564  1.00  0.00     0.152 C 
HETATM   22  N   UNL     1      40.530 -11.258   0.979  1.00  0.00    -0.364 N 
HETATM   23  C   UNL     1      39.417 -11.008   1.921  1.00  0.00     0.152 C 
HETATM   24  C   UNL     1      39.578 -11.822   3.225  1.00  0.00     0.256 C 
BRANCH  22  25
HETATM   25  C   UNL     1      40.408 -12.149  -0.069  1.00  0.00     0.102 A 
HETATM   26  N   UNL     1      40.765 -11.739  -1.303  1.00  0.00    -0.352 N 
HETATM   27  H   UNL     1      41.047 -10.769  -1.414  1.00  0.00     0.166 HD
HETATM   28  C   UNL     1      40.688 -12.504  -2.403  1.00  0.00     0.089 A 
HETATM   29  C   UNL     1      40.208 -13.799  -2.315  1.00  0.00     0.017 A 
HETATM   30  C   UNL     1      39.793 -14.271  -1.079  1.00  0.00     0.005 A 
HETATM   31  C   UNL     1      39.884 -13.446   0.043  1.00  0.00     0.048 A 
ENDBRANCH  22  25
ENDBRANCH   1  18
BRANCH   1  32
HETATM   32  C   UNL     1      40.709 -13.771   5.343  1.00  0.00    -0.005 A 
HETATM   33  C   UNL     1      40.134 -14.403   6.438  1.00  0.00     0.125 A 
HETATM   34  N   UNL     1      39.905 -15.732   6.533  1.00  0.00    -0.273 NA
HETATM   35  C   UNL     1      40.162 -16.495   5.455  1.00  0.00     0.116 A 
HETATM   36  C   UNL     1      40.657 -15.976   4.279  1.00  0.00     0.020 A 
HETATM   37  C   UNL     1      40.927 -14.608   4.227  1.00  0.00     0.012 A 
ENDBRANCH   1  32
TORSDOF 6
ENDMDL
MODEL 6
REMARK VINA RESULT:      -7.9      2.346      4.822
REMARK  6 active torsions:
REMARK  status: ('A' for Active; 'I' for Inactive)
REMARK    1  A    between atoms: C_3  and  C_4 
REMARK    2  A    between atoms: C_4  and  N_5 
REMARK    3  A    between atoms: C_4  and  C_19 
REMARK    4  A    between atoms: N_9  and  C_10 
REMARK    5  A    between atoms: C_25  and  N_26 
REMARK       I    between atoms: N_26  and  C_27 
REMARK    6  A    between atoms: C_27  and  C_28 
ROOT
HETATM    1  C   UNL     1      41.673 -12.845   4.091  1.00  0.00     0.259 C 
ENDROOT
BRANCH   1   2
HETATM    2  C   UNL     1      40.845 -11.659   3.598  1.00  0.00     0.018 A 
HETATM    3  C   UNL     1      40.578 -11.451   2.163  1.00  0.00    -0.038 A 
HETATM    4  C   UNL     1      40.930 -12.411   1.059  1.00  0.00     0.050 C 
HETATM    5  C   UNL     1      39.964 -10.232   1.920  1.00  0.00    -0.013 A 
HETATM    6  S   UNL     1      39.680  -9.366   3.347  1.00  0.00    -0.076 SA
HETATM    7  C   UNL     1      39.552  -9.630   0.610  1.00  0.00     0.057 C 
HETATM    8  C   UNL     1      40.296 -10.606   4.331  1.00  0.00     0.086 A 
BRANCH   8   9
HETATM    9  N   UNL     1      40.098 -10.469   5.697  1.00  0.00    -0.315 N 
HETATM   10  C   UNL     1      40.899  -9.728   6.561  1.00  0.00     0.280 C 
HETATM   11  O   UNL     1      42.013  -9.299   6.285  1.00  0.00    -0.265 OA
HETATM   12  H   UNL     1      39.329 -10.936   6.156  1.00  0.00     0.170 HD
BRANCH  10  13
HETATM   13  C   UNL     1      40.352  -9.684   7.901  1.00  0.00     0.142 A 
HETATM   14  O   UNL     1      41.129  -9.178   8.916  1.00  0.00    -0.317 OA
HETATM   15  C   UNL     1      40.399  -9.271  10.058  1.00  0.00     0.143 A 
HETATM   16  C   UNL     1      39.148  -9.778   9.791  1.00  0.00     0.027 A 
HETATM   17  C   UNL     1      39.114 -10.035   8.399  1.00  0.00     0.045 A 
ENDBRANCH  10  13
ENDBRANCH   8   9
ENDBRANCH   1   2
BRANCH   1  18
HETATM   18  N   UNL     1      41.828 -14.046   3.108  1.00  0.00    -0.056 N 
HETATM   19  H   UNL     1      41.447 -13.663   2.232  1.00  0.00     0.281 HD
HETATM   20  C   UNL     1      43.240 -14.482   2.778  1.00  0.00     0.256 C 
HETATM   21  C   UNL     1      43.291 -15.664   1.774  1.00  0.00     0.152 C 
HETATM   22  N   UNL     1      42.420 -16.780   2.178  1.00  0.00    -0.364 N 
HETATM   23  C   UNL     1      41.023 -16.371   2.442  1.00  0.00     0.152 C 
HETATM   24  C   UNL     1      40.949 -15.239   3.493  1.00  0.00     0.256 C 
BRANCH  22  25
HETATM   25  C   UNL     1      42.977 -17.890   2.782  1.00  0.00     0.102 A 
HETATM   26  N   UNL     1      43.438 -17.769   4.043  1.00  0.00    -0.352 N 
HETATM   27  H   UNL     1      43.412 -16.846   4.469  1.00  0.00     0.166 HD
HETATM   28  C   UNL     1      44.007 -18.768   4.738  1.00  0.00     0.089 A 
HETATM   29  C   UNL     1      44.160 -20.015   4.159  1.00  0.00     0.017 A 
HETATM   30  C   UNL     1      43.736 -20.197   2.851  1.00  0.00     0.005 A 
HETATM   31  C   UNL     1      43.154 -19.135   2.158  1.00  0.00     0.048 A 
ENDBRANCH  22  25
ENDBRANCH   1  18
BRANCH   1  32
HETATM   32  C   UNL     1      42.898 -12.390   4.864  1.00  0.00    -0.005 A 
HETATM   33  C   UNL     1      43.879 -11.526   4.394  1.00  0.00     0.125 A 
HETATM   34  N   UNL     1      45.015 -11.211   5.056  1.00  0.00    -0.273 NA
HETATM   35  C   UNL     1      45.170 -11.689   6.304  1.00  0.00     0.116 A 
HETATM   36  C   UNL     1      44.230 -12.489   6.915  1.00  0.00     0.020 A 
HETATM   37  C   UNL     1      43.091 -12.836   6.189  1.00  0.00     0.012 A 
ENDBRANCH   1  32
TORSDOF 6
ENDMDL
MODEL 7
REMARK VINA RESULT:      -7.8      4.196      7.001
REMARK  6 active torsions:
REMARK  status: ('A' for Active; 'I' for Inactive)
REMARK    1  A    between atoms: C_3  and  C_4 
REMARK    2  A    between atoms: C_4  and  N_5 
REMARK    3  A    between atoms: C_4  and  C_19 
REMARK    4  A    between atoms: N_9  and  C_10 
REMARK    5  A    between atoms: C_25  and  N_26 
REMARK       I    between atoms: N_26  and  C_27 
REMARK    6  A    between atoms: C_27  and  C_28 
ROOT
HETATM    1  C   UNL     1      42.171 -11.498   6.251  1.00  0.00     0.259 C 
ENDROOT
BRANCH   1   2
HETATM    2  C   UNL     1      43.382 -10.985   7.028  1.00  0.00     0.018 A 
HETATM    3  C   UNL     1      44.746 -11.080   6.477  1.00  0.00    -0.038 A 
HETATM    4  C   UNL     1      45.098 -11.526   5.083  1.00  0.00     0.050 C 
HETATM    5  C   UNL     1      45.709 -10.723   7.407  1.00  0.00    -0.013 A 
HETATM    6  S   UNL     1      45.025 -10.256   8.885  1.00  0.00    -0.076 SA
HETATM    7  C   UNL     1      47.201 -10.708   7.260  1.00  0.00     0.057 C 
HETATM    8  C   UNL     1      43.437 -10.446   8.315  1.00  0.00     0.086 A 
BRANCH   8   9
HETATM    9  N   UNL     1      42.424  -9.970   9.133  1.00  0.00    -0.315 N 
HETATM   10  C   UNL     1      41.969  -8.655   9.177  1.00  0.00     0.280 C 
HETATM   11  O   UNL     1      42.553  -7.697   8.686  1.00  0.00    -0.265 OA
HETATM   12  H   UNL     1      41.951 -10.585   9.780  1.00  0.00     0.170 HD
BRANCH  10  13
HETATM   13  C   UNL     1      40.817  -8.510  10.043  1.00  0.00     0.142 A 
HETATM   14  O   UNL     1      40.923  -8.903  11.355  1.00  0.00    -0.317 OA
HETATM   15  C   UNL     1      39.712  -8.687  11.933  1.00  0.00     0.143 A 
HETATM   16  C   UNL     1      38.844  -8.113  11.033  1.00  0.00     0.027 A 
HETATM   17  C   UNL     1      39.558  -7.990   9.817  1.00  0.00     0.045 A 
ENDBRANCH  10  13
ENDBRANCH   8   9
ENDBRANCH   1   2
BRANCH   1  18
HETATM   18  N   UNL     1      41.800 -13.000   6.447  1.00  0.00    -0.056 N 
HETATM   19  H   UNL     1      41.144 -12.962   7.240  1.00  0.00     0.281 HD
HETATM   20  C   UNL     1      41.035 -13.669   5.324  1.00  0.00     0.256 C 
HETATM   21  C   UNL     1      40.690 -15.151   5.624  1.00  0.00     0.152 C 
HETATM   22  N   UNL     1      41.865 -15.923   6.064  1.00  0.00    -0.364 N 
HETATM   23  C   UNL     1      42.580 -15.306   7.202  1.00  0.00     0.152 C 
HETATM   24  C   UNL     1      42.993 -13.848   6.895  1.00  0.00     0.256 C 
BRANCH  22  25
HETATM   25  C   UNL     1      42.508 -16.749   5.164  1.00  0.00     0.102 A 
HETATM   26  N   UNL     1      43.482 -17.560   5.622  1.00  0.00    -0.352 N 
HETATM   27  H   UNL     1      43.742 -17.479   6.601  1.00  0.00     0.166 HD
HETATM   28  C   UNL     1      44.186 -18.404   4.850  1.00  0.00     0.089 A 
HETATM   29  C   UNL     1      43.938 -18.471   3.490  1.00  0.00     0.017 A 
HETATM   30  C   UNL     1      42.969 -17.637   2.950  1.00  0.00     0.005 A 
HETATM   31  C   UNL     1      42.261 -16.770   3.783  1.00  0.00     0.048 A 
ENDBRANCH  22  25
ENDBRANCH   1  18
BRANCH   1  32
HETATM   32  C   UNL     1      41.045 -10.480   6.231  1.00  0.00    -0.005 A 
HETATM   33  C   UNL     1      39.794 -10.641   6.813  1.00  0.00     0.125 A 
HETATM   34  N   UNL     1      38.769  -9.768   6.699  1.00  0.00    -0.273 NA
HETATM   35  C   UNL     1      38.997  -8.607   6.058  1.00  0.00     0.116 A 
HETATM   36  C   UNL     1      40.220  -8.291   5.508  1.00  0.00     0.020 A 
HETATM   37  C   UNL     1      41.245  -9.233   5.600  1.00  0.00     0.012 A 
ENDBRANCH   1  32
TORSDOF 6
ENDMDL
MODEL 8
REMARK VINA RESULT:      -7.5      2.381      5.231
REMARK  6 active torsions:
REMARK  status: ('A' for Active; 'I' for Inactive)
REMARK    1  A    between atoms: C_3  and  C_4 
REMARK    2  A    between atoms: C_4  and  N_5 
REMARK    3  A    between atoms: C_4  and  C_19 
REMARK    4  A    between atoms: N_9  and  C_10 
REMARK    5  A    between atoms: C_25  and  N_26 
REMARK       I    between atoms: N_26  and  C_27 
REMARK    6  A    between atoms: C_27  and  C_28 
ROOT
HETATM    1  C   UNL     1      41.021 -11.671   1.948  1.00  0.00     0.259 C 
ENDROOT
BRANCH   1   2
HETATM    2  C   UNL     1      40.415 -10.591   2.843  1.00  0.00     0.018 A 
HETATM    3  C   UNL     1      39.041 -10.100   2.634  1.00  0.00    -0.038 A 
HETATM    4  C   UNL     1      38.044 -10.675   1.665  1.00  0.00     0.050 C 
HETATM    5  C   UNL     1      38.752  -9.006   3.434  1.00  0.00    -0.013 A 
HETATM    6  S   UNL     1      40.054  -8.584   4.431  1.00  0.00    -0.076 SA
HETATM    7  C   UNL     1      37.489  -8.200   3.508  1.00  0.00     0.057 C 
HETATM    8  C   UNL     1      41.011  -9.876   3.884  1.00  0.00     0.086 A 
BRANCH   8   9
HETATM    9  N   UNL     1      42.187 -10.115   4.580  1.00  0.00    -0.315 N 
HETATM   10  C   UNL     1      42.290 -10.807   5.783  1.00  0.00     0.280 C 
HETATM   11  O   UNL     1      41.346 -11.087   6.510  1.00  0.00    -0.265 OA
HETATM   12  H   UNL     1      43.070  -9.768   4.234  1.00  0.00     0.170 HD
BRANCH  10  13
HETATM   13  C   UNL     1      43.669 -10.993   6.183  1.00  0.00     0.142 A 
HETATM   14  O   UNL     1      44.021 -10.731   7.486  1.00  0.00    -0.317 OA
HETATM   15  C   UNL     1      45.356 -10.958   7.590  1.00  0.00     0.143 A 
HETATM   16  C   UNL     1      45.863 -11.412   6.394  1.00  0.00     0.027 A 
HETATM   17  C   UNL     1      44.774 -11.444   5.489  1.00  0.00     0.045 A 
ENDBRANCH  10  13
ENDBRANCH   8   9
ENDBRANCH   1   2
BRANCH   1  18
HETATM   18  N   UNL     1      40.614 -13.144   2.257  1.00  0.00    -0.056 N 
HETATM   19  H   UNL     1      39.590 -13.114   2.156  1.00  0.00     0.281 HD
HETATM   20  C   UNL     1      41.084 -14.203   1.281  1.00  0.00     0.256 C 
HETATM   21  C   UNL     1      40.608 -15.630   1.659  1.00  0.00     0.152 C 
HETATM   22  N   UNL     1      40.899 -15.966   3.063  1.00  0.00    -0.364 N 
HETATM   23  C   UNL     1      40.387 -14.966   4.025  1.00  0.00     0.152 C 
HETATM   24  C   UNL     1      40.908 -13.546   3.705  1.00  0.00     0.256 C 
BRANCH  22  25
HETATM   25  C   UNL     1      41.987 -16.764   3.357  1.00  0.00     0.102 A 
HETATM   26  N   UNL     1      42.527 -16.684   4.589  1.00  0.00    -0.352 N 
HETATM   27  H   UNL     1      42.148 -15.990   5.226  1.00  0.00     0.166 HD
HETATM   28  C   UNL     1      43.587 -17.401   4.996  1.00  0.00     0.089 A 
HETATM   29  C   UNL     1      44.203 -18.283   4.125  1.00  0.00     0.017 A 
HETATM   30  C   UNL     1      43.715 -18.389   2.831  1.00  0.00     0.005 A 
HETATM   31  C   UNL     1      42.614 -17.625   2.442  1.00  0.00     0.048 A 
ENDBRANCH  22  25
ENDBRANCH   1  18
BRANCH   1  32
HETATM   32  C   UNL     1      41.071 -11.231   0.496  1.00  0.00    -0.005 A 
HETATM   33  C   UNL     1      40.595 -11.957  -0.589  1.00  0.00     0.125 A 
HETATM   34  N   UNL     1      40.738 -11.598  -1.884  1.00  0.00    -0.273 NA
HETATM   35  C   UNL     1      41.298 -10.403  -2.149  1.00  0.00     0.116 A 
HETATM   36  C   UNL     1      41.737  -9.553  -1.158  1.00  0.00     0.020 A 
HETATM   37  C   UNL     1      41.619  -9.972   0.167  1.00  0.00     0.012 A 
ENDBRANCH   1  32
TORSDOF 6
ENDMDL
MODEL 9
REMARK VINA RESULT:      -7.4      3.365      7.031
REMARK  6 active torsions:
REMARK  status: ('A' for Active; 'I' for Inactive)
REMARK    1  A    between atoms: C_3  and  C_4 
REMARK    2  A    between atoms: C_4  and  N_5 
REMARK    3  A    between atoms: C_4  and  C_19 
REMARK    4  A    between atoms: N_9  and  C_10 
REMARK    5  A    between atoms: C_25  and  N_26 
REMARK       I    between atoms: N_26  and  C_27 
REMARK    6  A    between atoms: C_27  and  C_28 
ROOT
HETATM    1  C   UNL     1      39.837 -10.889   4.575  1.00  0.00     0.259 C 
ENDROOT
BRANCH   1   2
HETATM    2  C   UNL     1      40.984 -11.772   4.085  1.00  0.00     0.018 A 
HETATM    3  C   UNL     1      41.237 -13.101   4.671  1.00  0.00    -0.038 A 
HETATM    4  C   UNL     1      40.353 -13.800   5.669  1.00  0.00     0.050 C 
HETATM    5  C   UNL     1      42.421 -13.656   4.211  1.00  0.00    -0.013 A 
HETATM    6  S   UNL     1      43.201 -12.652   3.092  1.00  0.00    -0.076 SA
HETATM    7  C   UNL     1      43.050 -14.966   4.575  1.00  0.00     0.057 C 
HETATM    8  C   UNL     1      41.964 -11.490   3.131  1.00  0.00     0.086 A 
BRANCH   8   9
HETATM    9  N   UNL     1      42.026 -10.486   2.177  1.00  0.00    -0.315 N 
HETATM   10  C   UNL     1      41.514 -10.563   0.885  1.00  0.00     0.280 C 
HETATM   11  O   UNL     1      41.160 -11.598   0.335  1.00  0.00    -0.265 OA
HETATM   12  H   UNL     1      42.481  -9.607   2.381  1.00  0.00     0.170 HD
BRANCH  10  13
HETATM   13  C   UNL     1      41.629  -9.302   0.182  1.00  0.00     0.142 A 
HETATM   14  O   UNL     1      42.704  -9.105  -0.651  1.00  0.00    -0.317 OA
HETATM   15  C   UNL     1      42.587  -7.850  -1.160  1.00  0.00     0.143 A 
HETATM   16  C   UNL     1      41.430  -7.255  -0.714  1.00  0.00     0.027 A 
HETATM   17  C   UNL     1      40.807  -8.193   0.144  1.00  0.00     0.045 A 
ENDBRANCH  10  13
ENDBRANCH   8   9
ENDBRANCH   1   2
BRANCH   1  18
HETATM   18  N   UNL     1      40.166  -9.892   5.728  1.00  0.00    -0.056 N 
HETATM   19  H   UNL     1      39.445  -9.168   5.604  1.00  0.00     0.281 HD
HETATM   20  C   UNL     1      39.987 -10.400   7.143  1.00  0.00     0.256 C 
HETATM   21  C   UNL     1      40.312  -9.329   8.217  1.00  0.00     0.152 C 
HETATM   22  N   UNL     1      41.619  -8.688   7.993  1.00  0.00    -0.364 N 
HETATM   23  C   UNL     1      41.776  -8.135   6.630  1.00  0.00     0.152 C 
HETATM   24  C   UNL     1      41.522  -9.207   5.545  1.00  0.00     0.256 C 
BRANCH  22  25
HETATM   25  C   UNL     1      42.707  -9.088   8.744  1.00  0.00     0.102 A 
HETATM   26  N   UNL     1      42.489  -9.865   9.823  1.00  0.00    -0.352 N 
HETATM   27  H   UNL     1      41.525 -10.068  10.072  1.00  0.00     0.166 HD
HETATM   28  C   UNL     1      43.458 -10.314  10.637  1.00  0.00     0.089 A 
HETATM   29  C   UNL     1      44.778  -9.974  10.397  1.00  0.00     0.017 A 
HETATM   30  C   UNL     1      45.066  -9.150   9.320  1.00  0.00     0.005 A 
HETATM   31  C   UNL     1      44.033  -8.698   8.498  1.00  0.00     0.048 A 
ENDBRANCH  22  25
ENDBRANCH   1  18
BRANCH   1  32
HETATM   32  C   UNL     1      38.979 -10.395   3.424  1.00  0.00    -0.005 A 
HETATM   33  C   UNL     1      38.690  -9.066   3.140  1.00  0.00     0.125 A 
HETATM   34  N   UNL     1      37.842  -8.648   2.173  1.00  0.00    -0.273 NA
HETATM   35  C   UNL     1      37.309  -9.576   1.358  1.00  0.00     0.116 A 
HETATM   36  C   UNL     1      37.582 -10.920   1.483  1.00  0.00     0.020 A 
HETATM   37  C   UNL     1      38.422 -11.326   2.520  1.00  0.00     0.012 A 
ENDBRANCH   1  32
TORSDOF 6
ENDMDL
MODEL 10
REMARK VINA RESULT:      -7.3      2.647      6.748
REMARK  6 active torsions:
REMARK  status: ('A' for Active; 'I' for Inactive)
REMARK    1  A    between atoms: C_3  and  C_4 
REMARK    2  A    between atoms: C_4  and  N_5 
REMARK    3  A    between atoms: C_4  and  C_19 
REMARK    4  A    between atoms: N_9  and  C_10 
REMARK    5  A    between atoms: C_25  and  N_26 
REMARK       I    between atoms: N_26  and  C_27 
REMARK    6  A    between atoms: C_27  and  C_28 
ROOT
HETATM    1  C   UNL     1      39.695 -11.583   0.967  1.00  0.00     0.259 C 
ENDROOT
BRANCH   1   2
HETATM    2  C   UNL     1      39.405 -12.569  -0.164  1.00  0.00     0.018 A 
HETATM    3  C   UNL     1      38.513 -12.215  -1.283  1.00  0.00    -0.038 A 
HETATM    4  C   UNL     1      37.925 -10.852  -1.536  1.00  0.00     0.050 C 
HETATM    5  C   UNL     1      38.246 -13.302  -2.100  1.00  0.00    -0.013 A 
HETATM    6  S   UNL     1      39.048 -14.700  -1.581  1.00  0.00    -0.076 SA
HETATM    7  C   UNL     1      37.374 -13.373  -3.317  1.00  0.00     0.057 C 
HETATM    8  C   UNL     1      39.826 -13.892  -0.306  1.00  0.00     0.086 A 
BRANCH   8   9
HETATM    9  N   UNL     1      40.821 -14.594   0.357  1.00  0.00    -0.315 N 
HETATM   10  C   UNL     1      40.646 -15.355   1.510  1.00  0.00     0.280 C 
HETATM   11  O   UNL     1      39.655 -15.315   2.229  1.00  0.00    -0.265 OA
HETATM   12  H   UNL     1      41.775 -14.576   0.025  1.00  0.00     0.170 HD
BRANCH  10  13
HETATM   13  C   UNL     1      41.854 -16.063   1.879  1.00  0.00     0.142 A 
HETATM   14  O   UNL     1      41.742 -17.237   2.585  1.00  0.00    -0.317 OA
HETATM   15  C   UNL     1      43.005 -17.679   2.821  1.00  0.00     0.143 A 
HETATM   16  C   UNL     1      43.927 -16.842   2.236  1.00  0.00     0.027 A 
HETATM   17  C   UNL     1      43.185 -15.805   1.621  1.00  0.00     0.045 A 
ENDBRANCH  10  13
ENDBRANCH   8   9
ENDBRANCH   1   2
BRANCH   1  18
HETATM   18  N   UNL     1      40.114 -12.197   2.339  1.00  0.00    -0.056 N 
HETATM   19  H   UNL     1      39.970 -13.204   2.181  1.00  0.00     0.281 HD
HETATM   20  C   UNL     1      41.568 -12.054   2.737  1.00  0.00     0.256 C 
HETATM   21  C   UNL     1      41.891 -12.718   4.101  1.00  0.00     0.152 C 
HETATM   22  N   UNL     1      40.956 -12.304   5.162  1.00  0.00    -0.364 N 
HETATM   23  C   UNL     1      39.535 -12.500   4.802  1.00  0.00     0.152 C 
HETATM   24  C   UNL     1      39.177 -11.786   3.478  1.00  0.00     0.256 C 
BRANCH  22  25
HETATM   25  C   UNL     1      41.349 -11.344   6.073  1.00  0.00     0.102 A 
HETATM   26  N   UNL     1      40.398 -10.721   6.798  1.00  0.00    -0.352 N 
HETATM   27  H   UNL     1      39.427 -10.943   6.592  1.00  0.00     0.166 HD
HETATM   28  C   UNL     1      40.648  -9.768   7.709  1.00  0.00     0.089 A 
HETATM   29  C   UNL     1      41.948  -9.359   7.946  1.00  0.00     0.017 A 
HETATM   30  C   UNL     1      42.971  -9.938   7.210  1.00  0.00     0.005 A 
HETATM   31  C   UNL     1      42.673 -10.923   6.268  1.00  0.00     0.048 A 
ENDBRANCH  22  25
ENDBRANCH   1  18
BRANCH   1  32
HETATM   32  C   UNL     1      40.450 -10.364   0.468  1.00  0.00    -0.005 A 
HETATM   33  C   UNL     1      40.297  -9.066   0.939  1.00  0.00     0.125 A 
HETATM   34  N   UNL     1      40.902  -7.977   0.415  1.00  0.00    -0.273 NA
HETATM   35  C   UNL     1      41.794  -8.165  -0.575  1.00  0.00     0.116 A 
HETATM   36  C   UNL     1      42.096  -9.413  -1.075  1.00  0.00     0.020 A 
HETATM   37  C   UNL     1      41.420 -10.513  -0.546  1.00  0.00     0.012 A 
ENDBRANCH   1  32
TORSDOF 6
ENDMDL
