MODEL 1
REMARK VINA RESULT:      -7.7      0.000      0.000
REMARK  9 active torsions:
REMARK  status: ('A' for Active; 'I' for Inactive)
REMARK    1  A    between atoms: C_2  and  O_3 
REMARK    2  A    between atoms: O_3  and  C_4 
REMARK    3  A    between atoms: C_4  and  C_5 
REMARK    4  A    between atoms: C_10  and  N_11 
REMARK       I    between atoms: N_11  and  C_12 
REMARK    5  A    between atoms: C_12  and  C_13 
REMARK    6  A    between atoms: C_13  and  N_14 
REMARK    7  A    between atoms: C_16  and  C_17 
REMARK    8  A    between atoms: C_17  and  C_18 
REMARK    9  A    between atoms: C_18  and  O_19 
ROOT
HETATM    1  C   UNL     1      42.675 -14.868   4.063  1.00  0.00     0.137 A 
HETATM    2  N   UNL     1      43.172 -15.757   4.980  1.00  0.00    -0.349 N 
HETATM    3  H   UNL     1      43.337 -15.541   5.955  1.00  0.00     0.166 HD
HETATM    4  C   UNL     1      43.416 -16.973   4.395  1.00  0.00     0.045 A 
HETATM    5  C   UNL     1      43.065 -16.868   3.042  1.00  0.00     0.021 A 
HETATM    6  C   UNL     1      42.603 -15.523   2.836  1.00  0.00     0.080 A 
HETATM    7  C   UNL     1      43.922 -18.142   4.979  1.00  0.00     0.032 A 
HETATM    8  C   UNL     1      44.079 -19.264   4.165  1.00  0.00     0.026 A 
HETATM    9  C   UNL     1      43.738 -19.206   2.821  1.00  0.00     0.035 A 
HETATM   10 CL   UNL     1      43.933 -20.604   1.835  1.00  0.00    -0.084 Cl
HETATM   11  C   UNL     1      43.234 -18.029   2.251  1.00  0.00     0.040 A 
ENDROOT
BRANCH   6  12
HETATM   12  N   UNL     1      42.139 -14.822   1.721  1.00  0.00    -0.323 N 
HETATM   13  C   UNL     1      40.911 -14.901   1.106  1.00  0.00     0.248 C 
HETATM   14  O   UNL     1      39.954 -15.588   1.441  1.00  0.00    -0.271 OA
HETATM   15  H   UNL     1      42.865 -14.244   1.293  1.00  0.00     0.169 HD
BRANCH  13  16
HETATM   16  C   UNL     1      40.773 -13.968  -0.107  1.00  0.00     0.338 C 
BRANCH  16  17
HETATM   17  N   UNL     1      39.326 -13.507  -0.435  1.00  0.00    -0.059 N 
HETATM   18  H   UNL     1      38.685 -14.052   0.155  1.00  0.00     0.280 HD
HETATM   19  C   UNL     1      39.127 -12.011  -0.164  1.00  0.00     0.190 C 
HETATM   20  C   UNL     1      37.694 -11.605  -0.532  1.00  0.00     0.033 C 
HETATM   21  C   UNL     1      37.364 -11.940  -1.978  1.00  0.00     0.004 C 
HETATM   22  C   UNL     1      37.558 -13.424  -2.222  1.00  0.00     0.028 C 
HETATM   23  C   UNL     1      38.970 -13.875  -1.879  1.00  0.00     0.236 C 
BRANCH  19  24
HETATM   24  C   UNL     1      39.459 -11.611   1.285  1.00  0.00     0.059 C 
BRANCH  24  25
HETATM   25  C   UNL     1      38.413 -11.962   2.334  1.00  0.00     0.166 C 
BRANCH  25  26
HETATM   26  O   UNL     1      38.482 -13.347   2.621  1.00  0.00    -0.401 OA
HETATM   27  H   UNL     1      38.249 -13.507   3.552  1.00  0.00     0.209 HD
ENDBRANCH  25  26
ENDBRANCH  24  25
ENDBRANCH  19  24
ENDBRANCH  16  17
ENDBRANCH  13  16
ENDBRANCH   6  12
BRANCH   1  28
HETATM   28  C   UNL     1      42.319 -13.502   4.368  1.00  0.00     0.312 C 
HETATM   29  O   UNL     1      43.144 -12.628   4.618  1.00  0.00    -0.258 OA
BRANCH  28  30
HETATM   30  O   UNL     1      40.970 -13.352   4.339  1.00  0.00    -0.317 OA
BRANCH  30  31
HETATM   31  C   UNL     1      40.295 -13.454   5.603  1.00  0.00     0.175 C 
HETATM   32  C   UNL     1      39.631 -12.132   5.944  1.00  0.00     0.034 C 
ENDBRANCH  30  31
ENDBRANCH  28  30
ENDBRANCH   1  28
TORSDOF 9
ENDMDL
MODEL 2
REMARK VINA RESULT:      -7.3      1.456      2.399
REMARK  9 active torsions:
REMARK  status: ('A' for Active; 'I' for Inactive)
REMARK    1  A    between atoms: C_2  and  O_3 
REMARK    2  A    between atoms: O_3  and  C_4 
REMARK    3  A    between atoms: C_4  and  C_5 
REMARK    4  A    between atoms: C_10  and  N_11 
REMARK       I    between atoms: N_11  and  C_12 
REMARK    5  A    between atoms: C_12  and  C_13 
REMARK    6  A    between atoms: C_13  and  N_14 
REMARK    7  A    between atoms: C_16  and  C_17 
REMARK    8  A    between atoms: C_17  and  C_18 
REMARK    9  A    between atoms: C_18  and  O_19 
ROOT
HETATM    1  C   UNL     1      42.706 -14.791   4.092  1.00  0.00     0.137 A 
HETATM    2  N   UNL     1      43.344 -15.666   4.932  1.00  0.00    -0.349 N 
HETATM    3  H   UNL     1      43.641 -15.442   5.874  1.00  0.00     0.166 HD
HETATM    4  C   UNL     1      43.526 -16.881   4.322  1.00  0.00     0.045 A 
HETATM    5  C   UNL     1      42.987 -16.790   3.032  1.00  0.00     0.021 A 
HETATM    6  C   UNL     1      42.475 -15.455   2.889  1.00  0.00     0.080 A 
HETATM    7  C   UNL     1      44.131 -18.037   4.833  1.00  0.00     0.032 A 
HETATM    8  C   UNL     1      44.194 -19.160   4.008  1.00  0.00     0.026 A 
HETATM    9  C   UNL     1      43.666 -19.116   2.726  1.00  0.00     0.035 A 
HETATM   10 CL   UNL     1      43.747 -20.515   1.726  1.00  0.00    -0.084 Cl
HETATM   11  C   UNL     1      43.065 -17.951   2.229  1.00  0.00     0.040 A 
ENDROOT
BRANCH   6  12
HETATM   12  N   UNL     1      41.845 -14.769   1.849  1.00  0.00    -0.323 N 
HETATM   13  C   UNL     1      40.634 -15.034   1.253  1.00  0.00     0.248 C 
HETATM   14  O   UNL     1      39.838 -15.917   1.547  1.00  0.00    -0.271 OA
HETATM   15  H   UNL     1      42.432 -14.029   1.458  1.00  0.00     0.169 HD
BRANCH  13  16
HETATM   16  C   UNL     1      40.276 -14.049   0.129  1.00  0.00     0.338 C 
BRANCH  16  17
HETATM   17  N   UNL     1      40.241 -12.551   0.537  1.00  0.00    -0.059 N 
HETATM   18  H   UNL     1      41.119 -12.342   1.028  1.00  0.00     0.280 HD
HETATM   19  C   UNL     1      40.100 -11.629  -0.680  1.00  0.00     0.190 C 
HETATM   20  C   UNL     1      40.041 -10.167  -0.217  1.00  0.00     0.033 C 
HETATM   21  C   UNL     1      38.910  -9.932   0.771  1.00  0.00     0.004 C 
HETATM   22  C   UNL     1      39.073 -10.846   1.970  1.00  0.00     0.028 C 
HETATM   23  C   UNL     1      39.129 -12.310   1.563  1.00  0.00     0.236 C 
BRANCH  19  24
HETATM   24  C   UNL     1      41.214 -11.833  -1.723  1.00  0.00     0.059 C 
BRANCH  24  25
HETATM   25  C   UNL     1      40.772 -12.363  -3.081  1.00  0.00     0.166 C 
BRANCH  25  26
HETATM   26  O   UNL     1      41.566 -13.484  -3.428  1.00  0.00    -0.401 OA
HETATM   27  H   UNL     1      41.018 -14.157  -3.868  1.00  0.00     0.209 HD
ENDBRANCH  25  26
ENDBRANCH  24  25
ENDBRANCH  19  24
ENDBRANCH  16  17
ENDBRANCH  13  16
ENDBRANCH   6  12
BRANCH   1  28
HETATM   28  C   UNL     1      42.371 -13.430   4.439  1.00  0.00     0.312 C 
HETATM   29  O   UNL     1      43.203 -12.595   4.780  1.00  0.00    -0.258 OA
BRANCH  28  30
HETATM   30  O   UNL     1      41.030 -13.238   4.338  1.00  0.00    -0.317 OA
BRANCH  30  31
HETATM   31  C   UNL     1      40.285 -13.316   5.562  1.00  0.00     0.175 C 
HETATM   32  C   UNL     1      39.324 -12.145   5.660  1.00  0.00     0.034 C 
ENDBRANCH  30  31
ENDBRANCH  28  30
ENDBRANCH   1  28
TORSDOF 9
ENDMDL
MODEL 3
REMARK VINA RESULT:      -7.1      2.517      5.705
REMARK  9 active torsions:
REMARK  status: ('A' for Active; 'I' for Inactive)
REMARK    1  A    between atoms: C_2  and  O_3 
REMARK    2  A    between atoms: O_3  and  C_4 
REMARK    3  A    between atoms: C_4  and  C_5 
REMARK    4  A    between atoms: C_10  and  N_11 
REMARK       I    between atoms: N_11  and  C_12 
REMARK    5  A    between atoms: C_12  and  C_13 
REMARK    6  A    between atoms: C_13  and  N_14 
REMARK    7  A    between atoms: C_16  and  C_17 
REMARK    8  A    between atoms: C_17  and  C_18 
REMARK    9  A    between atoms: C_18  and  O_19 
ROOT
HETATM    1  C   UNL     1      42.965 -15.815   2.831  1.00  0.00     0.137 A 
HETATM    2  N   UNL     1      42.932 -16.880   1.968  1.00  0.00    -0.349 N 
HETATM    3  H   UNL     1      42.687 -16.815   0.988  1.00  0.00     0.166 HD
HETATM    4  C   UNL     1      43.275 -18.040   2.615  1.00  0.00     0.045 A 
HETATM    5  C   UNL     1      43.538 -17.715   3.953  1.00  0.00     0.021 A 
HETATM    6  C   UNL     1      43.330 -16.299   4.084  1.00  0.00     0.080 A 
HETATM    7  C   UNL     1      43.363 -19.340   2.098  1.00  0.00     0.032 A 
HETATM    8  C   UNL     1      43.738 -20.364   2.967  1.00  0.00     0.026 A 
HETATM    9  C   UNL     1      44.014 -20.085   4.298  1.00  0.00     0.035 A 
HETATM   10 CL   UNL     1      44.484 -21.363   5.352  1.00  0.00    -0.084 Cl
HETATM   11  C   UNL     1      43.920 -18.781   4.800  1.00  0.00     0.040 A 
ENDROOT
BRANCH   6  12
HETATM   12  N   UNL     1      43.420 -15.406   5.154  1.00  0.00    -0.323 N 
HETATM   13  C   UNL     1      42.703 -15.396   6.328  1.00  0.00     0.248 C 
HETATM   14  O   UNL     1      41.855 -16.202   6.688  1.00  0.00    -0.271 OA
HETATM   15  H   UNL     1      44.059 -14.632   4.963  1.00  0.00     0.169 HD
BRANCH  13  16
HETATM   16  C   UNL     1      43.086 -14.243   7.269  1.00  0.00     0.338 C 
BRANCH  16  17
HETATM   17  N   UNL     1      42.640 -12.827   6.809  1.00  0.00    -0.059 N 
HETATM   18  H   UNL     1      42.436 -12.277   7.653  1.00  0.00     0.280 HD
HETATM   19  C   UNL     1      43.725 -12.124   5.987  1.00  0.00     0.190 C 
HETATM   20  C   UNL     1      43.222 -10.747   5.536  1.00  0.00     0.033 C 
HETATM   21  C   UNL     1      41.927 -10.849   4.745  1.00  0.00     0.004 C 
HETATM   22  C   UNL     1      40.865 -11.538   5.579  1.00  0.00     0.028 C 
HETATM   23  C   UNL     1      41.315 -12.914   6.045  1.00  0.00     0.236 C 
BRANCH  19  24
HETATM   24  C   UNL     1      45.066 -12.004   6.734  1.00  0.00     0.059 C 
BRANCH  24  25
HETATM   25  C   UNL     1      45.279 -10.720   7.526  1.00  0.00     0.166 C 
BRANCH  25  26
HETATM   26  O   UNL     1      46.547 -10.175   7.204  1.00  0.00    -0.401 OA
HETATM   27  H   UNL     1      47.249 -10.810   7.428  1.00  0.00     0.209 HD
ENDBRANCH  25  26
ENDBRANCH  24  25
ENDBRANCH  19  24
ENDBRANCH  16  17
ENDBRANCH  13  16
ENDBRANCH   6  12
BRANCH   1  28
HETATM   28  C   UNL     1      42.653 -14.456   2.454  1.00  0.00     0.312 C 
HETATM   29  O   UNL     1      43.481 -13.551   2.443  1.00  0.00    -0.258 OA
BRANCH  28  30
HETATM   30  O   UNL     1      41.338 -14.350   2.134  1.00  0.00    -0.317 OA
BRANCH  30  31
HETATM   31  C   UNL     1      41.043 -13.968   0.782  1.00  0.00     0.175 C 
HETATM   32  C   UNL     1      40.014 -14.912   0.188  1.00  0.00     0.034 C 
ENDBRANCH  30  31
ENDBRANCH  28  30
ENDBRANCH   1  28
TORSDOF 9
ENDMDL
MODEL 4
REMARK VINA RESULT:      -6.8      1.782      2.252
REMARK  9 active torsions:
REMARK  status: ('A' for Active; 'I' for Inactive)
REMARK    1  A    between atoms: C_2  and  O_3 
REMARK    2  A    between atoms: O_3  and  C_4 
REMARK    3  A    between atoms: C_4  and  C_5 
REMARK    4  A    between atoms: C_10  and  N_11 
REMARK       I    between atoms: N_11  and  C_12 
REMARK    5  A    between atoms: C_12  and  C_13 
REMARK    6  A    between atoms: C_13  and  N_14 
REMARK    7  A    between atoms: C_16  and  C_17 
REMARK    8  A    between atoms: C_17  and  C_18 
REMARK    9  A    between atoms: C_18  and  O_19 
ROOT
HETATM    1  C   UNL     1      43.443 -16.071   5.639  1.00  0.00     0.137 A 
HETATM    2  N   UNL     1      43.812 -17.314   6.086  1.00  0.00    -0.349 N 
HETATM    3  H   UNL     1      44.060 -17.526   7.044  1.00  0.00     0.166 HD
HETATM    4  C   UNL     1      43.801 -18.222   5.059  1.00  0.00     0.045 A 
HETATM    5  C   UNL     1      43.412 -17.542   3.897  1.00  0.00     0.021 A 
HETATM    6  C   UNL     1      43.194 -16.172   4.272  1.00  0.00     0.080 A 
HETATM    7  C   UNL     1      44.112 -19.589   5.093  1.00  0.00     0.032 A 
HETATM    8  C   UNL     1      44.023 -20.308   3.902  1.00  0.00     0.026 A 
HETATM    9  C   UNL     1      43.635 -19.676   2.730  1.00  0.00     0.035 A 
HETATM   10 CL   UNL     1      43.525 -20.584   1.272  1.00  0.00    -0.084 Cl
HETATM   11  C   UNL     1      43.329 -18.308   2.712  1.00  0.00     0.040 A 
ENDROOT
BRANCH   6  12
HETATM   12  N   UNL     1      42.814 -15.027   3.568  1.00  0.00    -0.323 N 
HETATM   13  C   UNL     1      43.129 -14.667   2.279  1.00  0.00     0.248 C 
HETATM   14  O   UNL     1      43.788 -15.306   1.468  1.00  0.00    -0.271 OA
HETATM   15  H   UNL     1      42.300 -14.364   4.151  1.00  0.00     0.169 HD
BRANCH  13  16
HETATM   16  C   UNL     1      42.522 -13.321   1.853  1.00  0.00     0.338 C 
BRANCH  16  17
HETATM   17  N   UNL     1      41.059 -13.381   1.333  1.00  0.00    -0.059 N 
HETATM   18  H   UNL     1      40.593 -14.165   1.808  1.00  0.00     0.280 HD
HETATM   19  C   UNL     1      40.297 -12.082   1.616  1.00  0.00     0.190 C 
HETATM   20  C   UNL     1      38.872 -12.186   1.057  1.00  0.00     0.033 C 
HETATM   21  C   UNL     1      38.869 -12.499  -0.431  1.00  0.00     0.004 C 
HETATM   22  C   UNL     1      39.620 -13.792  -0.688  1.00  0.00     0.028 C 
HETATM   23  C   UNL     1      41.044 -13.736  -0.157  1.00  0.00     0.236 C 
BRANCH  19  24
HETATM   24  C   UNL     1      40.277 -11.707   3.109  1.00  0.00     0.059 C 
BRANCH  24  25
HETATM   25  C   UNL     1      39.394 -12.566   4.005  1.00  0.00     0.166 C 
BRANCH  25  26
HETATM   26  O   UNL     1      39.713 -13.932   3.808  1.00  0.00    -0.401 OA
HETATM   27  H   UNL     1      39.741 -14.394   4.664  1.00  0.00     0.209 HD
ENDBRANCH  25  26
ENDBRANCH  24  25
ENDBRANCH  19  24
ENDBRANCH  16  17
ENDBRANCH  13  16
ENDBRANCH   6  12
BRANCH   1  28
HETATM   28  C   UNL     1      43.358 -14.899   6.478  1.00  0.00     0.312 C 
HETATM   29  O   UNL     1      44.162 -13.974   6.430  1.00  0.00    -0.258 OA
BRANCH  28  30
HETATM   30  O   UNL     1      42.283 -14.992   7.303  1.00  0.00    -0.317 OA
BRANCH  30  31
HETATM   31  C   UNL     1      41.009 -14.670   6.724  1.00  0.00     0.175 C 
HETATM   32  C   UNL     1      40.140 -15.912   6.659  1.00  0.00     0.034 C 
ENDBRANCH  30  31
ENDBRANCH  28  30
ENDBRANCH   1  28
TORSDOF 9
ENDMDL
MODEL 5
REMARK VINA RESULT:      -6.5      3.947      7.229
REMARK  9 active torsions:
REMARK  status: ('A' for Active; 'I' for Inactive)
REMARK    1  A    between atoms: C_2  and  O_3 
REMARK    2  A    between atoms: O_3  and  C_4 
REMARK    3  A    between atoms: C_4  and  C_5 
REMARK    4  A    between atoms: C_10  and  N_11 
REMARK       I    between atoms: N_11  and  C_12 
REMARK    5  A    between atoms: C_12  and  C_13 
REMARK    6  A    between atoms: C_13  and  N_14 
REMARK    7  A    between atoms: C_16  and  C_17 
REMARK    8  A    between atoms: C_17  and  C_18 
REMARK    9  A    between atoms: C_18  and  O_19 
ROOT
HETATM    1  C   UNL     1      40.523 -13.295   5.038  1.00  0.00     0.137 A 
HETATM    2  N   UNL     1      40.089 -14.137   4.047  1.00  0.00    -0.349 N 
HETATM    3  H   UNL     1      39.220 -14.023   3.540  1.00  0.00     0.166 HD
HETATM    4  C   UNL     1      40.989 -15.151   3.841  1.00  0.00     0.045 A 
HETATM    5  C   UNL     1      42.050 -14.962   4.737  1.00  0.00     0.021 A 
HETATM    6  C   UNL     1      41.742 -13.784   5.501  1.00  0.00     0.080 A 
HETATM    7  C   UNL     1      40.923 -16.210   2.926  1.00  0.00     0.032 A 
HETATM    8  C   UNL     1      41.977 -17.123   2.907  1.00  0.00     0.026 A 
HETATM    9  C   UNL     1      43.051 -16.969   3.772  1.00  0.00     0.035 A 
HETATM   10 CL   UNL     1      44.346 -18.103   3.727  1.00  0.00    -0.084 Cl
HETATM   11  C   UNL     1      43.102 -15.905   4.682  1.00  0.00     0.040 A 
ENDROOT
BRANCH   6  12
HETATM   12  N   UNL     1      42.393 -13.108   6.535  1.00  0.00    -0.323 N 
HETATM   13  C   UNL     1      43.492 -12.283   6.466  1.00  0.00     0.248 C 
HETATM   14  O   UNL     1      44.104 -11.944   5.461  1.00  0.00    -0.271 OA
HETATM   15  H   UNL     1      42.018 -13.348   7.455  1.00  0.00     0.169 HD
BRANCH  13  16
HETATM   16  C   UNL     1      43.923 -11.721   7.829  1.00  0.00     0.338 C 
BRANCH  16  17
HETATM   17  N   UNL     1      43.205 -10.416   8.273  1.00  0.00    -0.059 N 
HETATM   18  H   UNL     1      42.386 -10.687   8.831  1.00  0.00     0.280 HD
HETATM   19  C   UNL     1      44.122  -9.515   9.108  1.00  0.00     0.190 C 
HETATM   20  C   UNL     1      43.374  -8.231   9.493  1.00  0.00     0.033 C 
HETATM   21  C   UNL     1      42.857  -7.490   8.271  1.00  0.00     0.004 C 
HETATM   22  C   UNL     1      41.946  -8.395   7.464  1.00  0.00     0.028 C 
HETATM   23  C   UNL     1      42.646  -9.681   7.051  1.00  0.00     0.236 C 
BRANCH  19  24
HETATM   24  C   UNL     1      44.686 -10.219  10.355  1.00  0.00     0.059 C 
BRANCH  24  25
HETATM   25  C   UNL     1      43.680 -10.560  11.447  1.00  0.00     0.166 C 
BRANCH  25  26
HETATM   26  O   UNL     1      43.797 -11.932  11.782  1.00  0.00    -0.401 OA
HETATM   27  H   UNL     1      44.200 -12.026  12.662  1.00  0.00     0.209 HD
ENDBRANCH  25  26
ENDBRANCH  24  25
ENDBRANCH  19  24
ENDBRANCH  16  17
ENDBRANCH  13  16
ENDBRANCH   6  12
BRANCH   1  28
HETATM   28  C   UNL     1      39.798 -12.132   5.491  1.00  0.00     0.312 C 
HETATM   29  O   UNL     1      39.078 -12.128   6.484  1.00  0.00    -0.258 OA
BRANCH  28  30
HETATM   30  O   UNL     1      40.030 -11.083   4.659  1.00  0.00    -0.317 OA
BRANCH  30  31
HETATM   31  C   UNL     1      38.869 -10.436   4.116  1.00  0.00     0.175 C 
HETATM   32  C   UNL     1      38.645 -10.888   2.685  1.00  0.00     0.034 C 
ENDBRANCH  30  31
ENDBRANCH  28  30
ENDBRANCH   1  28
TORSDOF 9
ENDMDL
MODEL 6
REMARK VINA RESULT:      -6.4      3.168      7.185
REMARK  9 active torsions:
REMARK  status: ('A' for Active; 'I' for Inactive)
REMARK    1  A    between atoms: C_2  and  O_3 
REMARK    2  A    between atoms: O_3  and  C_4 
REMARK    3  A    between atoms: C_4  and  C_5 
REMARK    4  A    between atoms: C_10  and  N_11 
REMARK       I    between atoms: N_11  and  C_12 
REMARK    5  A    between atoms: C_12  and  C_13 
REMARK    6  A    between atoms: C_13  and  N_14 
REMARK    7  A    between atoms: C_16  and  C_17 
REMARK    8  A    between atoms: C_17  and  C_18 
REMARK    9  A    between atoms: C_18  and  O_19 
ROOT
HETATM    1  C   UNL     1      42.111 -11.528   3.250  1.00  0.00     0.137 A 
HETATM    2  N   UNL     1      42.066 -10.363   2.530  1.00  0.00    -0.349 N 
HETATM    3  H   UNL     1      42.280  -9.448   2.907  1.00  0.00     0.166 HD
HETATM    4  C   UNL     1      41.691 -10.607   1.233  1.00  0.00     0.045 A 
HETATM    5  C   UNL     1      41.480 -11.986   1.108  1.00  0.00     0.021 A 
HETATM    6  C   UNL     1      41.741 -12.565   2.397  1.00  0.00     0.080 A 
HETATM    7  C   UNL     1      41.525  -9.695   0.182  1.00  0.00     0.032 A 
HETATM    8  C   UNL     1      41.134 -10.195  -1.060  1.00  0.00     0.026 A 
HETATM    9  C   UNL     1      40.921 -11.556  -1.230  1.00  0.00     0.035 A 
HETATM   10 CL   UNL     1      40.445 -12.153  -2.774  1.00  0.00    -0.084 Cl
HETATM   11  C   UNL     1      41.089 -12.454  -0.168  1.00  0.00     0.040 A 
ENDROOT
BRANCH   6  12
HETATM   12  N   UNL     1      41.690 -13.868   2.898  1.00  0.00    -0.323 N 
HETATM   13  C   UNL     1      42.519 -14.929   2.619  1.00  0.00     0.248 C 
HETATM   14  O   UNL     1      43.504 -14.932   1.892  1.00  0.00    -0.271 OA
HETATM   15  H   UNL     1      40.868 -14.028   3.484  1.00  0.00     0.169 HD
BRANCH  13  16
HETATM   16  C   UNL     1      42.140 -16.216   3.369  1.00  0.00     0.338 C 
BRANCH  16  17
HETATM   17  N   UNL     1      43.150 -17.389   3.238  1.00  0.00    -0.059 N 
HETATM   18  H   UNL     1      43.995 -17.022   2.781  1.00  0.00     0.280 HD
HETATM   19  C   UNL     1      43.519 -17.982   4.602  1.00  0.00     0.190 C 
HETATM   20  C   UNL     1      44.494 -19.152   4.411  1.00  0.00     0.033 C 
HETATM   21  C   UNL     1      43.920 -20.222   3.496  1.00  0.00     0.004 C 
HETATM   22  C   UNL     1      43.571 -19.617   2.150  1.00  0.00     0.028 C 
HETATM   23  C   UNL     1      42.599 -18.455   2.285  1.00  0.00     0.236 C 
BRANCH  19  24
HETATM   24  C   UNL     1      44.095 -16.939   5.578  1.00  0.00     0.059 C 
BRANCH  24  25
HETATM   25  C   UNL     1      43.325 -16.740   6.878  1.00  0.00     0.166 C 
BRANCH  25  26
HETATM   26  O   UNL     1      43.425 -17.913   7.666  1.00  0.00    -0.401 OA
HETATM   27  H   UNL     1      43.882 -17.714   8.501  1.00  0.00     0.209 HD
ENDBRANCH  25  26
ENDBRANCH  24  25
ENDBRANCH  19  24
ENDBRANCH  16  17
ENDBRANCH  13  16
ENDBRANCH   6  12
BRANCH   1  28
HETATM   28  C   UNL     1      42.471 -11.606   4.646  1.00  0.00     0.312 C 
HETATM   29  O   UNL     1      41.801 -12.200   5.485  1.00  0.00    -0.258 OA
BRANCH  28  30
HETATM   30  O   UNL     1      43.629 -10.931   4.869  1.00  0.00    -0.317 OA
BRANCH  30  31
HETATM   31  C   UNL     1      44.078 -10.877   6.231  1.00  0.00     0.175 C 
HETATM   32  C   UNL     1      45.408 -11.595   6.368  1.00  0.00     0.034 C 
ENDBRANCH  30  31
ENDBRANCH  28  30
ENDBRANCH   1  28
TORSDOF 9
ENDMDL
MODEL 7
REMARK VINA RESULT:      -6.3      3.364      6.633
REMARK  9 active torsions:
REMARK  status: ('A' for Active; 'I' for Inactive)
REMARK    1  A    between atoms: C_2  and  O_3 
REMARK    2  A    between atoms: O_3  and  C_4 
REMARK    3  A    between atoms: C_4  and  C_5 
REMARK    4  A    between atoms: C_10  and  N_11 
REMARK       I    between atoms: N_11  and  C_12 
REMARK    5  A    between atoms: C_12  and  C_13 
REMARK    6  A    between atoms: C_13  and  N_14 
REMARK    7  A    between atoms: C_16  and  C_17 
REMARK    8  A    between atoms: C_17  and  C_18 
REMARK    9  A    between atoms: C_18  and  O_19 
ROOT
HETATM    1  C   UNL     1      41.211 -13.886   3.814  1.00  0.00     0.137 A 
HETATM    2  N   UNL     1      40.968 -14.783   2.806  1.00  0.00    -0.349 N 
HETATM    3  H   UNL     1      40.288 -14.645   2.069  1.00  0.00     0.166 HD
HETATM    4  C   UNL     1      41.768 -15.889   2.937  1.00  0.00     0.045 A 
HETATM    5  C   UNL     1      42.561 -15.705   4.078  1.00  0.00     0.021 A 
HETATM    6  C   UNL     1      42.194 -14.432   4.636  1.00  0.00     0.080 A 
HETATM    7  C   UNL     1      41.831 -17.028   2.122  1.00  0.00     0.032 A 
HETATM    8  C   UNL     1      42.739 -18.028   2.466  1.00  0.00     0.026 A 
HETATM    9  C   UNL     1      43.548 -17.883   3.584  1.00  0.00     0.035 A 
HETATM   10 CL   UNL     1      44.668 -19.127   3.989  1.00  0.00    -0.084 Cl
HETATM   11  C   UNL     1      43.472 -16.740   4.390  1.00  0.00     0.040 A 
ENDROOT
BRANCH   6  12
HETATM   12  N   UNL     1      42.613 -13.713   5.757  1.00  0.00    -0.323 N 
HETATM   13  C   UNL     1      43.454 -12.627   5.818  1.00  0.00     0.248 C 
HETATM   14  O   UNL     1      43.982 -12.042   4.880  1.00  0.00    -0.271 OA
HETATM   15  H   UNL     1      42.291 -14.133   6.632  1.00  0.00     0.169 HD
BRANCH  13  16
HETATM   16  C   UNL     1      43.683 -12.108   7.246  1.00  0.00     0.338 C 
BRANCH  16  17
HETATM   17  N   UNL     1      44.184 -10.641   7.353  1.00  0.00    -0.059 N 
HETATM   18  H   UNL     1      44.317 -10.288   6.396  1.00  0.00     0.280 HD
HETATM   19  C   UNL     1      43.183  -9.748   8.096  1.00  0.00     0.190 C 
HETATM   20  C   UNL     1      43.740  -8.321   8.198  1.00  0.00     0.033 C 
HETATM   21  C   UNL     1      45.099  -8.292   8.879  1.00  0.00     0.004 C 
HETATM   22  C   UNL     1      46.075  -9.173   8.123  1.00  0.00     0.028 C 
HETATM   23  C   UNL     1      45.570 -10.603   8.002  1.00  0.00     0.236 C 
BRANCH  19  24
HETATM   24  C   UNL     1      41.783  -9.749   7.456  1.00  0.00     0.059 C 
BRANCH  24  25
HETATM   25  C   UNL     1      41.620  -8.911   6.195  1.00  0.00     0.166 C 
BRANCH  25  26
HETATM   26  O   UNL     1      42.043  -9.666   5.073  1.00  0.00    -0.401 OA
HETATM   27  H   UNL     1      41.739  -9.240   4.252  1.00  0.00     0.209 HD
ENDBRANCH  25  26
ENDBRANCH  24  25
ENDBRANCH  19  24
ENDBRANCH  16  17
ENDBRANCH  13  16
ENDBRANCH   6  12
BRANCH   1  28
HETATM   28  C   UNL     1      40.528 -12.622   3.957  1.00  0.00     0.312 C 
HETATM   29  O   UNL     1      40.194 -12.153   5.041  1.00  0.00    -0.258 OA
BRANCH  28  30
HETATM   30  O   UNL     1      40.319 -12.063   2.737  1.00  0.00    -0.317 OA
BRANCH  30  31
HETATM   31  C   UNL     1      39.659 -10.787   2.730  1.00  0.00     0.175 C 
HETATM   32  C   UNL     1      38.234 -10.943   2.233  1.00  0.00     0.034 C 
ENDBRANCH  30  31
ENDBRANCH  28  30
ENDBRANCH   1  28
TORSDOF 9
ENDMDL
MODEL 8
REMARK VINA RESULT:      -6.3      2.410      3.391
REMARK  9 active torsions:
REMARK  status: ('A' for Active; 'I' for Inactive)
REMARK    1  A    between atoms: C_2  and  O_3 
REMARK    2  A    between atoms: O_3  and  C_4 
REMARK    3  A    between atoms: C_4  and  C_5 
REMARK    4  A    between atoms: C_10  and  N_11 
REMARK       I    between atoms: N_11  and  C_12 
REMARK    5  A    between atoms: C_12  and  C_13 
REMARK    6  A    between atoms: C_13  and  N_14 
REMARK    7  A    between atoms: C_16  and  C_17 
REMARK    8  A    between atoms: C_17  and  C_18 
REMARK    9  A    between atoms: C_18  and  O_19 
ROOT
HETATM    1  C   UNL     1      41.299 -13.444   5.343  1.00  0.00     0.137 A 
HETATM    2  N   UNL     1      42.026 -13.892   6.415  1.00  0.00    -0.349 N 
HETATM    3  H   UNL     1      42.036 -13.448   7.325  1.00  0.00     0.166 HD
HETATM    4  C   UNL     1      42.736 -15.018   6.085  1.00  0.00     0.045 A 
HETATM    5  C   UNL     1      42.462 -15.311   4.743  1.00  0.00     0.021 A 
HETATM    6  C   UNL     1      41.553 -14.301   4.275  1.00  0.00     0.080 A 
HETATM    7  C   UNL     1      43.596 -15.780   6.888  1.00  0.00     0.032 A 
HETATM    8  C   UNL     1      44.207 -16.895   6.316  1.00  0.00     0.026 A 
HETATM    9  C   UNL     1      43.957 -17.226   4.992  1.00  0.00     0.035 A 
HETATM   10 CL   UNL     1      44.716 -18.611   4.306  1.00  0.00    -0.084 Cl
HETATM   11  C   UNL     1      43.096 -16.453   4.201  1.00  0.00     0.040 A 
ENDROOT
BRANCH   6  12
HETATM   12  N   UNL     1      40.939 -14.050   3.046  1.00  0.00    -0.323 N 
HETATM   13  C   UNL     1      41.517 -13.936   1.803  1.00  0.00     0.248 C 
HETATM   14  O   UNL     1      42.701 -14.071   1.518  1.00  0.00    -0.271 OA
HETATM   15  H   UNL     1      39.941 -13.855   3.141  1.00  0.00     0.169 HD
BRANCH  13  16
HETATM   16  C   UNL     1      40.507 -13.651   0.681  1.00  0.00     0.338 C 
BRANCH  16  17
HETATM   17  N   UNL     1      41.008 -12.707  -0.447  1.00  0.00    -0.059 N 
HETATM   18  H   UNL     1      41.979 -12.966  -0.660  1.00  0.00     0.280 HD
HETATM   19  C   UNL     1      40.154 -12.826  -1.714  1.00  0.00     0.190 C 
HETATM   20  C   UNL     1      40.674 -11.853  -2.781  1.00  0.00     0.033 C 
HETATM   21  C   UNL     1      40.694 -10.419  -2.278  1.00  0.00     0.004 C 
HETATM   22  C   UNL     1      41.551 -10.322  -1.030  1.00  0.00     0.028 C 
HETATM   23  C   UNL     1      41.070 -11.264   0.063  1.00  0.00     0.236 C 
BRANCH  19  24
HETATM   24  C   UNL     1      40.086 -14.263  -2.263  1.00  0.00     0.059 C 
BRANCH  24  25
HETATM   25  C   UNL     1      38.713 -14.746  -2.710  1.00  0.00     0.166 C 
BRANCH  25  26
HETATM   26  O   UNL     1      38.484 -14.340  -4.048  1.00  0.00    -0.401 OA
HETATM   27  H   UNL     1      37.937 -13.536  -4.062  1.00  0.00     0.209 HD
ENDBRANCH  25  26
ENDBRANCH  24  25
ENDBRANCH  19  24
ENDBRANCH  16  17
ENDBRANCH  13  16
ENDBRANCH   6  12
BRANCH   1  28
HETATM   28  C   UNL     1      40.448 -12.278   5.369  1.00  0.00     0.312 C 
HETATM   29  O   UNL     1      39.255 -12.305   5.087  1.00  0.00    -0.258 OA
BRANCH  28  30
HETATM   30  O   UNL     1      41.165 -11.185   5.737  1.00  0.00    -0.317 OA
BRANCH  30  31
HETATM   31  C   UNL     1      42.013 -10.614   4.729  1.00  0.00     0.175 C 
HETATM   32  C   UNL     1      41.594  -9.184   4.447  1.00  0.00     0.034 C 
ENDBRANCH  30  31
ENDBRANCH  28  30
ENDBRANCH   1  28
TORSDOF 9
ENDMDL
MODEL 9
REMARK VINA RESULT:      -6.3      4.132      7.012
REMARK  9 active torsions:
REMARK  status: ('A' for Active; 'I' for Inactive)
REMARK    1  A    between atoms: C_2  and  O_3 
REMARK    2  A    between atoms: O_3  and  C_4 
REMARK    3  A    between atoms: C_4  and  C_5 
REMARK    4  A    between atoms: C_10  and  N_11 
REMARK       I    between atoms: N_11  and  C_12 
REMARK    5  A    between atoms: C_12  and  C_13 
REMARK    6  A    between atoms: C_13  and  N_14 
REMARK    7  A    between atoms: C_16  and  C_17 
REMARK    8  A    between atoms: C_17  and  C_18 
REMARK    9  A    between atoms: C_18  and  O_19 
ROOT
HETATM    1  C   UNL     1      40.374 -10.206   6.860  1.00  0.00     0.137 A 
HETATM    2  N   UNL     1      40.951  -9.258   7.665  1.00  0.00    -0.349 N 
HETATM    3  H   UNL     1      40.442  -8.518   8.132  1.00  0.00     0.166 HD
HETATM    4  C   UNL     1      42.306  -9.450   7.747  1.00  0.00     0.045 A 
HETATM    5  C   UNL     1      42.623 -10.566   6.960  1.00  0.00     0.021 A 
HETATM    6  C   UNL     1      41.389 -11.037   6.392  1.00  0.00     0.080 A 
HETATM    7  C   UNL     1      43.256  -8.706   8.460  1.00  0.00     0.032 A 
HETATM    8  C   UNL     1      44.590  -9.106   8.385  1.00  0.00     0.026 A 
HETATM    9  C   UNL     1      44.946 -10.210   7.623  1.00  0.00     0.035 A 
HETATM   10 CL   UNL     1      46.598 -10.692   7.549  1.00  0.00    -0.084 Cl
HETATM   11  C   UNL     1      43.985 -10.942   6.914  1.00  0.00     0.040 A 
ENDROOT
BRANCH   6  12
HETATM   12  N   UNL     1      41.063 -12.085   5.529  1.00  0.00    -0.323 N 
HETATM   13  C   UNL     1      41.151 -12.128   4.157  1.00  0.00     0.248 C 
HETATM   14  O   UNL     1      41.574 -11.254   3.411  1.00  0.00    -0.271 OA
HETATM   15  H   UNL     1      40.633 -12.873   6.018  1.00  0.00     0.169 HD
BRANCH  13  16
HETATM   16  C   UNL     1      40.691 -13.466   3.556  1.00  0.00     0.338 C 
BRANCH  16  17
HETATM   17  N   UNL     1      41.806 -14.532   3.368  1.00  0.00    -0.059 N 
HETATM   18  H   UNL     1      42.605 -14.252   3.950  1.00  0.00     0.280 HD
HETATM   19  C   UNL     1      41.334 -15.931   3.781  1.00  0.00     0.190 C 
HETATM   20  C   UNL     1      42.461 -16.947   3.547  1.00  0.00     0.033 C 
HETATM   21  C   UNL     1      42.936 -16.942   2.103  1.00  0.00     0.004 C 
HETATM   22  C   UNL     1      43.406 -15.552   1.718  1.00  0.00     0.028 C 
HETATM   23  C   UNL     1      42.319 -14.509   1.925  1.00  0.00     0.236 C 
BRANCH  19  24
HETATM   24  C   UNL     1      40.829 -15.993   5.234  1.00  0.00     0.059 C 
BRANCH  24  25
HETATM   25  C   UNL     1      41.897 -15.940   6.319  1.00  0.00     0.166 C 
BRANCH  25  26
HETATM   26  O   UNL     1      42.429 -14.629   6.390  1.00  0.00    -0.401 OA
HETATM   27  H   UNL     1      41.809 -14.044   6.860  1.00  0.00     0.209 HD
ENDBRANCH  25  26
ENDBRANCH  24  25
ENDBRANCH  19  24
ENDBRANCH  16  17
ENDBRANCH  13  16
ENDBRANCH   6  12
BRANCH   1  28
HETATM   28  C   UNL     1      38.961 -10.275   6.572  1.00  0.00     0.312 C 
HETATM   29  O   UNL     1      38.274 -11.268   6.791  1.00  0.00    -0.258 OA
BRANCH  28  30
HETATM   30  O   UNL     1      38.536  -9.104   6.032  1.00  0.00    -0.317 OA
BRANCH  30  31
HETATM   31  C   UNL     1      39.057  -8.779   4.734  1.00  0.00     0.175 C 
HETATM   32  C   UNL     1      38.397  -9.646   3.678  1.00  0.00     0.034 C 
ENDBRANCH  30  31
ENDBRANCH  28  30
ENDBRANCH   1  28
TORSDOF 9
ENDMDL
MODEL 10
REMARK VINA RESULT:      -6.3      3.381      7.554
REMARK  9 active torsions:
REMARK  status: ('A' for Active; 'I' for Inactive)
REMARK    1  A    between atoms: C_2  and  O_3 
REMARK    2  A    between atoms: O_3  and  C_4 
REMARK    3  A    between atoms: C_4  and  C_5 
REMARK    4  A    between atoms: C_10  and  N_11 
REMARK       I    between atoms: N_11  and  C_12 
REMARK    5  A    between atoms: C_12  and  C_13 
REMARK    6  A    between atoms: C_13  and  N_14 
REMARK    7  A    between atoms: C_16  and  C_17 
REMARK    8  A    between atoms: C_17  and  C_18 
REMARK    9  A    between atoms: C_18  and  O_19 
ROOT
HETATM    1  C   UNL     1      40.936 -13.963   0.833  1.00  0.00     0.137 A 
HETATM    2  N   UNL     1      40.884 -13.674  -0.506  1.00  0.00    -0.349 N 
HETATM    3  H   UNL     1      40.762 -14.366  -1.236  1.00  0.00     0.166 HD
HETATM    4  C   UNL     1      41.021 -12.327  -0.719  1.00  0.00     0.045 A 
HETATM    5  C   UNL     1      41.172 -11.715   0.533  1.00  0.00     0.021 A 
HETATM    6  C   UNL     1      41.126 -12.764   1.515  1.00  0.00     0.080 A 
HETATM    7  C   UNL     1      41.024 -11.626  -1.932  1.00  0.00     0.032 A 
HETATM    8  C   UNL     1      41.180 -10.241  -1.886  1.00  0.00     0.026 A 
HETATM    9  C   UNL     1      41.325  -9.594  -0.667  1.00  0.00     0.035 A 
HETATM   10 CL   UNL     1      41.509  -7.882  -0.631  1.00  0.00    -0.084 Cl
HETATM   11  C   UNL     1      41.322 -10.309   0.538  1.00  0.00     0.040 A 
ENDROOT
BRANCH   6  12
HETATM   12  N   UNL     1      41.230 -12.787   2.908  1.00  0.00    -0.323 N 
HETATM   13  C   UNL     1      40.342 -12.311   3.844  1.00  0.00     0.248 C 
HETATM   14  O   UNL     1      39.250 -11.798   3.640  1.00  0.00    -0.271 OA
HETATM   15  H   UNL     1      42.134 -13.141   3.225  1.00  0.00     0.169 HD
BRANCH  13  16
HETATM   16  C   UNL     1      40.812 -12.516   5.293  1.00  0.00     0.338 C 
BRANCH  16  17
HETATM   17  N   UNL     1      41.541 -13.859   5.576  1.00  0.00    -0.059 N 
HETATM   18  H   UNL     1      41.856 -14.237   4.674  1.00  0.00     0.280 HD
HETATM   19  C   UNL     1      42.746 -13.671   6.505  1.00  0.00     0.190 C 
HETATM   20  C   UNL     1      43.409 -15.029   6.774  1.00  0.00     0.033 C 
HETATM   21  C   UNL     1      42.428 -16.031   7.360  1.00  0.00     0.004 C 
HETATM   22  C   UNL     1      41.248 -16.209   6.423  1.00  0.00     0.028 C 
HETATM   23  C   UNL     1      40.552 -14.889   6.131  1.00  0.00     0.236 C 
BRANCH  19  24
HETATM   24  C   UNL     1      43.770 -12.655   5.966  1.00  0.00     0.059 C 
BRANCH  24  25
HETATM   25  C   UNL     1      44.650 -11.974   7.007  1.00  0.00     0.166 C 
BRANCH  25  26
HETATM   26  O   UNL     1      43.949 -11.895   8.235  1.00  0.00    -0.401 OA
HETATM   27  H   UNL     1      43.225 -12.544   8.248  1.00  0.00     0.209 HD
ENDBRANCH  25  26
ENDBRANCH  24  25
ENDBRANCH  19  24
ENDBRANCH  16  17
ENDBRANCH  13  16
ENDBRANCH   6  12
BRANCH   1  28
HETATM   28  C   UNL     1      40.823 -15.294   1.382  1.00  0.00     0.312 C 
HETATM   29  O   UNL     1      39.790 -15.954   1.347  1.00  0.00    -0.258 OA
BRANCH  28  30
HETATM   30  O   UNL     1      42.006 -15.676   1.928  1.00  0.00    -0.317 OA
BRANCH  30  31
HETATM   31  C   UNL     1      41.947 -16.749   2.881  1.00  0.00     0.175 C 
HETATM   32  C   UNL     1      42.838 -17.892   2.431  1.00  0.00     0.034 C 
ENDBRANCH  30  31
ENDBRANCH  28  30
ENDBRANCH   1  28
TORSDOF 9
ENDMDL
