MODEL 1
REMARK VINA RESULT:      -8.1      0.000      0.000
REMARK  9 active torsions:
REMARK  status: ('A' for Active; 'I' for Inactive)
REMARK    1  A    between atoms: C_2  and  C_3 
REMARK    2  A    between atoms: C_3  and  O_4 
REMARK    3  A    between atoms: O_4  and  C_5 
REMARK    4  A    between atoms: C_8  and  C_9 
REMARK       I    between atoms: C_9  and  N_10 
REMARK    5  A    between atoms: N_10  and  C_11 
REMARK    6  A    between atoms: C_11  and  N_12 
REMARK    7  A    between atoms: N_12  and  C_13 
REMARK    8  A    between atoms: C_15  and  O_16 
REMARK    9  A    between atoms: C_17  and  C_18 
ROOT
HETATM    1  C   UNL     1      41.829 -10.966   1.736  1.00  0.00     0.036 A 
HETATM    2  C   UNL     1      41.317 -11.976   0.927  1.00  0.00     0.067 A 
HETATM    3  C   UNL     1      41.605 -13.321   1.192  1.00  0.00     0.082 A 
HETATM    4  C   UNL     1      42.434 -13.695   2.257  1.00  0.00     0.050 A 
HETATM    5  C   UNL     1      42.979 -12.673   3.045  1.00  0.00     0.021 A 
HETATM    6  C   UNL     1      42.681 -11.330   2.788  1.00  0.00     0.030 A 
ENDROOT
BRANCH   1   7
HETATM    7  N   UNL     1      41.586  -9.587   1.574  1.00  0.00    -0.333 N 
HETATM    8  H   UNL     1      42.288  -9.091   1.028  1.00  0.00     0.168 HD
BRANCH   7   9
HETATM    9  C   UNL     1      40.602  -8.747   1.979  1.00  0.00     0.179 C 
HETATM   10  S   UNL     1      39.234  -8.621   1.024  1.00  0.00    -0.040 SA
BRANCH   9  11
HETATM   11  N   UNL     1      40.689  -8.037   3.131  1.00  0.00    -0.299 N 
HETATM   12  C   UNL     1      40.101  -8.394   4.334  1.00  0.00     0.257 C 
HETATM   13  O   UNL     1      39.601  -7.551   5.074  1.00  0.00    -0.267 OA
HETATM   14  H   UNL     1      40.532  -7.048   2.990  1.00  0.00     0.171 HD
BRANCH  12  15
HETATM   15  C   UNL     1      40.140  -9.803   4.763  1.00  0.00     0.032 A 
HETATM   16  C   UNL     1      41.071 -10.156   5.743  1.00  0.00     0.020 A 
HETATM   17  C   UNL     1      41.088 -11.456   6.256  1.00  0.00     0.038 A 
HETATM   18  C   UNL     1      40.168 -12.403   5.801  1.00  0.00     0.068 A 
HETATM   19  C   UNL     1      39.241 -12.040   4.816  1.00  0.00     0.038 A 
HETATM   20  C   UNL     1      39.212 -10.740   4.305  1.00  0.00     0.020 A 
BRANCH  18  21
HETATM   21  O   UNL     1      40.070 -13.696   6.237  1.00  0.00    -0.351 OA
BRANCH  21  22
HETATM   22  C   UNL     1      41.299 -14.385   6.472  1.00  0.00     0.175 C 
BRANCH  22  23
HETATM   23  C   UNL     1      40.999 -15.878   6.563  1.00  0.00     0.022 C 
HETATM   24  C   UNL     1      40.252 -16.376   5.337  1.00  0.00     0.007 C 
ENDBRANCH  22  23
ENDBRANCH  21  22
ENDBRANCH  18  21
ENDBRANCH  12  15
ENDBRANCH   9  11
ENDBRANCH   7   9
ENDBRANCH   1   7
BRANCH   3  25
HETATM   25  O   UNL     1      41.040 -14.219   0.322  1.00  0.00    -0.360 OA
HETATM   26  H   UNL     1      41.656 -14.963   0.188  1.00  0.00     0.217 HD
ENDBRANCH   3  25
BRANCH   4  27
HETATM   27  C   UNL     1      42.767 -15.081   2.565  1.00  0.00     0.183 A 
HETATM   28  O   UNL     1      43.291 -15.310   3.813  1.00  0.00    -0.288 OA
HETATM   29  C   UNL     1      43.527 -16.654   3.835  1.00  0.00     0.112 A 
HETATM   30  C   UNL     1      43.118 -17.169   2.617  1.00  0.00     0.094 A 
HETATM   31  C   UNL     1      44.074 -17.396   4.881  1.00  0.00    -0.025 A 
HETATM   32  N   UNL     1      42.656 -16.158   1.811  1.00  0.00    -0.221 NA
HETATM   33  C   UNL     1      43.224 -18.546   2.390  1.00  0.00     0.041 A 
HETATM   34  C   UNL     1      43.769 -19.353   3.407  1.00  0.00    -0.059 A 
HETATM   35  C   UNL     1      44.181 -18.778   4.624  1.00  0.00     0.016 A 
HETATM   36  C   UNL     1      43.856 -20.840   3.210  1.00  0.00     0.048 C 
HETATM   37  C   UNL     1      44.554 -16.808   6.168  1.00  0.00     0.051 C 
ENDBRANCH   4  27
TORSDOF 9
ENDMDL
MODEL 2
REMARK VINA RESULT:      -8.0      2.547      3.412
REMARK  9 active torsions:
REMARK  status: ('A' for Active; 'I' for Inactive)
REMARK    1  A    between atoms: C_2  and  C_3 
REMARK    2  A    between atoms: C_3  and  O_4 
REMARK    3  A    between atoms: O_4  and  C_5 
REMARK    4  A    between atoms: C_8  and  C_9 
REMARK       I    between atoms: C_9  and  N_10 
REMARK    5  A    between atoms: N_10  and  C_11 
REMARK    6  A    between atoms: C_11  and  N_12 
REMARK    7  A    between atoms: N_12  and  C_13 
REMARK    8  A    between atoms: C_15  and  O_16 
REMARK    9  A    between atoms: C_17  and  C_18 
ROOT
HETATM    1  C   UNL     1      43.034 -11.392   6.019  1.00  0.00     0.036 A 
HETATM    2  C   UNL     1      43.046 -11.563   4.638  1.00  0.00     0.067 A 
HETATM    3  C   UNL     1      43.115 -12.845   4.077  1.00  0.00     0.082 A 
HETATM    4  C   UNL     1      43.200 -13.990   4.878  1.00  0.00     0.050 A 
HETATM    5  C   UNL     1      43.228 -13.811   6.267  1.00  0.00     0.021 A 
HETATM    6  C   UNL     1      43.146 -12.531   6.828  1.00  0.00     0.030 A 
ENDROOT
BRANCH   1   7
HETATM    7  N   UNL     1      42.945 -10.154   6.688  1.00  0.00    -0.333 N 
HETATM    8  H   UNL     1      43.839  -9.708   6.881  1.00  0.00     0.168 HD
BRANCH   7   9
HETATM    9  C   UNL     1      41.915  -9.395   7.137  1.00  0.00     0.179 C 
HETATM   10  S   UNL     1      41.849  -7.795   6.653  1.00  0.00    -0.040 SA
BRANCH   9  11
HETATM   11  N   UNL     1      40.942  -9.899   7.937  1.00  0.00    -0.299 N 
HETATM   12  C   UNL     1      39.676 -10.270   7.515  1.00  0.00     0.257 C 
HETATM   13  O   UNL     1      38.685 -10.052   8.207  1.00  0.00    -0.267 OA
HETATM   14  H   UNL     1      40.843  -9.383   8.800  1.00  0.00     0.171 HD
BRANCH  12  15
HETATM   15  C   UNL     1      39.526 -11.000   6.244  1.00  0.00     0.032 A 
HETATM   16  C   UNL     1      39.385 -10.245   5.077  1.00  0.00     0.020 A 
HETATM   17  C   UNL     1      39.335 -10.882   3.833  1.00  0.00     0.038 A 
HETATM   18  C   UNL     1      39.441 -12.272   3.752  1.00  0.00     0.068 A 
HETATM   19  C   UNL     1      39.579 -13.020   4.928  1.00  0.00     0.038 A 
HETATM   20  C   UNL     1      39.638 -12.389   6.173  1.00  0.00     0.020 A 
BRANCH  18  21
HETATM   21  O   UNL     1      39.427 -13.008   2.599  1.00  0.00    -0.351 OA
BRANCH  21  22
HETATM   22  C   UNL     1      39.933 -14.341   2.686  1.00  0.00     0.175 C 
BRANCH  22  23
HETATM   23  C   UNL     1      40.141 -14.867   1.269  1.00  0.00     0.022 C 
HETATM   24  C   UNL     1      40.665 -13.784   0.341  1.00  0.00     0.007 C 
ENDBRANCH  22  23
ENDBRANCH  21  22
ENDBRANCH  18  21
ENDBRANCH  12  15
ENDBRANCH   9  11
ENDBRANCH   7   9
ENDBRANCH   1   7
BRANCH   3  25
HETATM   25  O   UNL     1      43.119 -12.879   2.705  1.00  0.00    -0.360 OA
HETATM   26  H   UNL     1      42.200 -12.841   2.383  1.00  0.00     0.217 HD
ENDBRANCH   3  25
BRANCH   4  27
HETATM   27  C   UNL     1      43.282 -15.342   4.337  1.00  0.00     0.183 A 
HETATM   28  O   UNL     1      43.379 -16.354   5.260  1.00  0.00    -0.288 OA
HETATM   29  C   UNL     1      43.460 -17.488   4.504  1.00  0.00     0.112 A 
HETATM   30  C   UNL     1      43.388 -17.110   3.175  1.00  0.00     0.094 A 
HETATM   31  C   UNL     1      43.586 -18.798   4.964  1.00  0.00    -0.025 A 
HETATM   32  N   UNL     1      43.296 -15.743   3.080  1.00  0.00    -0.221 NA
HETATM   33  C   UNL     1      43.417 -18.098   2.185  1.00  0.00     0.041 A 
HETATM   34  C   UNL     1      43.545 -19.443   2.581  1.00  0.00    -0.059 A 
HETATM   35  C   UNL     1      43.625 -19.773   3.947  1.00  0.00     0.016 A 
HETATM   36  C   UNL     1      43.536 -20.529   1.543  1.00  0.00     0.048 C 
HETATM   37  C   UNL     1      43.712 -19.176   6.405  1.00  0.00     0.051 C 
ENDBRANCH   4  27
TORSDOF 9
ENDMDL
MODEL 3
REMARK VINA RESULT:      -7.8      1.815      3.230
REMARK  9 active torsions:
REMARK  status: ('A' for Active; 'I' for Inactive)
REMARK    1  A    between atoms: C_2  and  C_3 
REMARK    2  A    between atoms: C_3  and  O_4 
REMARK    3  A    between atoms: O_4  and  C_5 
REMARK    4  A    between atoms: C_8  and  C_9 
REMARK       I    between atoms: C_9  and  N_10 
REMARK    5  A    between atoms: N_10  and  C_11 
REMARK    6  A    between atoms: C_11  and  N_12 
REMARK    7  A    between atoms: N_12  and  C_13 
REMARK    8  A    between atoms: C_15  and  O_16 
REMARK    9  A    between atoms: C_17  and  C_18 
ROOT
HETATM    1  C   UNL     1      42.239 -10.559   4.524  1.00  0.00     0.036 A 
HETATM    2  C   UNL     1      42.066 -11.473   5.558  1.00  0.00     0.067 A 
HETATM    3  C   UNL     1      42.300 -12.839   5.352  1.00  0.00     0.082 A 
HETATM    4  C   UNL     1      42.688 -13.334   4.101  1.00  0.00     0.050 A 
HETATM    5  C   UNL     1      42.823 -12.415   3.053  1.00  0.00     0.021 A 
HETATM    6  C   UNL     1      42.602 -11.048   3.262  1.00  0.00     0.030 A 
ENDROOT
BRANCH   1   7
HETATM    7  N   UNL     1      42.054  -9.165   4.626  1.00  0.00    -0.333 N 
HETATM    8  H   UNL     1      42.913  -8.619   4.633  1.00  0.00     0.168 HD
BRANCH   7   9
HETATM    9  C   UNL     1      40.966  -8.360   4.708  1.00  0.00     0.179 C 
HETATM   10  S   UNL     1      41.014  -6.889   3.912  1.00  0.00    -0.040 SA
BRANCH   9  11
HETATM   11  N   UNL     1      39.850  -8.723   5.389  1.00  0.00    -0.299 N 
HETATM   12  C   UNL     1      38.672  -9.168   4.810  1.00  0.00     0.257 C 
HETATM   13  O   UNL     1      37.578  -8.838   5.260  1.00  0.00    -0.267 OA
HETATM   14  H   UNL     1      39.609  -8.064   6.117  1.00  0.00     0.171 HD
BRANCH  12  15
HETATM   15  C   UNL     1      38.738 -10.108   3.678  1.00  0.00     0.032 A 
HETATM   16  C   UNL     1      38.701  -9.573   2.388  1.00  0.00     0.020 A 
HETATM   17  C   UNL     1      38.857 -10.409   1.279  1.00  0.00     0.038 A 
HETATM   18  C   UNL     1      39.062 -11.779   1.455  1.00  0.00     0.068 A 
HETATM   19  C   UNL     1      39.094 -12.306   2.752  1.00  0.00     0.038 A 
HETATM   20  C   UNL     1      38.949 -11.475   3.866  1.00  0.00     0.020 A 
BRANCH  18  21
HETATM   21  O   UNL     1      39.247 -12.694   0.456  1.00  0.00    -0.351 OA
BRANCH  21  22
HETATM   22  C   UNL     1      40.409 -13.520   0.553  1.00  0.00     0.175 C 
BRANCH  22  23
HETATM   23  C   UNL     1      39.999 -14.959   0.255  1.00  0.00     0.022 C 
HETATM   24  C   UNL     1      39.872 -15.780   1.527  1.00  0.00     0.007 C 
ENDBRANCH  22  23
ENDBRANCH  21  22
ENDBRANCH  18  21
ENDBRANCH  12  15
ENDBRANCH   9  11
ENDBRANCH   7   9
ENDBRANCH   1   7
BRANCH   3  25
HETATM   25  O   UNL     1      42.094 -13.636   6.450  1.00  0.00    -0.360 OA
HETATM   26  H   UNL     1      41.267 -14.137   6.328  1.00  0.00     0.217 HD
ENDBRANCH   3  25
BRANCH   4  27
HETATM   27  C   UNL     1      42.934 -14.747   3.840  1.00  0.00     0.183 A 
HETATM   28  O   UNL     1      43.110 -15.541   4.946  1.00  0.00    -0.288 OA
HETATM   29  C   UNL     1      43.339 -16.785   4.431  1.00  0.00     0.112 A 
HETATM   30  C   UNL     1      43.271 -16.684   3.053  1.00  0.00     0.094 A 
HETATM   31  C   UNL     1      43.592 -17.957   5.143  1.00  0.00    -0.025 A 
HETATM   32  N   UNL     1      43.034 -15.382   2.687  1.00  0.00    -0.221 NA
HETATM   33  C   UNL     1      43.441 -17.837   2.278  1.00  0.00     0.041 A 
HETATM   34  C   UNL     1      43.700 -19.056   2.935  1.00  0.00    -0.059 A 
HETATM   35  C   UNL     1      43.770 -19.101   4.340  1.00  0.00     0.016 A 
HETATM   36  C   UNL     1      43.844 -20.317   2.133  1.00  0.00     0.048 C 
HETATM   37  C   UNL     1      43.709 -18.029   6.631  1.00  0.00     0.051 C 
ENDBRANCH   4  27
TORSDOF 9
ENDMDL
MODEL 4
REMARK VINA RESULT:      -7.8      4.758      5.843
REMARK  9 active torsions:
REMARK  status: ('A' for Active; 'I' for Inactive)
REMARK    1  A    between atoms: C_2  and  C_3 
REMARK    2  A    between atoms: C_3  and  O_4 
REMARK    3  A    between atoms: O_4  and  C_5 
REMARK    4  A    between atoms: C_8  and  C_9 
REMARK       I    between atoms: C_9  and  N_10 
REMARK    5  A    between atoms: N_10  and  C_11 
REMARK    6  A    between atoms: C_11  and  N_12 
REMARK    7  A    between atoms: N_12  and  C_13 
REMARK    8  A    between atoms: C_15  and  O_16 
REMARK    9  A    between atoms: C_17  and  C_18 
ROOT
HETATM    1  C   UNL     1      42.274 -11.942   6.500  1.00  0.00     0.036 A 
HETATM    2  C   UNL     1      41.532 -12.301   5.378  1.00  0.00     0.067 A 
HETATM    3  C   UNL     1      41.734 -13.539   4.754  1.00  0.00     0.082 A 
HETATM    4  C   UNL     1      42.700 -14.442   5.215  1.00  0.00     0.050 A 
HETATM    5  C   UNL     1      43.472 -14.059   6.320  1.00  0.00     0.021 A 
HETATM    6  C   UNL     1      43.260 -12.828   6.952  1.00  0.00     0.030 A 
ENDROOT
BRANCH   1   7
HETATM    7  N   UNL     1      42.138 -10.736   7.217  1.00  0.00    -0.333 N 
HETATM    8  H   UNL     1      41.397 -10.735   7.915  1.00  0.00     0.168 HD
BRANCH   7   9
HETATM    9  C   UNL     1      42.790  -9.547   7.199  1.00  0.00     0.179 C 
HETATM   10  S   UNL     1      41.887  -8.158   6.965  1.00  0.00    -0.040 SA
BRANCH   9  11
HETATM   11  N   UNL     1      44.131  -9.458   7.387  1.00  0.00    -0.299 N 
HETATM   12  C   UNL     1      44.745  -8.847   8.468  1.00  0.00     0.257 C 
HETATM   13  O   UNL     1      45.771  -8.186   8.328  1.00  0.00    -0.267 OA
HETATM   14  H   UNL     1      44.621  -9.174   6.550  1.00  0.00     0.171 HD
BRANCH  12  15
HETATM   15  C   UNL     1      44.195  -9.054   9.819  1.00  0.00     0.032 A 
HETATM   16  C   UNL     1      43.574  -7.967  10.439  1.00  0.00     0.020 A 
HETATM   17  C   UNL     1      42.951  -8.131  11.679  1.00  0.00     0.038 A 
HETATM   18  C   UNL     1      42.934  -9.384  12.297  1.00  0.00     0.068 A 
HETATM   19  C   UNL     1      43.562 -10.466  11.669  1.00  0.00     0.038 A 
HETATM   20  C   UNL     1      44.180 -10.312  10.425  1.00  0.00     0.020 A 
BRANCH  18  21
HETATM   21  O   UNL     1      42.342  -9.676  13.495  1.00  0.00    -0.351 OA
BRANCH  21  22
HETATM   22  C   UNL     1      41.226  -8.866  13.870  1.00  0.00     0.175 C 
BRANCH  22  23
HETATM   23  C   UNL     1      41.499  -8.288  15.255  1.00  0.00     0.022 C 
HETATM   24  C   UNL     1      42.447  -7.102  15.191  1.00  0.00     0.007 C 
ENDBRANCH  22  23
ENDBRANCH  21  22
ENDBRANCH  18  21
ENDBRANCH  12  15
ENDBRANCH   9  11
ENDBRANCH   7   9
ENDBRANCH   1   7
BRANCH   3  25
HETATM   25  O   UNL     1      40.941 -13.774   3.659  1.00  0.00    -0.360 OA
HETATM   26  H   UNL     1      40.310 -14.485   3.871  1.00  0.00     0.217 HD
ENDBRANCH   3  25
BRANCH   4  27
HETATM   27  C   UNL     1      42.950 -15.736   4.592  1.00  0.00     0.183 A 
HETATM   28  O   UNL     1      43.152 -16.787   5.451  1.00  0.00    -0.288 OA
HETATM   29  C   UNL     1      43.378 -17.853   4.627  1.00  0.00     0.112 A 
HETATM   30  C   UNL     1      43.282 -17.399   3.323  1.00  0.00     0.094 A 
HETATM   31  C   UNL     1      43.652 -19.166   5.006  1.00  0.00    -0.025 A 
HETATM   32  N   UNL     1      43.030 -16.049   3.312  1.00  0.00    -0.221 NA
HETATM   33  C   UNL     1      43.444 -18.310   2.273  1.00  0.00     0.041 A 
HETATM   34  C   UNL     1      43.723 -19.654   2.587  1.00  0.00    -0.059 A 
HETATM   35  C   UNL     1      43.821 -20.061   3.930  1.00  0.00     0.016 A 
HETATM   36  C   UNL     1      43.859 -20.663   1.482  1.00  0.00     0.048 C 
HETATM   37  C   UNL     1      43.800 -19.620   6.422  1.00  0.00     0.051 C 
ENDBRANCH   4  27
TORSDOF 9
ENDMDL
MODEL 5
REMARK VINA RESULT:      -7.7      2.021      3.727
REMARK  9 active torsions:
REMARK  status: ('A' for Active; 'I' for Inactive)
REMARK    1  A    between atoms: C_2  and  C_3 
REMARK    2  A    between atoms: C_3  and  O_4 
REMARK    3  A    between atoms: O_4  and  C_5 
REMARK    4  A    between atoms: C_8  and  C_9 
REMARK       I    between atoms: C_9  and  N_10 
REMARK    5  A    between atoms: N_10  and  C_11 
REMARK    6  A    between atoms: C_11  and  N_12 
REMARK    7  A    between atoms: N_12  and  C_13 
REMARK    8  A    between atoms: C_15  and  O_16 
REMARK    9  A    between atoms: C_17  and  C_18 
ROOT
HETATM    1  C   UNL     1      40.634 -10.831   6.088  1.00  0.00     0.036 A 
HETATM    2  C   UNL     1      39.840 -11.946   6.337  1.00  0.00     0.067 A 
HETATM    3  C   UNL     1      40.335 -13.239   6.124  1.00  0.00     0.082 A 
HETATM    4  C   UNL     1      41.627 -13.456   5.630  1.00  0.00     0.050 A 
HETATM    5  C   UNL     1      42.409 -12.330   5.344  1.00  0.00     0.021 A 
HETATM    6  C   UNL     1      41.920 -11.037   5.570  1.00  0.00     0.030 A 
ENDROOT
BRANCH   1   7
HETATM    7  N   UNL     1      40.247  -9.491   6.289  1.00  0.00    -0.333 N 
HETATM    8  H   UNL     1      40.037  -9.247   7.254  1.00  0.00     0.168 HD
BRANCH   7   9
HETATM    9  C   UNL     1      40.097  -8.418   5.472  1.00  0.00     0.179 C 
HETATM   10  S   UNL     1      41.372  -7.344   5.343  1.00  0.00    -0.040 SA
BRANCH   9  11
HETATM   11  N   UNL     1      38.965  -8.213   4.753  1.00  0.00    -0.299 N 
HETATM   12  C   UNL     1      38.806  -8.522   3.412  1.00  0.00     0.257 C 
HETATM   13  O   UNL     1      38.173  -7.785   2.659  1.00  0.00    -0.267 OA
HETATM   14  H   UNL     1      38.566  -7.298   4.910  1.00  0.00     0.171 HD
BRANCH  12  15
HETATM   15  C   UNL     1      39.347  -9.792   2.897  1.00  0.00     0.032 A 
HETATM   16  C   UNL     1      40.635  -9.776   2.359  1.00  0.00     0.020 A 
HETATM   17  C   UNL     1      41.235 -10.969   1.944  1.00  0.00     0.038 A 
HETATM   18  C   UNL     1      40.555 -12.181   2.078  1.00  0.00     0.068 A 
HETATM   19  C   UNL     1      39.262 -12.186   2.616  1.00  0.00     0.038 A 
HETATM   20  C   UNL     1      38.659 -10.999   3.041  1.00  0.00     0.020 A 
BRANCH  18  21
HETATM   21  O   UNL     1      41.039 -13.412   1.730  1.00  0.00    -0.351 OA
BRANCH  21  22
HETATM   22  C   UNL     1      40.838 -13.818   0.375  1.00  0.00     0.175 C 
BRANCH  22  23
HETATM   23  C   UNL     1      39.971 -15.073   0.376  1.00  0.00     0.022 C 
HETATM   24  C   UNL     1      39.929 -15.724   1.748  1.00  0.00     0.007 C 
ENDBRANCH  22  23
ENDBRANCH  21  22
ENDBRANCH  18  21
ENDBRANCH  12  15
ENDBRANCH   9  11
ENDBRANCH   7   9
ENDBRANCH   1   7
BRANCH   3  25
HETATM   25  O   UNL     1      39.454 -14.253   6.406  1.00  0.00    -0.360 OA
HETATM   26  H   UNL     1      39.955 -15.068   6.591  1.00  0.00     0.217 HD
ENDBRANCH   3  25
BRANCH   4  27
HETATM   27  C   UNL     1      42.180 -14.783   5.386  1.00  0.00     0.183 A 
HETATM   28  O   UNL     1      42.495 -15.071   4.081  1.00  0.00    -0.288 OA
HETATM   29  C   UNL     1      42.963 -16.353   4.126  1.00  0.00     0.112 A 
HETATM   30  C   UNL     1      42.926 -16.764   5.447  1.00  0.00     0.094 A 
HETATM   31  C   UNL     1      43.408 -17.124   3.053  1.00  0.00    -0.025 A 
HETATM   32  N   UNL     1      42.407 -15.766   6.235  1.00  0.00    -0.221 NA
HETATM   33  C   UNL     1      43.387 -18.045   5.773  1.00  0.00     0.041 A 
HETATM   34  C   UNL     1      43.849 -18.877   4.736  1.00  0.00    -0.059 A 
HETATM   35  C   UNL     1      43.856 -18.413   3.407  1.00  0.00     0.016 A 
HETATM   36  C   UNL     1      44.390 -20.240   5.061  1.00  0.00     0.048 C 
HETATM   37  C   UNL     1      43.391 -16.674   1.628  1.00  0.00     0.051 C 
ENDBRANCH   4  27
TORSDOF 9
ENDMDL
MODEL 6
REMARK VINA RESULT:      -7.7      2.395      3.762
REMARK  9 active torsions:
REMARK  status: ('A' for Active; 'I' for Inactive)
REMARK    1  A    between atoms: C_2  and  C_3 
REMARK    2  A    between atoms: C_3  and  O_4 
REMARK    3  A    between atoms: O_4  and  C_5 
REMARK    4  A    between atoms: C_8  and  C_9 
REMARK       I    between atoms: C_9  and  N_10 
REMARK    5  A    between atoms: N_10  and  C_11 
REMARK    6  A    between atoms: C_11  and  N_12 
REMARK    7  A    between atoms: N_12  and  C_13 
REMARK    8  A    between atoms: C_15  and  O_16 
REMARK    9  A    between atoms: C_17  and  C_18 
ROOT
HETATM    1  C   UNL     1      38.815 -10.889   4.646  1.00  0.00     0.036 A 
HETATM    2  C   UNL     1      39.192 -11.694   5.716  1.00  0.00     0.067 A 
HETATM    3  C   UNL     1      39.920 -12.872   5.504  1.00  0.00     0.082 A 
HETATM    4  C   UNL     1      40.270 -13.293   4.215  1.00  0.00     0.050 A 
HETATM    5  C   UNL     1      39.854 -12.500   3.138  1.00  0.00     0.021 A 
HETATM    6  C   UNL     1      39.138 -11.315   3.351  1.00  0.00     0.030 A 
ENDROOT
BRANCH   1   7
HETATM    7  N   UNL     1      38.104  -9.676   4.747  1.00  0.00    -0.333 N 
HETATM    8  H   UNL     1      37.104  -9.779   4.910  1.00  0.00     0.168 HD
BRANCH   7   9
HETATM    9  C   UNL     1      38.453  -8.367   4.687  1.00  0.00     0.179 C 
HETATM   10  S   UNL     1      37.678  -7.298   5.715  1.00  0.00    -0.040 SA
BRANCH   9  11
HETATM   11  N   UNL     1      39.417  -7.916   3.845  1.00  0.00    -0.299 N 
HETATM   12  C   UNL     1      40.744  -7.713   4.188  1.00  0.00     0.257 C 
HETATM   13  O   UNL     1      41.375  -6.754   3.751  1.00  0.00    -0.267 OA
HETATM   14  H   UNL     1      39.113  -7.123   3.298  1.00  0.00     0.171 HD
BRANCH  12  15
HETATM   15  C   UNL     1      41.427  -8.706   5.036  1.00  0.00     0.032 A 
HETATM   16  C   UNL     1      42.114  -9.740   4.395  1.00  0.00     0.020 A 
HETATM   17  C   UNL     1      42.859 -10.655   5.146  1.00  0.00     0.038 A 
HETATM   18  C   UNL     1      42.931 -10.530   6.535  1.00  0.00     0.068 A 
HETATM   19  C   UNL     1      42.236  -9.492   7.167  1.00  0.00     0.038 A 
HETATM   20  C   UNL     1      41.496  -8.569   6.423  1.00  0.00     0.020 A 
BRANCH  18  21
HETATM   21  O   UNL     1      43.640 -11.345   7.374  1.00  0.00    -0.351 OA
BRANCH  21  22
HETATM   22  C   UNL     1      45.060 -11.337   7.223  1.00  0.00     0.175 C 
BRANCH  22  23
HETATM   23  C   UNL     1      45.666 -10.620   8.425  1.00  0.00     0.022 C 
HETATM   24  C   UNL     1      46.036  -9.184   8.092  1.00  0.00     0.007 C 
ENDBRANCH  22  23
ENDBRANCH  21  22
ENDBRANCH  18  21
ENDBRANCH  12  15
ENDBRANCH   9  11
ENDBRANCH   7   9
ENDBRANCH   1   7
BRANCH   3  25
HETATM   25  O   UNL     1      40.231 -13.576   6.640  1.00  0.00    -0.360 OA
HETATM   26  H   UNL     1      39.474 -14.142   6.879  1.00  0.00     0.217 HD
ENDBRANCH   3  25
BRANCH   4  27
HETATM   27  C   UNL     1      41.019 -14.515   3.947  1.00  0.00     0.183 A 
HETATM   28  O   UNL     1      41.982 -14.843   4.868  1.00  0.00    -0.288 OA
HETATM   29  C   UNL     1      42.535 -15.992   4.378  1.00  0.00     0.112 A 
HETATM   30  C   UNL     1      41.869 -16.308   3.206  1.00  0.00     0.094 A 
HETATM   31  C   UNL     1      43.575 -16.732   4.940  1.00  0.00    -0.025 A 
HETATM   32  N   UNL     1      40.923 -15.352   2.931  1.00  0.00    -0.221 NA
HETATM   33  C   UNL     1      42.226 -17.471   2.514  1.00  0.00     0.041 A 
HETATM   34  C   UNL     1      43.270 -18.264   3.027  1.00  0.00    -0.059 A 
HETATM   35  C   UNL     1      43.922 -17.891   4.218  1.00  0.00     0.016 A 
HETATM   36  C   UNL     1      43.647 -19.540   2.330  1.00  0.00     0.048 C 
HETATM   37  C   UNL     1      44.310 -16.342   6.181  1.00  0.00     0.051 C 
ENDBRANCH   4  27
TORSDOF 9
ENDMDL
MODEL 7
REMARK VINA RESULT:      -7.7      2.541      4.466
REMARK  9 active torsions:
REMARK  status: ('A' for Active; 'I' for Inactive)
REMARK    1  A    between atoms: C_2  and  C_3 
REMARK    2  A    between atoms: C_3  and  O_4 
REMARK    3  A    between atoms: O_4  and  C_5 
REMARK    4  A    between atoms: C_8  and  C_9 
REMARK       I    between atoms: C_9  and  N_10 
REMARK    5  A    between atoms: N_10  and  C_11 
REMARK    6  A    between atoms: C_11  and  N_12 
REMARK    7  A    between atoms: N_12  and  C_13 
REMARK    8  A    between atoms: C_15  and  O_16 
REMARK    9  A    between atoms: C_17  and  C_18 
ROOT
HETATM    1  C   UNL     1      41.264 -10.569   2.896  1.00  0.00     0.036 A 
HETATM    2  C   UNL     1      40.284 -11.552   2.987  1.00  0.00     0.067 A 
HETATM    3  C   UNL     1      40.632 -12.908   3.047  1.00  0.00     0.082 A 
HETATM    4  C   UNL     1      41.969 -13.322   2.991  1.00  0.00     0.050 A 
HETATM    5  C   UNL     1      42.951 -12.331   2.859  1.00  0.00     0.021 A 
HETATM    6  C   UNL     1      42.602 -10.976   2.813  1.00  0.00     0.030 A 
ENDROOT
BRANCH   1   7
HETATM    7  N   UNL     1      41.027  -9.180   2.853  1.00  0.00    -0.333 N 
HETATM    8  H   UNL     1      41.286  -8.676   3.698  1.00  0.00     0.168 HD
BRANCH   7   9
HETATM    9  C   UNL     1      40.532  -8.335   1.915  1.00  0.00     0.179 C 
HETATM   10  S   UNL     1      39.049  -7.617   2.209  1.00  0.00    -0.040 SA
BRANCH   9  11
HETATM   11  N   UNL     1      41.208  -8.045   0.775  1.00  0.00    -0.299 N 
HETATM   12  C   UNL     1      41.588  -8.971  -0.183  1.00  0.00     0.257 C 
HETATM   13  O   UNL     1      42.673  -8.889  -0.754  1.00  0.00    -0.267 OA
HETATM   14  H   UNL     1      41.991  -7.426   0.936  1.00  0.00     0.171 HD
BRANCH  12  15
HETATM   15  C   UNL     1      40.642 -10.032  -0.573  1.00  0.00     0.032 A 
HETATM   16  C   UNL     1      41.103 -11.350  -0.551  1.00  0.00     0.020 A 
HETATM   17  C   UNL     1      40.223 -12.403  -0.819  1.00  0.00     0.038 A 
HETATM   18  C   UNL     1      38.879 -12.142  -1.095  1.00  0.00     0.068 A 
HETATM   19  C   UNL     1      38.428 -10.817  -1.118  1.00  0.00     0.038 A 
HETATM   20  C   UNL     1      39.299  -9.760  -0.843  1.00  0.00     0.020 A 
BRANCH  18  21
HETATM   21  O   UNL     1      37.919 -13.083  -1.351  1.00  0.00    -0.351 OA
BRANCH  21  22
HETATM   22  C   UNL     1      37.496 -13.209  -2.710  1.00  0.00     0.175 C 
BRANCH  22  23
HETATM   23  C   UNL     1      38.426 -14.195  -3.411  1.00  0.00     0.022 C 
HETATM   24  C   UNL     1      38.671 -15.433  -2.564  1.00  0.00     0.007 C 
ENDBRANCH  22  23
ENDBRANCH  21  22
ENDBRANCH  18  21
ENDBRANCH  12  15
ENDBRANCH   9  11
ENDBRANCH   7   9
ENDBRANCH   1   7
BRANCH   3  25
HETATM   25  O   UNL     1      39.574 -13.777   3.135  1.00  0.00    -0.360 OA
HETATM   26  H   UNL     1      38.874 -13.488   2.522  1.00  0.00     0.217 HD
ENDBRANCH   3  25
BRANCH   4  27
HETATM   27  C   UNL     1      42.377 -14.721   3.042  1.00  0.00     0.183 A 
HETATM   28  O   UNL     1      43.079 -15.102   4.158  1.00  0.00    -0.288 OA
HETATM   29  C   UNL     1      43.349 -16.424   3.947  1.00  0.00     0.112 A 
HETATM   30  C   UNL     1      42.785 -16.776   2.734  1.00  0.00     0.094 A 
HETATM   31  C   UNL     1      44.058 -17.282   4.788  1.00  0.00    -0.025 A 
HETATM   32  N   UNL     1      42.187 -15.682   2.158  1.00  0.00    -0.221 NA
HETATM   33  C   UNL     1      42.893 -18.100   2.294  1.00  0.00     0.041 A 
HETATM   34  C   UNL     1      43.597 -19.019   3.095  1.00  0.00    -0.059 A 
HETATM   35  C   UNL     1      44.162 -18.606   4.316  1.00  0.00     0.016 A 
HETATM   36  C   UNL     1      43.692 -20.457   2.669  1.00  0.00     0.048 C 
HETATM   37  C   UNL     1      44.701 -16.863   6.070  1.00  0.00     0.051 C 
ENDBRANCH   4  27
TORSDOF 9
ENDMDL
MODEL 8
REMARK VINA RESULT:      -7.6      2.346      3.106
REMARK  9 active torsions:
REMARK  status: ('A' for Active; 'I' for Inactive)
REMARK    1  A    between atoms: C_2  and  C_3 
REMARK    2  A    between atoms: C_3  and  O_4 
REMARK    3  A    between atoms: O_4  and  C_5 
REMARK    4  A    between atoms: C_8  and  C_9 
REMARK       I    between atoms: C_9  and  N_10 
REMARK    5  A    between atoms: N_10  and  C_11 
REMARK    6  A    between atoms: C_11  and  N_12 
REMARK    7  A    between atoms: N_12  and  C_13 
REMARK    8  A    between atoms: C_15  and  O_16 
REMARK    9  A    between atoms: C_17  and  C_18 
ROOT
HETATM    1  C   UNL     1      40.171 -11.027   2.561  1.00  0.00     0.036 A 
HETATM    2  C   UNL     1      39.333 -12.137   2.554  1.00  0.00     0.067 A 
HETATM    3  C   UNL     1      39.860 -13.432   2.646  1.00  0.00     0.082 A 
HETATM    4  C   UNL     1      41.240 -13.656   2.721  1.00  0.00     0.050 A 
HETATM    5  C   UNL     1      42.082 -12.538   2.687  1.00  0.00     0.021 A 
HETATM    6  C   UNL     1      41.555 -11.243   2.609  1.00  0.00     0.030 A 
ENDROOT
BRANCH   1   7
HETATM    7  N   UNL     1      39.749  -9.683   2.496  1.00  0.00    -0.333 N 
HETATM    8  H   UNL     1      39.494  -9.360   1.565  1.00  0.00     0.168 HD
BRANCH   7   9
HETATM    9  C   UNL     1      39.588  -8.698   3.413  1.00  0.00     0.179 C 
HETATM   10  S   UNL     1      40.537  -7.327   3.270  1.00  0.00    -0.040 SA
BRANCH   9  11
HETATM   11  N   UNL     1      38.676  -8.786   4.414  1.00  0.00    -0.299 N 
HETATM   12  C   UNL     1      38.779  -9.622   5.514  1.00  0.00     0.257 C 
HETATM   13  O   UNL     1      37.793 -10.194   5.973  1.00  0.00    -0.267 OA
HETATM   14  H   UNL     1      37.727  -8.841   4.070  1.00  0.00     0.171 HD
BRANCH  12  15
HETATM   15  C   UNL     1      40.081  -9.769   6.187  1.00  0.00     0.032 A 
HETATM   16  C   UNL     1      40.734 -10.998   6.071  1.00  0.00     0.020 A 
HETATM   17  C   UNL     1      42.015 -11.164   6.607  1.00  0.00     0.038 A 
HETATM   18  C   UNL     1      42.651 -10.098   7.248  1.00  0.00     0.068 A 
HETATM   19  C   UNL     1      41.986  -8.870   7.361  1.00  0.00     0.038 A 
HETATM   20  C   UNL     1      40.710  -8.695   6.820  1.00  0.00     0.020 A 
BRANCH  18  21
HETATM   21  O   UNL     1      43.905 -10.127   7.792  1.00  0.00    -0.351 OA
BRANCH  21  22
HETATM   22  C   UNL     1      44.776 -11.163   7.335  1.00  0.00     0.175 C 
BRANCH  22  23
HETATM   23  C   UNL     1      46.214 -10.667   7.457  1.00  0.00     0.022 C 
HETATM   24  C   UNL     1      46.274  -9.254   8.012  1.00  0.00     0.007 C 
ENDBRANCH  22  23
ENDBRANCH  21  22
ENDBRANCH  18  21
ENDBRANCH  12  15
ENDBRANCH   9  11
ENDBRANCH   7   9
ENDBRANCH   1   7
BRANCH   3  25
HETATM   25  O   UNL     1      38.930 -14.440   2.629  1.00  0.00    -0.360 OA
HETATM   26  H   UNL     1      38.489 -14.452   1.760  1.00  0.00     0.217 HD
ENDBRANCH   3  25
BRANCH   4  27
HETATM   27  C   UNL     1      41.832 -14.986   2.810  1.00  0.00     0.183 A 
HETATM   28  O   UNL     1      42.622 -15.220   3.907  1.00  0.00    -0.288 OA
HETATM   29  C   UNL     1      43.057 -16.503   3.739  1.00  0.00     0.112 A 
HETATM   30  C   UNL     1      42.497 -16.982   2.568  1.00  0.00     0.094 A 
HETATM   31  C   UNL     1      43.906 -17.221   4.580  1.00  0.00    -0.025 A 
HETATM   32  N   UNL     1      41.737 -16.004   1.975  1.00  0.00    -0.221 NA
HETATM   33  C   UNL     1      42.763 -18.299   2.177  1.00  0.00     0.041 A 
HETATM   34  C   UNL     1      43.614 -19.080   2.982  1.00  0.00    -0.059 A 
HETATM   35  C   UNL     1      44.166 -18.540   4.158  1.00  0.00     0.016 A 
HETATM   36  C   UNL     1      43.883 -20.511   2.611  1.00  0.00     0.048 C 
HETATM   37  C   UNL     1      44.538 -16.663   5.814  1.00  0.00     0.051 C 
ENDBRANCH   4  27
TORSDOF 9
ENDMDL
MODEL 9
REMARK VINA RESULT:      -7.4      3.627      8.138
REMARK  9 active torsions:
REMARK  status: ('A' for Active; 'I' for Inactive)
REMARK    1  A    between atoms: C_2  and  C_3 
REMARK    2  A    between atoms: C_3  and  O_4 
REMARK    3  A    between atoms: O_4  and  C_5 
REMARK    4  A    between atoms: C_8  and  C_9 
REMARK       I    between atoms: C_9  and  N_10 
REMARK    5  A    between atoms: N_10  and  C_11 
REMARK    6  A    between atoms: C_11  and  N_12 
REMARK    7  A    between atoms: N_12  and  C_13 
REMARK    8  A    between atoms: C_15  and  O_16 
REMARK    9  A    between atoms: C_17  and  C_18 
ROOT
HETATM    1  C   UNL     1      41.129 -12.438   4.046  1.00  0.00     0.036 A 
HETATM    2  C   UNL     1      40.004 -12.313   3.237  1.00  0.00     0.067 A 
HETATM    3  C   UNL     1      40.070 -11.623   2.020  1.00  0.00     0.082 A 
HETATM    4  C   UNL     1      41.256 -11.016   1.587  1.00  0.00     0.050 A 
HETATM    5  C   UNL     1      42.376 -11.110   2.423  1.00  0.00     0.021 A 
HETATM    6  C   UNL     1      42.313 -11.811   3.633  1.00  0.00     0.030 A 
ENDROOT
BRANCH   1   7
HETATM    7  N   UNL     1      41.180 -13.126   5.275  1.00  0.00    -0.333 N 
HETATM    8  H   UNL     1      40.895 -12.578   6.084  1.00  0.00     0.168 HD
BRANCH   7   9
HETATM    9  C   UNL     1      41.520 -14.388   5.638  1.00  0.00     0.179 C 
HETATM   10  S   UNL     1      40.454 -15.243   6.603  1.00  0.00    -0.040 SA
BRANCH   9  11
HETATM   11  N   UNL     1      42.674 -14.971   5.224  1.00  0.00    -0.299 N 
HETATM   12  C   UNL     1      42.774 -15.904   4.205  1.00  0.00     0.257 C 
HETATM   13  O   UNL     1      43.543 -16.859   4.289  1.00  0.00    -0.267 OA
HETATM   14  H   UNL     1      43.245 -15.290   5.995  1.00  0.00     0.171 HD
BRANCH  12  15
HETATM   15  C   UNL     1      41.995 -15.707   2.970  1.00  0.00     0.032 A 
HETATM   16  C   UNL     1      40.665 -16.135   2.968  1.00  0.00     0.020 A 
HETATM   17  C   UNL     1      39.851 -15.887   1.859  1.00  0.00     0.038 A 
HETATM   18  C   UNL     1      40.361 -15.200   0.755  1.00  0.00     0.068 A 
HETATM   19  C   UNL     1      41.696 -14.778   0.765  1.00  0.00     0.038 A 
HETATM   20  C   UNL     1      42.512 -15.014   1.874  1.00  0.00     0.020 A 
BRANCH  18  21
HETATM   21  O   UNL     1      39.663 -14.879  -0.378  1.00  0.00    -0.351 OA
BRANCH  21  22
HETATM   22  C   UNL     1      40.127 -13.746  -1.114  1.00  0.00     0.175 C 
BRANCH  22  23
HETATM   23  C   UNL     1      40.073 -14.088  -2.600  1.00  0.00     0.022 C 
HETATM   24  C   UNL     1      38.708 -14.619  -3.003  1.00  0.00     0.007 C 
ENDBRANCH  22  23
ENDBRANCH  21  22
ENDBRANCH  18  21
ENDBRANCH  12  15
ENDBRANCH   9  11
ENDBRANCH   7   9
ENDBRANCH   1   7
BRANCH   3  25
HETATM   25  O   UNL     1      38.894 -11.571   1.316  1.00  0.00    -0.360 OA
HETATM   26  H   UNL     1      38.164 -11.375   1.932  1.00  0.00     0.217 HD
ENDBRANCH   3  25
BRANCH   4  27
HETATM   27  C   UNL     1      41.368 -10.282   0.332  1.00  0.00     0.183 A 
HETATM   28  O   UNL     1      40.426 -10.575  -0.622  1.00  0.00    -0.288 OA
HETATM   29  C   UNL     1      40.765  -9.782  -1.681  1.00  0.00     0.112 A 
HETATM   30  C   UNL     1      41.873  -9.041  -1.308  1.00  0.00     0.094 A 
HETATM   31  C   UNL     1      40.125  -9.710  -2.917  1.00  0.00    -0.025 A 
HETATM   32  N   UNL     1      42.260  -9.382  -0.036  1.00  0.00    -0.221 NA
HETATM   33  C   UNL     1      42.408  -8.117  -2.213  1.00  0.00     0.041 A 
HETATM   34  C   UNL     1      41.808  -7.995  -3.481  1.00  0.00    -0.059 A 
HETATM   35  C   UNL     1      40.689  -8.780  -3.813  1.00  0.00     0.016 A 
HETATM   36  C   UNL     1      42.333  -6.980  -4.457  1.00  0.00     0.048 C 
HETATM   37  C   UNL     1      38.959 -10.558  -3.312  1.00  0.00     0.051 C 
ENDBRANCH   4  27
TORSDOF 9
ENDMDL
MODEL 10
REMARK VINA RESULT:      -7.4      3.735      8.267
REMARK  9 active torsions:
REMARK  status: ('A' for Active; 'I' for Inactive)
REMARK    1  A    between atoms: C_2  and  C_3 
REMARK    2  A    between atoms: C_3  and  O_4 
REMARK    3  A    between atoms: O_4  and  C_5 
REMARK    4  A    between atoms: C_8  and  C_9 
REMARK       I    between atoms: C_9  and  N_10 
REMARK    5  A    between atoms: N_10  and  C_11 
REMARK    6  A    between atoms: C_11  and  N_12 
REMARK    7  A    between atoms: N_12  and  C_13 
REMARK    8  A    between atoms: C_15  and  O_16 
REMARK    9  A    between atoms: C_17  and  C_18 
ROOT
HETATM    1  C   UNL     1      39.556 -12.007   4.384  1.00  0.00     0.036 A 
HETATM    2  C   UNL     1      39.221 -12.108   5.731  1.00  0.00     0.067 A 
HETATM    3  C   UNL     1      39.659 -11.148   6.651  1.00  0.00     0.082 A 
HETATM    4  C   UNL     1      40.466 -10.073   6.259  1.00  0.00     0.050 A 
HETATM    5  C   UNL     1      40.834  -9.996   4.909  1.00  0.00     0.021 A 
HETATM    6  C   UNL     1      40.384 -10.949   3.987  1.00  0.00     0.030 A 
ENDROOT
BRANCH   1   7
HETATM    7  N   UNL     1      39.152 -12.901   3.372  1.00  0.00    -0.333 N 
HETATM    8  H   UNL     1      38.146 -12.970   3.239  1.00  0.00     0.168 HD
BRANCH   7   9
HETATM    9  C   UNL     1      39.814 -13.705   2.502  1.00  0.00     0.179 C 
HETATM   10  S   UNL     1      39.833 -13.268   0.887  1.00  0.00    -0.040 SA
BRANCH   9  11
HETATM   11  N   UNL     1      40.467 -14.822   2.908  1.00  0.00    -0.299 N 
HETATM   12  C   UNL     1      41.837 -14.922   3.092  1.00  0.00     0.257 C 
HETATM   13  O   UNL     1      42.450 -15.939   2.775  1.00  0.00    -0.267 OA
HETATM   14  H   UNL     1      40.159 -15.651   2.419  1.00  0.00     0.171 HD
BRANCH  12  15
HETATM   15  C   UNL     1      42.557 -13.814   3.743  1.00  0.00     0.032 A 
HETATM   16  C   UNL     1      42.631 -13.821   5.138  1.00  0.00     0.020 A 
HETATM   17  C   UNL     1      43.382 -12.849   5.805  1.00  0.00     0.038 A 
HETATM   18  C   UNL     1      44.072 -11.875   5.078  1.00  0.00     0.068 A 
HETATM   19  C   UNL     1      43.989 -11.874   3.681  1.00  0.00     0.038 A 
HETATM   20  C   UNL     1      43.247 -12.849   3.008  1.00  0.00     0.020 A 
BRANCH  18  21
HETATM   21  O   UNL     1      44.854 -10.887   5.610  1.00  0.00    -0.351 OA
BRANCH  21  22
HETATM   22  C   UNL     1      45.672 -11.250   6.724  1.00  0.00     0.175 C 
BRANCH  22  23
HETATM   23  C   UNL     1      45.174 -10.493   7.951  1.00  0.00     0.022 C 
HETATM   24  C   UNL     1      45.993  -9.239   8.207  1.00  0.00     0.007 C 
ENDBRANCH  22  23
ENDBRANCH  21  22
ENDBRANCH  18  21
ENDBRANCH  12  15
ENDBRANCH   9  11
ENDBRANCH   7   9
ENDBRANCH   1   7
BRANCH   3  25
HETATM   25  O   UNL     1      39.261 -11.361   7.947  1.00  0.00    -0.360 OA
HETATM   26  H   UNL     1      39.222 -10.505   8.413  1.00  0.00     0.217 HD
ENDBRANCH   3  25
BRANCH   4  27
HETATM   27  C   UNL     1      40.951  -9.055   7.183  1.00  0.00     0.183 A 
HETATM   28  O   UNL     1      41.634  -9.517   8.281  1.00  0.00    -0.288 OA
HETATM   29  C   UNL     1      41.952  -8.386   8.977  1.00  0.00     0.112 A 
HETATM   30  C   UNL     1      41.467  -7.306   8.261  1.00  0.00     0.094 A 
HETATM   31  C   UNL     1      42.642  -8.308  10.186  1.00  0.00    -0.025 A 
HETATM   32  N   UNL     1      40.815  -7.743   7.134  1.00  0.00    -0.221 NA
HETATM   33  C   UNL     1      41.689  -6.013   8.747  1.00  0.00     0.041 A 
HETATM   34  C   UNL     1      42.380  -5.863   9.964  1.00  0.00    -0.059 A 
HETATM   35  C   UNL     1      42.844  -6.996  10.659  1.00  0.00     0.016 A 
HETATM   36  C   UNL     1      42.672  -4.486  10.490  1.00  0.00     0.048 C 
HETATM   37  C   UNL     1      43.113  -9.493  10.964  1.00  0.00     0.051 C 
ENDBRANCH   4  27
TORSDOF 9
ENDMDL
