MODEL 1
REMARK VINA RESULT:      -8.2      0.000      0.000
REMARK  7 active torsions:
REMARK  status: ('A' for Active; 'I' for Inactive)
REMARK    1  A    between atoms: C_2  and  N_3 
REMARK    2  A    between atoms: N_3  and  C_4 
REMARK    3  A    between atoms: C_6  and  N_7 
REMARK    4  A    between atoms: N_7  and  C_8 
REMARK    5  A    between atoms: C_8  and  C_9 
REMARK    6  A    between atoms: C_9  and  C_10 
REMARK    7  A    between atoms: C_12  and  O_13 
ROOT
HETATM    1  C   UNL     1      43.655 -16.632   4.319  1.00  0.00     0.119 A 
HETATM    2  N   UNL     1      43.274 -15.734   3.391  1.00  0.00    -0.207 NA
HETATM    3  C   UNL     1      42.991 -16.171   2.154  1.00  0.00     0.181 A 
HETATM    4  N   UNL     1      43.036 -17.460   1.827  1.00  0.00    -0.330 N 
HETATM    5  H   UNL     1      42.742 -17.709   0.892  1.00  0.00     0.168 HD
HETATM    6  C   UNL     1      43.390 -18.397   2.713  1.00  0.00     0.048 A 
HETATM    7  C   UNL     1      43.722 -18.011   4.025  1.00  0.00     0.031 A 
HETATM    8  C   UNL     1      43.419 -19.747   2.331  1.00  0.00     0.030 A 
HETATM    9  C   UNL     1      43.779 -20.728   3.254  1.00  0.00     0.002 A 
HETATM   10  C   UNL     1      44.102 -20.369   4.559  1.00  0.00     0.001 A 
HETATM   11  C   UNL     1      44.071 -19.027   4.945  1.00  0.00     0.017 A 
ENDROOT
BRANCH   3  12
HETATM   12  N   UNL     1      42.610 -15.296   1.142  1.00  0.00    -0.262 NA
HETATM   13  H   UNL     1      43.370 -14.702   0.822  1.00  0.00     0.130 HD
BRANCH  12  14
HETATM   14  C   UNL     1      41.400 -14.511   1.434  1.00  0.00     0.100 C 
BRANCH  14  15
HETATM   15  C   UNL     1      40.215 -15.068   0.635  1.00  0.00     0.053 C 
BRANCH  15  16
HETATM   16  C   UNL     1      39.997 -14.308  -0.648  1.00  0.00    -0.054 A 
HETATM   17  C   UNL     1      40.557 -13.029  -0.821  1.00  0.00     0.044 A 
HETATM   18  C   UNL     1      40.340 -12.313  -2.001  1.00  0.00     0.068 A 
HETATM   19  C   UNL     1      39.554 -12.877  -3.008  1.00  0.00     0.037 A 
HETATM   20  C   UNL     1      38.993 -14.143  -2.846  1.00  0.00     0.003 A 
HETATM   21  C   UNL     1      39.212 -14.857  -1.669  1.00  0.00     0.007 A 
BRANCH  18  22
HETATM   22  O   UNL     1      40.826 -11.068  -2.288  1.00  0.00    -0.356 OA
HETATM   23  C   UNL     1      41.417 -10.337  -1.223  1.00  0.00     0.210 C 
ENDBRANCH  18  22
ENDBRANCH  15  16
ENDBRANCH  14  15
ENDBRANCH  12  14
ENDBRANCH   3  12
BRANCH   1  24
HETATM   24  N   UNL     1      43.927 -16.189   5.615  1.00  0.00    -0.273 NA
HETATM   25  H   UNL     1      44.906 -15.945   5.742  1.00  0.00     0.129 HD
BRANCH  24  26
HETATM   26  C   UNL     1      43.030 -15.208   6.239  1.00  0.00     0.053 C 
HETATM   27  C   UNL     1      43.785 -13.927   6.591  1.00  0.00     0.026 C 
HETATM   28  C   UNL     1      42.453 -15.841   7.507  1.00  0.00     0.026 C 
ENDBRANCH  24  26
ENDBRANCH   1  24
TORSDOF 7
ENDMDL
MODEL 2
REMARK VINA RESULT:      -8.1      2.624      4.011
REMARK  7 active torsions:
REMARK  status: ('A' for Active; 'I' for Inactive)
REMARK    1  A    between atoms: C_2  and  N_3 
REMARK    2  A    between atoms: N_3  and  C_4 
REMARK    3  A    between atoms: C_6  and  N_7 
REMARK    4  A    between atoms: N_7  and  C_8 
REMARK    5  A    between atoms: C_8  and  C_9 
REMARK    6  A    between atoms: C_9  and  C_10 
REMARK    7  A    between atoms: C_12  and  O_13 
ROOT
HETATM    1  C   UNL     1      43.592 -16.821   4.499  1.00  0.00     0.119 A 
HETATM    2  N   UNL     1      43.287 -15.963   3.507  1.00  0.00    -0.207 NA
HETATM    3  C   UNL     1      43.142 -16.446   2.263  1.00  0.00     0.181 A 
HETATM    4  N   UNL     1      43.252 -17.743   1.987  1.00  0.00    -0.330 N 
HETATM    5  H   UNL     1      43.061 -18.028   1.035  1.00  0.00     0.168 HD
HETATM    6  C   UNL     1      43.535 -18.642   2.934  1.00  0.00     0.048 A 
HETATM    7  C   UNL     1      43.721 -18.206   4.260  1.00  0.00     0.031 A 
HETATM    8  C   UNL     1      43.635 -20.002   2.603  1.00  0.00     0.030 A 
HETATM    9  C   UNL     1      43.922 -20.944   3.591  1.00  0.00     0.002 A 
HETATM   10  C   UNL     1      44.101 -20.536   4.909  1.00  0.00     0.001 A 
HETATM   11  C   UNL     1      43.999 -19.183   5.244  1.00  0.00     0.017 A 
ENDROOT
BRANCH   3  12
HETATM   12  N   UNL     1      42.846 -15.613   1.189  1.00  0.00    -0.262 NA
HETATM   13  H   UNL     1      43.585 -14.945   0.988  1.00  0.00     0.130 HD
BRANCH  12  14
HETATM   14  C   UNL     1      41.532 -14.957   1.267  1.00  0.00     0.100 C 
BRANCH  14  15
HETATM   15  C   UNL     1      41.709 -13.434   1.221  1.00  0.00     0.053 C 
BRANCH  15  16
HETATM   16  C   UNL     1      41.944 -12.856   2.594  1.00  0.00    -0.054 A 
HETATM   17  C   UNL     1      43.205 -12.338   2.940  1.00  0.00     0.044 A 
HETATM   18  C   UNL     1      43.432 -11.821   4.218  1.00  0.00     0.068 A 
HETATM   19  C   UNL     1      42.395 -11.829   5.153  1.00  0.00     0.037 A 
HETATM   20  C   UNL     1      41.142 -12.342   4.820  1.00  0.00     0.003 A 
HETATM   21  C   UNL     1      40.916 -12.855   3.544  1.00  0.00     0.007 A 
BRANCH  18  22
HETATM   22  O   UNL     1      44.607 -11.292   4.676  1.00  0.00    -0.356 OA
HETATM   23  C   UNL     1      44.857 -11.371   6.072  1.00  0.00     0.210 C 
ENDBRANCH  18  22
ENDBRANCH  15  16
ENDBRANCH  14  15
ENDBRANCH  12  14
ENDBRANCH   3  12
BRANCH   1  24
HETATM   24  N   UNL     1      43.719 -16.331   5.800  1.00  0.00    -0.273 NA
HETATM   25  H   UNL     1      44.678 -16.074   6.024  1.00  0.00     0.129 HD
BRANCH  24  26
HETATM   26  C   UNL     1      42.755 -15.337   6.288  1.00  0.00     0.053 C 
HETATM   27  C   UNL     1      43.310 -14.589   7.499  1.00  0.00     0.026 C 
HETATM   28  C   UNL     1      41.473 -16.077   6.672  1.00  0.00     0.026 C 
ENDBRANCH  24  26
ENDBRANCH   1  24
TORSDOF 7
ENDMDL
MODEL 3
REMARK VINA RESULT:      -8.1      2.241      4.978
REMARK  7 active torsions:
REMARK  status: ('A' for Active; 'I' for Inactive)
REMARK    1  A    between atoms: C_2  and  N_3 
REMARK    2  A    between atoms: N_3  and  C_4 
REMARK    3  A    between atoms: C_6  and  N_7 
REMARK    4  A    between atoms: N_7  and  C_8 
REMARK    5  A    between atoms: C_8  and  C_9 
REMARK    6  A    between atoms: C_9  and  C_10 
REMARK    7  A    between atoms: C_12  and  O_13 
ROOT
HETATM    1  C   UNL     1      43.089 -16.711   3.227  1.00  0.00     0.119 A 
HETATM    2  N   UNL     1      43.420 -15.952   4.288  1.00  0.00    -0.207 NA
HETATM    3  C   UNL     1      43.952 -16.551   5.364  1.00  0.00     0.181 A 
HETATM    4  N   UNL     1      44.198 -17.858   5.402  1.00  0.00    -0.330 N 
HETATM    5  H   UNL     1      44.663 -18.216   6.226  1.00  0.00     0.168 HD
HETATM    6  C   UNL     1      43.906 -18.657   4.371  1.00  0.00     0.048 A 
HETATM    7  C   UNL     1      43.326 -18.102   3.215  1.00  0.00     0.031 A 
HETATM    8  C   UNL     1      44.187 -20.030   4.447  1.00  0.00     0.030 A 
HETATM    9  C   UNL     1      43.893 -20.866   3.371  1.00  0.00     0.002 A 
HETATM   10  C   UNL     1      43.327 -20.337   2.215  1.00  0.00     0.001 A 
HETATM   11  C   UNL     1      43.049 -18.970   2.133  1.00  0.00     0.017 A 
ENDROOT
BRANCH   3  12
HETATM   12  N   UNL     1      44.300 -15.829   6.501  1.00  0.00    -0.262 NA
HETATM   13  H   UNL     1      44.763 -16.396   7.206  1.00  0.00     0.130 HD
BRANCH  12  14
HETATM   14  C   UNL     1      43.205 -15.037   7.083  1.00  0.00     0.100 C 
BRANCH  14  15
HETATM   15  C   UNL     1      43.471 -13.542   6.861  1.00  0.00     0.053 C 
BRANCH  15  16
HETATM   16  C   UNL     1      42.595 -12.973   5.774  1.00  0.00    -0.054 A 
HETATM   17  C   UNL     1      43.167 -12.313   4.672  1.00  0.00     0.044 A 
HETATM   18  C   UNL     1      42.358 -11.766   3.673  1.00  0.00     0.068 A 
HETATM   19  C   UNL     1      40.970 -11.875   3.783  1.00  0.00     0.037 A 
HETATM   20  C   UNL     1      40.392 -12.526   4.872  1.00  0.00     0.003 A 
HETATM   21  C   UNL     1      41.201 -13.073   5.866  1.00  0.00     0.007 A 
BRANCH  18  22
HETATM   22  O   UNL     1      42.790 -11.103   2.559  1.00  0.00    -0.356 OA
HETATM   23  C   UNL     1      41.800 -10.620   1.662  1.00  0.00     0.210 C 
ENDBRANCH  18  22
ENDBRANCH  15  16
ENDBRANCH  14  15
ENDBRANCH  12  14
ENDBRANCH   3  12
BRANCH   1  24
HETATM   24  N   UNL     1      42.559 -16.093   2.093  1.00  0.00    -0.273 NA
HETATM   25  H   UNL     1      42.356 -16.758   1.349  1.00  0.00     0.129 HD
BRANCH  24  26
HETATM   26  C   UNL     1      41.486 -15.103   2.253  1.00  0.00     0.053 C 
HETATM   27  C   UNL     1      40.177 -15.780   2.658  1.00  0.00     0.026 C 
HETATM   28  C   UNL     1      41.310 -14.383   0.915  1.00  0.00     0.026 C 
ENDBRANCH  24  26
ENDBRANCH   1  24
TORSDOF 7
ENDMDL
MODEL 4
REMARK VINA RESULT:      -8.0      3.953      8.129
REMARK  7 active torsions:
REMARK  status: ('A' for Active; 'I' for Inactive)
REMARK    1  A    between atoms: C_2  and  N_3 
REMARK    2  A    between atoms: N_3  and  C_4 
REMARK    3  A    between atoms: C_6  and  N_7 
REMARK    4  A    between atoms: N_7  and  C_8 
REMARK    5  A    between atoms: C_8  and  C_9 
REMARK    6  A    between atoms: C_9  and  C_10 
REMARK    7  A    between atoms: C_12  and  O_13 
ROOT
HETATM    1  C   UNL     1      42.507 -15.120   2.724  1.00  0.00     0.119 A 
HETATM    2  N   UNL     1      42.412 -14.104   3.601  1.00  0.00    -0.207 NA
HETATM    3  C   UNL     1      42.835 -14.300   4.859  1.00  0.00     0.181 A 
HETATM    4  N   UNL     1      43.378 -15.449   5.256  1.00  0.00    -0.330 N 
HETATM    5  H   UNL     1      43.732 -15.488   6.203  1.00  0.00     0.168 HD
HETATM    6  C   UNL     1      43.514 -16.485   4.423  1.00  0.00     0.048 A 
HETATM    7  C   UNL     1      43.073 -16.359   3.093  1.00  0.00     0.031 A 
HETATM    8  C   UNL     1      44.098 -17.678   4.878  1.00  0.00     0.030 A 
HETATM    9  C   UNL     1      44.250 -18.759   4.011  1.00  0.00     0.002 A 
HETATM   10  C   UNL     1      43.829 -18.653   2.689  1.00  0.00     0.001 A 
HETATM   11  C   UNL     1      43.250 -17.467   2.230  1.00  0.00     0.017 A 
ENDROOT
BRANCH   3  12
HETATM   12  N   UNL     1      42.749 -13.299   5.821  1.00  0.00    -0.262 NA
HETATM   13  H   UNL     1      42.497 -12.394   5.433  1.00  0.00     0.130 HD
BRANCH  12  14
HETATM   14  C   UNL     1      43.919 -13.198   6.708  1.00  0.00     0.100 C 
BRANCH  14  15
HETATM   15  C   UNL     1      44.747 -11.961   6.337  1.00  0.00     0.053 C 
BRANCH  15  16
HETATM   16  C   UNL     1      44.942 -11.044   7.517  1.00  0.00    -0.054 A 
HETATM   17  C   UNL     1      44.051 -11.084   8.604  1.00  0.00     0.044 A 
HETATM   18  C   UNL     1      44.217 -10.220   9.690  1.00  0.00     0.068 A 
HETATM   19  C   UNL     1      45.275  -9.310   9.684  1.00  0.00     0.037 A 
HETATM   20  C   UNL     1      46.164  -9.261   8.610  1.00  0.00     0.003 A 
HETATM   21  C   UNL     1      45.998 -10.124   7.528  1.00  0.00     0.007 A 
BRANCH  18  22
HETATM   22  O   UNL     1      43.421 -10.161  10.800  1.00  0.00    -0.356 OA
HETATM   23  C   UNL     1      43.508  -8.991  11.602  1.00  0.00     0.210 C 
ENDBRANCH  18  22
ENDBRANCH  15  16
ENDBRANCH  14  15
ENDBRANCH  12  14
ENDBRANCH   3  12
BRANCH   1  24
HETATM   24  N   UNL     1      42.093 -14.916   1.406  1.00  0.00    -0.273 NA
HETATM   25  H   UNL     1      42.490 -15.601   0.766  1.00  0.00     0.129 HD
BRANCH  24  26
HETATM   26  C   UNL     1      40.672 -14.667   1.133  1.00  0.00     0.053 C 
HETATM   27  C   UNL     1      39.848 -15.940   1.326  1.00  0.00     0.026 C 
HETATM   28  C   UNL     1      40.552 -14.180  -0.312  1.00  0.00     0.026 C 
ENDBRANCH  24  26
ENDBRANCH   1  24
TORSDOF 7
ENDMDL
MODEL 5
REMARK VINA RESULT:      -7.7      1.770      3.796
REMARK  7 active torsions:
REMARK  status: ('A' for Active; 'I' for Inactive)
REMARK    1  A    between atoms: C_2  and  N_3 
REMARK    2  A    between atoms: N_3  and  C_4 
REMARK    3  A    between atoms: C_6  and  N_7 
REMARK    4  A    between atoms: N_7  and  C_8 
REMARK    5  A    between atoms: C_8  and  C_9 
REMARK    6  A    between atoms: C_9  and  C_10 
REMARK    7  A    between atoms: C_12  and  O_13 
ROOT
HETATM    1  C   UNL     1      43.043 -17.534   3.310  1.00  0.00     0.119 A 
HETATM    2  N   UNL     1      42.025 -17.262   2.473  1.00  0.00    -0.207 NA
HETATM    3  C   UNL     1      41.211 -16.235   2.764  1.00  0.00     0.181 A 
HETATM    4  N   UNL     1      41.401 -15.457   3.827  1.00  0.00    -0.330 N 
HETATM    5  H   UNL     1      40.781 -14.665   3.934  1.00  0.00     0.168 HD
HETATM    6  C   UNL     1      42.405 -15.669   4.682  1.00  0.00     0.048 A 
HETATM    7  C   UNL     1      43.287 -16.742   4.452  1.00  0.00     0.031 A 
HETATM    8  C   UNL     1      42.575 -14.822   5.788  1.00  0.00     0.030 A 
HETATM    9  C   UNL     1      43.628 -15.034   6.678  1.00  0.00     0.002 A 
HETATM   10  C   UNL     1      44.516 -16.083   6.465  1.00  0.00     0.001 A 
HETATM   11  C   UNL     1      44.354 -16.927   5.363  1.00  0.00     0.017 A 
ENDROOT
BRANCH   3  12
HETATM   12  N   UNL     1      40.129 -15.910   1.953  1.00  0.00    -0.262 NA
HETATM   13  H   UNL     1      39.983 -16.577   1.199  1.00  0.00     0.130 HD
BRANCH  12  14
HETATM   14  C   UNL     1      40.130 -14.526   1.455  1.00  0.00     0.100 C 
BRANCH  14  15
HETATM   15  C   UNL     1      40.618 -14.497   0.001  1.00  0.00     0.053 C 
BRANCH  15  16
HETATM   16  C   UNL     1      39.542 -14.020  -0.942  1.00  0.00    -0.054 A 
HETATM   17  C   UNL     1      38.876 -12.804  -0.705  1.00  0.00     0.044 A 
HETATM   18  C   UNL     1      37.864 -12.370  -1.565  1.00  0.00     0.068 A 
HETATM   19  C   UNL     1      37.513 -13.161  -2.661  1.00  0.00     0.037 A 
HETATM   20  C   UNL     1      38.165 -14.369  -2.904  1.00  0.00     0.003 A 
HETATM   21  C   UNL     1      39.176 -14.800  -2.046  1.00  0.00     0.007 A 
BRANCH  18  22
HETATM   22  O   UNL     1      37.145 -11.214  -1.444  1.00  0.00    -0.356 OA
HETATM   23  C   UNL     1      37.108 -10.601  -0.163  1.00  0.00     0.210 C 
ENDBRANCH  18  22
ENDBRANCH  15  16
ENDBRANCH  14  15
ENDBRANCH  12  14
ENDBRANCH   3  12
BRANCH   1  24
HETATM   24  N   UNL     1      43.909 -18.584   3.001  1.00  0.00    -0.273 NA
HETATM   25  H   UNL     1      44.786 -18.525   3.514  1.00  0.00     0.129 HD
BRANCH  24  26
HETATM   26  C   UNL     1      43.386 -19.956   2.963  1.00  0.00     0.053 C 
HETATM   27  C   UNL     1      43.994 -20.802   4.081  1.00  0.00     0.026 C 
HETATM   28  C   UNL     1      43.743 -20.554   1.601  1.00  0.00     0.026 C 
ENDBRANCH  24  26
ENDBRANCH   1  24
TORSDOF 7
ENDMDL
MODEL 6
REMARK VINA RESULT:      -7.7      3.450      8.522
REMARK  7 active torsions:
REMARK  status: ('A' for Active; 'I' for Inactive)
REMARK    1  A    between atoms: C_2  and  N_3 
REMARK    2  A    between atoms: N_3  and  C_4 
REMARK    3  A    between atoms: C_6  and  N_7 
REMARK    4  A    between atoms: N_7  and  C_8 
REMARK    5  A    between atoms: C_8  and  C_9 
REMARK    6  A    between atoms: C_9  and  C_10 
REMARK    7  A    between atoms: C_12  and  O_13 
ROOT
HETATM    1  C   UNL     1      39.213 -12.067  -0.094  1.00  0.00     0.119 A 
HETATM    2  N   UNL     1      40.299 -12.415   0.620  1.00  0.00    -0.207 NA
HETATM    3  C   UNL     1      40.928 -13.560   0.313  1.00  0.00     0.181 A 
HETATM    4  N   UNL     1      40.538 -14.338  -0.693  1.00  0.00    -0.330 N 
HETATM    5  H   UNL     1      41.110 -15.148  -0.898  1.00  0.00     0.168 HD
HETATM    6  C   UNL     1      39.478 -14.032  -1.447  1.00  0.00     0.048 A 
HETATM    7  C   UNL     1      38.756 -12.857  -1.170  1.00  0.00     0.031 A 
HETATM    8  C   UNL     1      39.103 -14.876  -2.504  1.00  0.00     0.030 A 
HETATM    9  C   UNL     1      38.002 -14.556  -3.298  1.00  0.00     0.002 A 
HETATM   10  C   UNL     1      37.280 -13.394  -3.048  1.00  0.00     0.001 A 
HETATM   11  C   UNL     1      37.651 -12.549  -1.999  1.00  0.00     0.017 A 
ENDROOT
BRANCH   3  12
HETATM   12  N   UNL     1      42.045 -13.990   1.022  1.00  0.00    -0.262 NA
HETATM   13  H   UNL     1      42.865 -14.118   0.435  1.00  0.00     0.130 HD
BRANCH  12  14
HETATM   14  C   UNL     1      41.812 -15.161   1.883  1.00  0.00     0.100 C 
BRANCH  14  15
HETATM   15  C   UNL     1      42.911 -16.205   1.649  1.00  0.00     0.053 C 
BRANCH  15  16
HETATM   16  C   UNL     1      43.330 -16.874   2.933  1.00  0.00    -0.054 A 
HETATM   17  C   UNL     1      43.691 -18.233   2.942  1.00  0.00     0.044 A 
HETATM   18  C   UNL     1      44.059 -18.862   4.134  1.00  0.00     0.068 A 
HETATM   19  C   UNL     1      44.059 -18.128   5.322  1.00  0.00     0.037 A 
HETATM   20  C   UNL     1      43.701 -16.780   5.325  1.00  0.00     0.003 A 
HETATM   21  C   UNL     1      43.336 -16.154   4.134  1.00  0.00     0.007 A 
BRANCH  18  22
HETATM   22  O   UNL     1      44.428 -20.171   4.274  1.00  0.00    -0.356 OA
HETATM   23  C   UNL     1      43.884 -20.887   5.374  1.00  0.00     0.210 C 
ENDBRANCH  18  22
ENDBRANCH  15  16
ENDBRANCH  14  15
ENDBRANCH  12  14
ENDBRANCH   3  12
BRANCH   1  24
HETATM   24  N   UNL     1      38.567 -10.864   0.202  1.00  0.00    -0.273 NA
HETATM   25  H   UNL     1      38.259 -10.376  -0.636  1.00  0.00     0.129 HD
BRANCH  24  26
HETATM   26  C   UNL     1      37.549 -10.840   1.259  1.00  0.00     0.053 C 
HETATM   27  C   UNL     1      36.263 -10.180   0.762  1.00  0.00     0.026 C 
HETATM   28  C   UNL     1      38.119 -10.052   2.440  1.00  0.00     0.026 C 
ENDBRANCH  24  26
ENDBRANCH   1  24
TORSDOF 7
ENDMDL
MODEL 7
REMARK VINA RESULT:      -7.5      3.545      8.254
REMARK  7 active torsions:
REMARK  status: ('A' for Active; 'I' for Inactive)
REMARK    1  A    between atoms: C_2  and  N_3 
REMARK    2  A    between atoms: N_3  and  C_4 
REMARK    3  A    between atoms: C_6  and  N_7 
REMARK    4  A    between atoms: N_7  and  C_8 
REMARK    5  A    between atoms: C_8  and  C_9 
REMARK    6  A    between atoms: C_9  and  C_10 
REMARK    7  A    between atoms: C_12  and  O_13 
ROOT
HETATM    1  C   UNL     1      40.845 -13.697   3.952  1.00  0.00     0.119 A 
HETATM    2  N   UNL     1      41.436 -14.492   4.864  1.00  0.00    -0.207 NA
HETATM    3  C   UNL     1      41.363 -14.149   6.159  1.00  0.00     0.181 A 
HETATM    4  N   UNL     1      40.695 -13.075   6.573  1.00  0.00    -0.330 N 
HETATM    5  H   UNL     1      40.634 -12.928   7.572  1.00  0.00     0.168 HD
HETATM    6  C   UNL     1      40.074 -12.260   5.714  1.00  0.00     0.048 A 
HETATM    7  C   UNL     1      40.126 -12.546   4.337  1.00  0.00     0.031 A 
HETATM    8  C   UNL     1      39.374 -11.141   6.191  1.00  0.00     0.030 A 
HETATM    9  C   UNL     1      38.718 -10.293   5.300  1.00  0.00     0.002 A 
HETATM   10  C   UNL     1      38.749 -10.562   3.935  1.00  0.00     0.001 A 
HETATM   11  C   UNL     1      39.441 -11.677   3.456  1.00  0.00     0.017 A 
ENDROOT
BRANCH   3  12
HETATM   12  N   UNL     1      41.967 -14.914   7.151  1.00  0.00    -0.262 NA
HETATM   13  H   UNL     1      42.877 -14.558   7.430  1.00  0.00     0.130 HD
BRANCH  12  14
HETATM   14  C   UNL     1      42.018 -16.357   6.866  1.00  0.00     0.100 C 
BRANCH  14  15
HETATM   15  C   UNL     1      43.477 -16.829   6.834  1.00  0.00     0.053 C 
BRANCH  15  16
HETATM   16  C   UNL     1      43.644 -18.079   6.008  1.00  0.00    -0.054 A 
HETATM   17  C   UNL     1      43.856 -17.992   4.621  1.00  0.00     0.044 A 
HETATM   18  C   UNL     1      43.990 -19.149   3.849  1.00  0.00     0.068 A 
HETATM   19  C   UNL     1      43.904 -20.397   4.469  1.00  0.00     0.037 A 
HETATM   20  C   UNL     1      43.692 -20.495   5.844  1.00  0.00     0.003 A 
HETATM   21  C   UNL     1      43.561 -19.340   6.612  1.00  0.00     0.007 A 
BRANCH  18  22
HETATM   22  O   UNL     1      44.197 -19.197   2.499  1.00  0.00    -0.356 OA
HETATM   23  C   UNL     1      43.672 -20.317   1.799  1.00  0.00     0.210 C 
ENDBRANCH  18  22
ENDBRANCH  15  16
ENDBRANCH  14  15
ENDBRANCH  12  14
ENDBRANCH   3  12
BRANCH   1  24
HETATM   24  N   UNL     1      40.895 -14.061   2.605  1.00  0.00    -0.273 NA
HETATM   25  H   UNL     1      41.506 -13.454   2.063  1.00  0.00     0.129 HD
BRANCH  24  26
HETATM   26  C   UNL     1      41.071 -15.475   2.252  1.00  0.00     0.053 C 
HETATM   27  C   UNL     1      42.428 -15.705   1.586  1.00  0.00     0.026 C 
HETATM   28  C   UNL     1      39.945 -15.862   1.292  1.00  0.00     0.026 C 
ENDBRANCH  24  26
ENDBRANCH   1  24
TORSDOF 7
ENDMDL
MODEL 8
REMARK VINA RESULT:      -7.2     14.011     16.295
REMARK  7 active torsions:
REMARK  status: ('A' for Active; 'I' for Inactive)
REMARK    1  A    between atoms: C_2  and  N_3 
REMARK    2  A    between atoms: N_3  and  C_4 
REMARK    3  A    between atoms: C_6  and  N_7 
REMARK    4  A    between atoms: N_7  and  C_8 
REMARK    5  A    between atoms: C_8  and  C_9 
REMARK    6  A    between atoms: C_9  and  C_10 
REMARK    7  A    between atoms: C_12  and  O_13 
ROOT
HETATM    1  C   UNL     1      49.478 -30.246   0.914  1.00  0.00     0.119 A 
HETATM    2  N   UNL     1      48.491 -29.399   0.567  1.00  0.00    -0.207 NA
HETATM    3  C   UNL     1      48.417 -28.990  -0.709  1.00  0.00     0.181 A 
HETATM    4  N   UNL     1      49.259 -29.421  -1.645  1.00  0.00    -0.330 N 
HETATM    5  H   UNL     1      49.089 -29.114  -2.594  1.00  0.00     0.168 HD
HETATM    6  C   UNL     1      50.246 -30.276  -1.361  1.00  0.00     0.048 A 
HETATM    7  C   UNL     1      50.398 -30.733  -0.038  1.00  0.00     0.031 A 
HETATM    8  C   UNL     1      51.109 -30.713  -2.377  1.00  0.00     0.030 A 
HETATM    9  C   UNL     1      52.135 -31.612  -2.086  1.00  0.00     0.002 A 
HETATM   10  C   UNL     1      52.298 -32.084  -0.788  1.00  0.00     0.001 A 
HETATM   11  C   UNL     1      51.439 -31.654   0.227  1.00  0.00     0.017 A 
ENDROOT
BRANCH   3  12
HETATM   12  N   UNL     1      47.434 -28.101  -1.133  1.00  0.00    -0.262 NA
HETATM   13  H   UNL     1      47.757 -27.137  -1.168  1.00  0.00     0.130 HD
BRANCH  12  14
HETATM   14  C   UNL     1      46.155 -28.214  -0.415  1.00  0.00     0.100 C 
BRANCH  14  15
HETATM   15  C   UNL     1      45.000 -27.827  -1.348  1.00  0.00     0.053 C 
BRANCH  15  16
HETATM   16  C   UNL     1      44.736 -28.891  -2.383  1.00  0.00    -0.054 A 
HETATM   17  C   UNL     1      44.382 -30.194  -1.989  1.00  0.00     0.044 A 
HETATM   18  C   UNL     1      44.157 -31.188  -2.945  1.00  0.00     0.068 A 
HETATM   19  C   UNL     1      44.294 -30.877  -4.299  1.00  0.00     0.037 A 
HETATM   20  C   UNL     1      44.646 -29.589  -4.700  1.00  0.00     0.003 A 
HETATM   21  C   UNL     1      44.868 -28.598  -3.745  1.00  0.00     0.007 A 
BRANCH  18  22
HETATM   22  O   UNL     1      43.811 -32.486  -2.691  1.00  0.00    -0.356 OA
HETATM   23  C   UNL     1      43.950 -33.417  -3.755  1.00  0.00     0.210 C 
ENDBRANCH  18  22
ENDBRANCH  15  16
ENDBRANCH  14  15
ENDBRANCH  12  14
ENDBRANCH   3  12
BRANCH   1  24
HETATM   24  N   UNL     1      49.547 -30.698   2.234  1.00  0.00    -0.273 NA
HETATM   25  H   UNL     1      49.857 -31.665   2.295  1.00  0.00     0.129 HD
BRANCH  24  26
HETATM   26  C   UNL     1      50.186 -29.849   3.248  1.00  0.00     0.053 C 
HETATM   27  C   UNL     1      50.968 -30.696   4.252  1.00  0.00     0.026 C 
HETATM   28  C   UNL     1      49.083 -29.070   3.967  1.00  0.00     0.026 C 
ENDBRANCH  24  26
ENDBRANCH   1  24
TORSDOF 7
ENDMDL
MODEL 9
REMARK VINA RESULT:      -7.2      2.328      3.101
REMARK  7 active torsions:
REMARK  status: ('A' for Active; 'I' for Inactive)
REMARK    1  A    between atoms: C_2  and  N_3 
REMARK    2  A    between atoms: N_3  and  C_4 
REMARK    3  A    between atoms: C_6  and  N_7 
REMARK    4  A    between atoms: N_7  and  C_8 
REMARK    5  A    between atoms: C_8  and  C_9 
REMARK    6  A    between atoms: C_9  and  C_10 
REMARK    7  A    between atoms: C_12  and  O_13 
ROOT
HETATM    1  C   UNL     1      41.706 -14.066   5.176  1.00  0.00     0.119 A 
HETATM    2  N   UNL     1      40.641 -13.679   4.449  1.00  0.00    -0.207 NA
HETATM    3  C   UNL     1      40.288 -14.417   3.385  1.00  0.00     0.181 A 
HETATM    4  N   UNL     1      40.929 -15.534   3.050  1.00  0.00    -0.330 N 
HETATM    5  H   UNL     1      40.554 -16.065   2.275  1.00  0.00     0.168 HD
HETATM    6  C   UNL     1      41.981 -15.976   3.746  1.00  0.00     0.048 A 
HETATM    7  C   UNL     1      42.422 -15.241   4.863  1.00  0.00     0.031 A 
HETATM    8  C   UNL     1      42.626 -17.162   3.364  1.00  0.00     0.030 A 
HETATM    9  C   UNL     1      43.718 -17.631   4.092  1.00  0.00     0.002 A 
HETATM   10  C   UNL     1      44.165 -16.926   5.205  1.00  0.00     0.001 A 
HETATM   11  C   UNL     1      43.525 -15.746   5.591  1.00  0.00     0.017 A 
ENDROOT
BRANCH   3  12
HETATM   12  N   UNL     1      39.210 -14.064   2.580  1.00  0.00    -0.262 NA
HETATM   13  H   UNL     1      38.885 -14.827   1.992  1.00  0.00     0.130 HD
BRANCH  12  14
HETATM   14  C   UNL     1      39.404 -12.830   1.802  1.00  0.00     0.100 C 
BRANCH  14  15
HETATM   15  C   UNL     1      40.284 -13.120   0.579  1.00  0.00     0.053 C 
BRANCH  15  16
HETATM   16  C   UNL     1      39.459 -13.393  -0.653  1.00  0.00    -0.054 A 
HETATM   17  C   UNL     1      38.502 -12.459  -1.089  1.00  0.00     0.044 A 
HETATM   18  C   UNL     1      37.721 -12.718  -2.218  1.00  0.00     0.068 A 
HETATM   19  C   UNL     1      37.894 -13.920  -2.908  1.00  0.00     0.037 A 
HETATM   20  C   UNL     1      38.839 -14.854  -2.482  1.00  0.00     0.003 A 
HETATM   21  C   UNL     1      39.618 -14.593  -1.357  1.00  0.00     0.007 A 
BRANCH  18  22
HETATM   22  O   UNL     1      36.762 -11.896  -2.740  1.00  0.00    -0.356 OA
HETATM   23  C   UNL     1      36.686 -10.574  -2.224  1.00  0.00     0.210 C 
ENDBRANCH  18  22
ENDBRANCH  15  16
ENDBRANCH  14  15
ENDBRANCH  12  14
ENDBRANCH   3  12
BRANCH   1  24
HETATM   24  N   UNL     1      42.065 -13.319   6.299  1.00  0.00    -0.273 NA
HETATM   25  H   UNL     1      42.331 -13.907   7.086  1.00  0.00     0.129 HD
BRANCH  24  26
HETATM   26  C   UNL     1      42.970 -12.174   6.138  1.00  0.00     0.053 C 
HETATM   27  C   UNL     1      44.205 -12.327   7.026  1.00  0.00     0.026 C 
HETATM   28  C   UNL     1      42.200 -10.910   6.524  1.00  0.00     0.026 C 
ENDBRANCH  24  26
ENDBRANCH   1  24
TORSDOF 7
ENDMDL
MODEL 10
REMARK VINA RESULT:      -7.1      1.596      3.912
REMARK  7 active torsions:
REMARK  status: ('A' for Active; 'I' for Inactive)
REMARK    1  A    between atoms: C_2  and  N_3 
REMARK    2  A    between atoms: N_3  and  C_4 
REMARK    3  A    between atoms: C_6  and  N_7 
REMARK    4  A    between atoms: N_7  and  C_8 
REMARK    5  A    between atoms: C_8  and  C_9 
REMARK    6  A    between atoms: C_9  and  C_10 
REMARK    7  A    between atoms: C_12  and  O_13 
ROOT
HETATM    1  C   UNL     1      42.142 -16.342   4.731  1.00  0.00     0.119 A 
HETATM    2  N   UNL     1      41.159 -16.426   3.815  1.00  0.00    -0.207 NA
HETATM    3  C   UNL     1      40.510 -15.305   3.465  1.00  0.00     0.181 A 
HETATM    4  N   UNL     1      40.832 -14.113   3.962  1.00  0.00    -0.330 N 
HETATM    5  H   UNL     1      40.336 -13.312   3.593  1.00  0.00     0.168 HD
HETATM    6  C   UNL     1      41.811 -13.967   4.859  1.00  0.00     0.048 A 
HETATM    7  C   UNL     1      42.522 -15.103   5.290  1.00  0.00     0.031 A 
HETATM    8  C   UNL     1      42.124 -12.692   5.354  1.00  0.00     0.030 A 
HETATM    9  C   UNL     1      43.151 -12.534   6.284  1.00  0.00     0.002 A 
HETATM   10  C   UNL     1      43.873 -13.642   6.716  1.00  0.00     0.001 A 
HETATM   11  C   UNL     1      43.567 -14.913   6.224  1.00  0.00     0.017 A 
ENDROOT
BRANCH   3  12
HETATM   12  N   UNL     1      39.471 -15.323   2.540  1.00  0.00    -0.262 NA
HETATM   13  H   UNL     1      38.662 -15.847   2.861  1.00  0.00     0.130 HD
BRANCH  12  14
HETATM   14  C   UNL     1      39.868 -15.724   1.181  1.00  0.00     0.100 C 
BRANCH  14  15
HETATM   15  C   UNL     1      40.675 -14.598   0.522  1.00  0.00     0.053 C 
BRANCH  15  16
HETATM   16  C   UNL     1      40.083 -14.186  -0.802  1.00  0.00    -0.054 A 
HETATM   17  C   UNL     1      40.361 -12.917  -1.340  1.00  0.00     0.044 A 
HETATM   18  C   UNL     1      39.797 -12.524  -2.557  1.00  0.00     0.068 A 
HETATM   19  C   UNL     1      38.947 -13.402  -3.232  1.00  0.00     0.037 A 
HETATM   20  C   UNL     1      38.663 -14.662  -2.705  1.00  0.00     0.003 A 
HETATM   21  C   UNL     1      39.228 -15.053  -1.493  1.00  0.00     0.007 A 
BRANCH  18  22
HETATM   22  O   UNL     1      39.987 -11.323  -3.182  1.00  0.00    -0.356 OA
HETATM   23  C   UNL     1      38.868 -10.452  -3.275  1.00  0.00     0.210 C 
ENDBRANCH  18  22
ENDBRANCH  15  16
ENDBRANCH  14  15
ENDBRANCH  12  14
ENDBRANCH   3  12
BRANCH   1  24
HETATM   24  N   UNL     1      42.840 -17.499   5.082  1.00  0.00    -0.273 NA
HETATM   25  H   UNL     1      42.217 -18.263   5.336  1.00  0.00     0.129 HD
BRANCH  24  26
HETATM   26  C   UNL     1      43.948 -17.953   4.231  1.00  0.00     0.053 C 
HETATM   27  C   UNL     1      43.526 -17.992   2.763  1.00  0.00     0.026 C 
HETATM   28  C   UNL     1      44.352 -19.353   4.697  1.00  0.00     0.026 C 
ENDBRANCH  24  26
ENDBRANCH   1  24
TORSDOF 7
ENDMDL
