MODEL 1
REMARK VINA RESULT:      -8.6      0.000      0.000
REMARK  4 active torsions:
REMARK  status: ('A' for Active; 'I' for Inactive)
REMARK    1  A    between atoms: C_6  and  C_7 
REMARK    2  A    between atoms: C_10  and  O_11 
REMARK    3  A    between atoms: C_15  and  C_16 
REMARK       I    between atoms: C_16  and  N_17 
REMARK    4  A    between atoms: N_17  and  C_18 
ROOT
HETATM    1  C   UNL     1      40.138 -12.479   0.691  1.00  0.00     0.001 A 
HETATM    2  C   UNL     1      41.124 -12.550   1.672  1.00  0.00     0.015 A 
HETATM    3  C   UNL     1      41.737 -13.785   2.007  1.00  0.00     0.008 A 
HETATM    4  C   UNL     1      41.305 -14.955   1.360  1.00  0.00     0.068 A 
HETATM    5  N   UNL     1      41.788 -16.175   1.651  1.00  0.00    -0.248 NA
HETATM    6  C   UNL     1      42.714 -16.326   2.630  1.00  0.00     0.068 A 
HETATM    7  C   UNL     1      43.226 -15.231   3.303  1.00  0.00     0.050 A 
HETATM    8  C   UNL     1      42.752 -13.959   2.973  1.00  0.00     0.046 A 
HETATM    9  C   UNL     1      40.326 -14.857   0.381  1.00  0.00     0.032 A 
HETATM   10  C   UNL     1      39.743 -13.636   0.036  1.00  0.00     0.002 A 
ENDROOT
BRANCH   6  11
HETATM   11  C   UNL     1      43.128 -17.718   2.912  1.00  0.00    -0.007 A 
HETATM   12  C   UNL     1      42.848 -18.752   1.994  1.00  0.00     0.016 A 
HETATM   13  C   UNL     1      43.216 -20.078   2.244  1.00  0.00     0.037 A 
HETATM   14  C   UNL     1      43.870 -20.392   3.427  1.00  0.00     0.065 A 
HETATM   15  C   UNL     1      44.160 -19.403   4.358  1.00  0.00     0.037 A 
HETATM   16  C   UNL     1      43.789 -18.078   4.103  1.00  0.00     0.016 A 
BRANCH  14  17
HETATM   17  O   UNL     1      44.241 -21.670   3.720  1.00  0.00    -0.361 OA
HETATM   18  H   UNL     1      45.148 -21.808   3.406  1.00  0.00     0.217 HD
ENDBRANCH  14  17
ENDBRANCH   6  11
BRANCH   8  19
HETATM   19  C   UNL     1      43.383 -12.830   3.693  1.00  0.00     0.253 C 
HETATM   20  N   UNL     1      43.200 -12.826   5.062  1.00  0.00    -0.352 N 
HETATM   21  H   UNL     1      42.612 -13.537   5.482  1.00  0.00     0.163 HD
HETATM   22  O   UNL     1      43.957 -11.953   3.061  1.00  0.00    -0.268 OA
BRANCH  20  23
HETATM   23  C   UNL     1      43.688 -11.771   5.891  1.00  0.00     0.084 A 
HETATM   24  C   UNL     1      44.035 -12.028   7.332  1.00  0.00     0.027 A 
HETATM   25  C   UNL     1      45.123 -11.750   6.337  1.00  0.00     0.027 A 
ENDBRANCH  20  23
ENDBRANCH   8  19
TORSDOF 4
ENDMDL
MODEL 2
REMARK VINA RESULT:      -8.5      1.759      4.616
REMARK  4 active torsions:
REMARK  status: ('A' for Active; 'I' for Inactive)
REMARK    1  A    between atoms: C_6  and  C_7 
REMARK    2  A    between atoms: C_10  and  O_11 
REMARK    3  A    between atoms: C_15  and  C_16 
REMARK       I    between atoms: C_16  and  N_17 
REMARK    4  A    between atoms: N_17  and  C_18 
ROOT
HETATM    1  C   UNL     1      42.427 -11.367   4.271  1.00  0.00     0.001 A 
HETATM    2  C   UNL     1      41.831 -12.138   3.275  1.00  0.00     0.015 A 
HETATM    3  C   UNL     1      42.028 -13.542   3.219  1.00  0.00     0.008 A 
HETATM    4  C   UNL     1      42.873 -14.148   4.164  1.00  0.00     0.068 A 
HETATM    5  N   UNL     1      43.160 -15.461   4.155  1.00  0.00    -0.248 NA
HETATM    6  C   UNL     1      42.656 -16.263   3.184  1.00  0.00     0.068 A 
HETATM    7  C   UNL     1      41.789 -15.766   2.228  1.00  0.00     0.050 A 
HETATM    8  C   UNL     1      41.458 -14.410   2.262  1.00  0.00     0.046 A 
HETATM    9  C   UNL     1      43.449 -13.360   5.150  1.00  0.00     0.032 A 
HETATM   10  C   UNL     1      43.233 -11.982   5.218  1.00  0.00     0.002 A 
ENDROOT
BRANCH   6  11
HETATM   11  C   UNL     1      43.090 -17.677   3.232  1.00  0.00    -0.007 A 
HETATM   12  C   UNL     1      42.843 -18.542   2.145  1.00  0.00     0.016 A 
HETATM   13  C   UNL     1      43.231 -19.886   2.172  1.00  0.00     0.037 A 
HETATM   14  C   UNL     1      43.872 -20.387   3.295  1.00  0.00     0.065 A 
HETATM   15  C   UNL     1      44.131 -19.568   4.386  1.00  0.00     0.037 A 
HETATM   16  C   UNL     1      43.740 -18.225   4.354  1.00  0.00     0.016 A 
BRANCH  14  17
HETATM   17  O   UNL     1      44.262 -21.691   3.372  1.00  0.00    -0.361 OA
HETATM   18  H   UNL     1      43.613 -22.176   3.906  1.00  0.00     0.217 HD
ENDBRANCH  14  17
ENDBRANCH   6  11
BRANCH   8  19
HETATM   19  C   UNL     1      40.483 -13.960   1.242  1.00  0.00     0.253 C 
HETATM   20  N   UNL     1      40.940 -13.977  -0.061  1.00  0.00    -0.352 N 
HETATM   21  H   UNL     1      41.905 -14.229  -0.241  1.00  0.00     0.163 HD
HETATM   22  O   UNL     1      39.386 -13.546   1.594  1.00  0.00    -0.268 OA
BRANCH  20  23
HETATM   23  C   UNL     1      40.145 -13.510  -1.151  1.00  0.00     0.084 A 
HETATM   24  C   UNL     1      40.409 -13.991  -2.552  1.00  0.00     0.027 A 
HETATM   25  C   UNL     1      39.166 -14.426  -1.832  1.00  0.00     0.027 A 
ENDBRANCH  20  23
ENDBRANCH   8  19
TORSDOF 4
ENDMDL
MODEL 3
REMARK VINA RESULT:      -8.4      1.272      1.474
REMARK  4 active torsions:
REMARK  status: ('A' for Active; 'I' for Inactive)
REMARK    1  A    between atoms: C_6  and  C_7 
REMARK    2  A    between atoms: C_10  and  O_11 
REMARK    3  A    between atoms: C_15  and  C_16 
REMARK       I    between atoms: C_16  and  N_17 
REMARK    4  A    between atoms: N_17  and  C_18 
ROOT
HETATM    1  C   UNL     1      41.074 -11.802   1.806  1.00  0.00     0.001 A 
HETATM    2  C   UNL     1      41.557 -12.236   3.039  1.00  0.00     0.015 A 
HETATM    3  C   UNL     1      42.064 -13.551   3.206  1.00  0.00     0.008 A 
HETATM    4  C   UNL     1      42.035 -14.434   2.113  1.00  0.00     0.068 A 
HETATM    5  N   UNL     1      42.443 -15.712   2.192  1.00  0.00    -0.248 NA
HETATM    6  C   UNL     1      42.877 -16.217   3.374  1.00  0.00     0.068 A 
HETATM    7  C   UNL     1      42.972 -15.418   4.499  1.00  0.00     0.050 A 
HETATM    8  C   UNL     1      42.586 -14.079   4.406  1.00  0.00     0.046 A 
HETATM    9  C   UNL     1      41.557 -13.975   0.893  1.00  0.00     0.032 A 
HETATM   10  C   UNL     1      41.082 -12.673   0.726  1.00  0.00     0.002 A 
ENDROOT
BRANCH   6  11
HETATM   11  C   UNL     1      43.238 -17.652   3.363  1.00  0.00    -0.007 A 
HETATM   12  C   UNL     1      42.936 -18.461   2.248  1.00  0.00     0.016 A 
HETATM   13  C   UNL     1      43.254 -19.823   2.220  1.00  0.00     0.037 A 
HETATM   14  C   UNL     1      43.880 -20.400   3.317  1.00  0.00     0.065 A 
HETATM   15  C   UNL     1      44.191 -19.637   4.434  1.00  0.00     0.037 A 
HETATM   16  C   UNL     1      43.870 -18.275   4.457  1.00  0.00     0.016 A 
BRANCH  14  17
HETATM   17  O   UNL     1      44.202 -21.723   3.340  1.00  0.00    -0.361 OA
HETATM   18  H   UNL     1      43.520 -22.216   2.856  1.00  0.00     0.217 HD
ENDBRANCH  14  17
ENDBRANCH   6  11
BRANCH   8  19
HETATM   19  C   UNL     1      42.766 -13.271   5.633  1.00  0.00     0.253 C 
HETATM   20  N   UNL     1      44.060 -12.863   5.888  1.00  0.00    -0.352 N 
HETATM   21  H   UNL     1      44.805 -13.178   5.278  1.00  0.00     0.163 HD
HETATM   22  O   UNL     1      41.809 -13.068   6.370  1.00  0.00    -0.268 OA
BRANCH  20  23
HETATM   23  C   UNL     1      44.410 -12.134   7.066  1.00  0.00     0.084 A 
HETATM   24  C   UNL     1      45.578 -11.187   7.061  1.00  0.00     0.027 A 
HETATM   25  C   UNL     1      44.179 -10.651   7.144  1.00  0.00     0.027 A 
ENDBRANCH  20  23
ENDBRANCH   8  19
TORSDOF 4
ENDMDL
MODEL 4
REMARK VINA RESULT:      -8.0      2.230      5.694
REMARK  4 active torsions:
REMARK  status: ('A' for Active; 'I' for Inactive)
REMARK    1  A    between atoms: C_6  and  C_7 
REMARK    2  A    between atoms: C_10  and  O_11 
REMARK    3  A    between atoms: C_15  and  C_16 
REMARK       I    between atoms: C_16  and  N_17 
REMARK    4  A    between atoms: N_17  and  C_18 
ROOT
HETATM    1  C   UNL     1      44.293 -18.304   4.419  1.00  0.00     0.001 A 
HETATM    2  C   UNL     1      43.806 -17.073   4.852  1.00  0.00     0.015 A 
HETATM    3  C   UNL     1      42.916 -16.313   4.049  1.00  0.00     0.008 A 
HETATM    4  C   UNL     1      42.559 -16.802   2.781  1.00  0.00     0.068 A 
HETATM    5  N   UNL     1      41.767 -16.127   1.931  1.00  0.00    -0.248 NA
HETATM    6  C   UNL     1      41.297 -14.899   2.266  1.00  0.00     0.068 A 
HETATM    7  C   UNL     1      41.567 -14.347   3.505  1.00  0.00     0.050 A 
HETATM    8  C   UNL     1      42.357 -15.066   4.404  1.00  0.00     0.046 A 
HETATM    9  C   UNL     1      43.052 -18.035   2.376  1.00  0.00     0.032 A 
HETATM   10  C   UNL     1      43.908 -18.791   3.179  1.00  0.00     0.002 A 
ENDROOT
BRANCH   6  11
HETATM   11  C   UNL     1      40.489 -14.218   1.231  1.00  0.00    -0.007 A 
HETATM   12  C   UNL     1      40.192 -14.862   0.011  1.00  0.00     0.016 A 
HETATM   13  C   UNL     1      39.443 -14.233  -0.989  1.00  0.00     0.037 A 
HETATM   14  C   UNL     1      38.980 -12.941  -0.783  1.00  0.00     0.065 A 
HETATM   15  C   UNL     1      39.254 -12.273   0.402  1.00  0.00     0.037 A 
HETATM   16  C   UNL     1      40.005 -12.906   1.399  1.00  0.00     0.016 A 
BRANCH  14  17
HETATM   17  O   UNL     1      38.254 -12.284  -1.730  1.00  0.00    -0.361 OA
HETATM   18  H   UNL     1      37.410 -12.011  -1.337  1.00  0.00     0.217 HD
ENDBRANCH  14  17
ENDBRANCH   6  11
BRANCH   8  19
HETATM   19  C   UNL     1      42.559 -14.438   5.729  1.00  0.00     0.253 C 
HETATM   20  N   UNL     1      43.505 -13.434   5.770  1.00  0.00    -0.352 N 
HETATM   21  H   UNL     1      44.039 -13.227   4.934  1.00  0.00     0.163 HD
HETATM   22  O   UNL     1      41.950 -14.867   6.702  1.00  0.00    -0.268 OA
BRANCH  20  23
HETATM   23  C   UNL     1      43.864 -12.776   6.986  1.00  0.00     0.084 A 
HETATM   24  C   UNL     1      45.010 -11.802   7.020  1.00  0.00     0.027 A 
HETATM   25  C   UNL     1      43.601 -11.307   7.167  1.00  0.00     0.027 A 
ENDBRANCH  20  23
ENDBRANCH   8  19
TORSDOF 4
ENDMDL
MODEL 5
REMARK VINA RESULT:      -7.8      2.537      5.067
REMARK  4 active torsions:
REMARK  status: ('A' for Active; 'I' for Inactive)
REMARK    1  A    between atoms: C_6  and  C_7 
REMARK    2  A    between atoms: C_10  and  O_11 
REMARK    3  A    between atoms: C_15  and  C_16 
REMARK       I    between atoms: C_16  and  N_17 
REMARK    4  A    between atoms: N_17  and  C_18 
ROOT
HETATM    1  C   UNL     1      38.902 -10.978   3.354  1.00  0.00     0.001 A 
HETATM    2  C   UNL     1      39.400 -11.667   2.250  1.00  0.00     0.015 A 
HETATM    3  C   UNL     1      40.102 -12.891   2.407  1.00  0.00     0.008 A 
HETATM    4  C   UNL     1      40.328 -13.384   3.703  1.00  0.00     0.068 A 
HETATM    5  N   UNL     1      41.029 -14.503   3.950  1.00  0.00    -0.248 NA
HETATM    6  C   UNL     1      41.586 -15.199   2.928  1.00  0.00     0.068 A 
HETATM    7  C   UNL     1      41.393 -14.811   1.614  1.00  0.00     0.050 A 
HETATM    8  C   UNL     1      40.631 -13.670   1.355  1.00  0.00     0.046 A 
HETATM    9  C   UNL     1      39.815 -12.682   4.786  1.00  0.00     0.032 A 
HETATM   10  C   UNL     1      39.103 -11.491   4.626  1.00  0.00     0.002 A 
ENDROOT
BRANCH   6  11
HETATM   11  C   UNL     1      42.391 -16.377   3.318  1.00  0.00    -0.007 A 
HETATM   12  C   UNL     1      42.755 -17.348   2.362  1.00  0.00     0.016 A 
HETATM   13  C   UNL     1      43.503 -18.478   2.709  1.00  0.00     0.037 A 
HETATM   14  C   UNL     1      43.897 -18.655   4.027  1.00  0.00     0.065 A 
HETATM   15  C   UNL     1      43.557 -17.723   4.998  1.00  0.00     0.037 A 
HETATM   16  C   UNL     1      42.807 -16.595   4.645  1.00  0.00     0.016 A 
BRANCH  14  17
HETATM   17  O   UNL     1      44.620 -19.743   4.416  1.00  0.00    -0.361 OA
HETATM   18  H   UNL     1      45.219 -19.477   5.131  1.00  0.00     0.217 HD
ENDBRANCH  14  17
ENDBRANCH   6  11
BRANCH   8  19
HETATM   19  C   UNL     1      40.421 -13.347  -0.074  1.00  0.00     0.253 C 
HETATM   20  N   UNL     1      39.421 -14.064  -0.702  1.00  0.00    -0.352 N 
HETATM   21  H   UNL     1      38.941 -14.792  -0.187  1.00  0.00     0.163 HD
HETATM   22  O   UNL     1      41.158 -12.540  -0.627  1.00  0.00    -0.268 OA
BRANCH  20  23
HETATM   23  C   UNL     1      39.140 -13.917  -2.094  1.00  0.00     0.084 A 
HETATM   24  C   UNL     1      38.566 -15.061  -2.884  1.00  0.00     0.027 A 
HETATM   25  C   UNL     1      37.721 -13.857  -2.586  1.00  0.00     0.027 A 
ENDBRANCH  20  23
ENDBRANCH   8  19
TORSDOF 4
ENDMDL
MODEL 6
REMARK VINA RESULT:      -7.8      2.369      6.802
REMARK  4 active torsions:
REMARK  status: ('A' for Active; 'I' for Inactive)
REMARK    1  A    between atoms: C_6  and  C_7 
REMARK    2  A    between atoms: C_10  and  O_11 
REMARK    3  A    between atoms: C_15  and  C_16 
REMARK       I    between atoms: C_16  and  N_17 
REMARK    4  A    between atoms: N_17  and  C_18 
ROOT
HETATM    1  C   UNL     1      43.182 -18.989   2.433  1.00  0.00     0.001 A 
HETATM    2  C   UNL     1      42.385 -17.895   2.102  1.00  0.00     0.015 A 
HETATM    3  C   UNL     1      42.490 -16.671   2.812  1.00  0.00     0.008 A 
HETATM    4  C   UNL     1      43.388 -16.586   3.890  1.00  0.00     0.068 A 
HETATM    5  N   UNL     1      43.515 -15.486   4.652  1.00  0.00    -0.248 NA
HETATM    6  C   UNL     1      42.736 -14.401   4.420  1.00  0.00     0.068 A 
HETATM    7  C   UNL     1      41.844 -14.377   3.363  1.00  0.00     0.050 A 
HETATM    8  C   UNL     1      41.741 -15.505   2.546  1.00  0.00     0.046 A 
HETATM    9  C   UNL     1      44.176 -17.687   4.194  1.00  0.00     0.032 A 
HETATM   10  C   UNL     1      44.088 -18.882   3.478  1.00  0.00     0.002 A 
ENDROOT
BRANCH   6  11
HETATM   11  C   UNL     1      42.912 -13.272   5.360  1.00  0.00    -0.007 A 
HETATM   12  C   UNL     1      42.131 -12.104   5.236  1.00  0.00     0.016 A 
HETATM   13  C   UNL     1      42.290 -11.018   6.104  1.00  0.00     0.037 A 
HETATM   14  C   UNL     1      43.242 -11.084   7.111  1.00  0.00     0.065 A 
HETATM   15  C   UNL     1      44.032 -12.215   7.263  1.00  0.00     0.037 A 
HETATM   16  C   UNL     1      43.870 -13.298   6.393  1.00  0.00     0.016 A 
BRANCH  14  17
HETATM   17  O   UNL     1      43.439 -10.049   7.975  1.00  0.00    -0.361 OA
HETATM   18  H   UNL     1      43.664  -9.257   7.461  1.00  0.00     0.217 HD
ENDBRANCH  14  17
ENDBRANCH   6  11
BRANCH   8  19
HETATM   19  C   UNL     1      40.808 -15.388   1.402  1.00  0.00     0.253 C 
HETATM   20  N   UNL     1      41.133 -14.420   0.471  1.00  0.00    -0.352 N 
HETATM   21  H   UNL     1      41.930 -13.820   0.644  1.00  0.00     0.163 HD
HETATM   22  O   UNL     1      39.798 -16.079   1.371  1.00  0.00    -0.268 OA
BRANCH  20  23
HETATM   23  C   UNL     1      40.299 -14.138  -0.654  1.00  0.00     0.084 A 
HETATM   24  C   UNL     1      39.311 -13.004  -0.608  1.00  0.00     0.027 A 
HETATM   25  C   UNL     1      40.526 -12.906  -1.484  1.00  0.00     0.027 A 
ENDBRANCH  20  23
ENDBRANCH   8  19
TORSDOF 4
ENDMDL
MODEL 7
REMARK VINA RESULT:      -7.6     14.365     15.216
REMARK  4 active torsions:
REMARK  status: ('A' for Active; 'I' for Inactive)
REMARK    1  A    between atoms: C_6  and  C_7 
REMARK    2  A    between atoms: C_10  and  O_11 
REMARK    3  A    between atoms: C_15  and  C_16 
REMARK       I    between atoms: C_16  and  N_17 
REMARK    4  A    between atoms: N_17  and  C_18 
ROOT
HETATM    1  C   UNL     1      46.566 -28.009  -2.396  1.00  0.00     0.001 A 
HETATM    2  C   UNL     1      46.791 -28.134  -1.026  1.00  0.00     0.015 A 
HETATM    3  C   UNL     1      45.837 -28.759  -0.181  1.00  0.00     0.008 A 
HETATM    4  C   UNL     1      44.632 -29.218  -0.740  1.00  0.00     0.068 A 
HETATM    5  N   UNL     1      43.650 -29.772  -0.009  1.00  0.00    -0.248 NA
HETATM    6  C   UNL     1      43.779 -29.880   1.337  1.00  0.00     0.068 A 
HETATM    7  C   UNL     1      44.940 -29.485   1.975  1.00  0.00     0.050 A 
HETATM    8  C   UNL     1      45.978 -28.947   1.211  1.00  0.00     0.046 A 
HETATM    9  C   UNL     1      44.436 -29.088  -2.108  1.00  0.00     0.032 A 
HETATM   10  C   UNL     1      45.387 -28.496  -2.941  1.00  0.00     0.002 A 
ENDROOT
BRANCH   6  11
HETATM   11  C   UNL     1      42.611 -30.444   2.049  1.00  0.00    -0.007 A 
HETATM   12  C   UNL     1      42.343 -30.086   3.387  1.00  0.00     0.016 A 
HETATM   13  C   UNL     1      41.253 -30.616   4.086  1.00  0.00     0.037 A 
HETATM   14  C   UNL     1      40.413 -31.521   3.453  1.00  0.00     0.065 A 
HETATM   15  C   UNL     1      40.645 -31.900   2.138  1.00  0.00     0.037 A 
HETATM   16  C   UNL     1      41.737 -31.367   1.444  1.00  0.00     0.016 A 
BRANCH  14  17
HETATM   17  O   UNL     1      39.345 -32.071   4.095  1.00  0.00    -0.361 OA
HETATM   18  H   UNL     1      38.625 -31.420   4.111  1.00  0.00     0.217 HD
ENDBRANCH  14  17
ENDBRANCH   6  11
BRANCH   8  19
HETATM   19  C   UNL     1      47.210 -28.598   1.953  1.00  0.00     0.253 C 
HETATM   20  N   UNL     1      47.804 -29.641   2.636  1.00  0.00    -0.352 N 
HETATM   21  H   UNL     1      47.348 -30.545   2.646  1.00  0.00     0.163 HD
HETATM   22  O   UNL     1      47.592 -27.435   1.979  1.00  0.00    -0.268 OA
BRANCH  20  23
HETATM   23  C   UNL     1      48.960 -29.453   3.453  1.00  0.00     0.084 A 
HETATM   24  C   UNL     1      49.527 -30.596   4.251  1.00  0.00     0.027 A 
HETATM   25  C   UNL     1      50.278 -30.063   3.065  1.00  0.00     0.027 A 
ENDBRANCH  20  23
ENDBRANCH   8  19
TORSDOF 4
ENDMDL
MODEL 8
REMARK VINA RESULT:      -7.3      2.518      4.856
REMARK  4 active torsions:
REMARK  status: ('A' for Active; 'I' for Inactive)
REMARK    1  A    between atoms: C_6  and  C_7 
REMARK    2  A    between atoms: C_10  and  O_11 
REMARK    3  A    between atoms: C_15  and  C_16 
REMARK       I    between atoms: C_16  and  N_17 
REMARK    4  A    between atoms: N_17  and  C_18 
ROOT
HETATM    1  C   UNL     1      43.203 -10.666   7.170  1.00  0.00     0.001 A 
HETATM    2  C   UNL     1      42.165 -11.196   6.407  1.00  0.00     0.015 A 
HETATM    3  C   UNL     1      42.257 -12.498   5.849  1.00  0.00     0.008 A 
HETATM    4  C   UNL     1      43.436 -13.238   6.042  1.00  0.00     0.068 A 
HETATM    5  N   UNL     1      43.633 -14.455   5.506  1.00  0.00    -0.248 NA
HETATM    6  C   UNL     1      42.686 -15.012   4.711  1.00  0.00     0.068 A 
HETATM    7  C   UNL     1      41.479 -14.375   4.487  1.00  0.00     0.050 A 
HETATM    8  C   UNL     1      41.258 -13.129   5.076  1.00  0.00     0.046 A 
HETATM    9  C   UNL     1      44.452 -12.690   6.812  1.00  0.00     0.032 A 
HETATM   10  C   UNL     1      44.349 -11.419   7.380  1.00  0.00     0.002 A 
ENDROOT
BRANCH   6  11
HETATM   11  C   UNL     1      43.035 -16.323   4.121  1.00  0.00    -0.007 A 
HETATM   12  C   UNL     1      42.477 -16.730   2.891  1.00  0.00     0.016 A 
HETATM   13  C   UNL     1      42.781 -17.971   2.321  1.00  0.00     0.037 A 
HETATM   14  C   UNL     1      43.649 -18.830   2.979  1.00  0.00     0.065 A 
HETATM   15  C   UNL     1      44.216 -18.467   4.193  1.00  0.00     0.037 A 
HETATM   16  C   UNL     1      43.909 -17.225   4.760  1.00  0.00     0.016 A 
BRANCH  14  17
HETATM   17  O   UNL     1      43.968 -20.052   2.468  1.00  0.00    -0.361 OA
HETATM   18  H   UNL     1      44.923 -20.075   2.297  1.00  0.00     0.217 HD
ENDBRANCH  14  17
ENDBRANCH   6  11
BRANCH   8  19
HETATM   19  C   UNL     1      39.924 -12.532   4.839  1.00  0.00     0.253 C 
HETATM   20  N   UNL     1      39.796 -11.821   3.661  1.00  0.00    -0.352 N 
HETATM   21  H   UNL     1      40.609 -11.697   3.071  1.00  0.00     0.163 HD
HETATM   22  O   UNL     1      39.053 -12.635   5.693  1.00  0.00    -0.268 OA
BRANCH  20  23
HETATM   23  C   UNL     1      38.594 -11.130   3.318  1.00  0.00     0.084 A 
HETATM   24  C   UNL     1      38.599  -9.638   3.121  1.00  0.00     0.027 A 
HETATM   25  C   UNL     1      38.412 -10.550   1.943  1.00  0.00     0.027 A 
ENDBRANCH  20  23
ENDBRANCH   8  19
TORSDOF 4
ENDMDL
MODEL 9
REMARK VINA RESULT:      -7.3      3.027      7.750
REMARK  4 active torsions:
REMARK  status: ('A' for Active; 'I' for Inactive)
REMARK    1  A    between atoms: C_6  and  C_7 
REMARK    2  A    between atoms: C_10  and  O_11 
REMARK    3  A    between atoms: C_15  and  C_16 
REMARK       I    between atoms: C_16  and  N_17 
REMARK    4  A    between atoms: N_17  and  C_18 
ROOT
HETATM    1  C   UNL     1      42.875 -17.509   5.318  1.00  0.00     0.001 A 
HETATM    2  C   UNL     1      42.172 -16.376   4.914  1.00  0.00     0.015 A 
HETATM    3  C   UNL     1      42.584 -15.078   5.313  1.00  0.00     0.008 A 
HETATM    4  C   UNL     1      43.696 -14.949   6.164  1.00  0.00     0.068 A 
HETATM    5  N   UNL     1      44.124 -13.766   6.636  1.00  0.00    -0.248 NA
HETATM    6  C   UNL     1      43.458 -12.626   6.325  1.00  0.00     0.068 A 
HETATM    7  C   UNL     1      42.371 -12.646   5.470  1.00  0.00     0.050 A 
HETATM    8  C   UNL     1      41.950 -13.871   4.947  1.00  0.00     0.046 A 
HETATM    9  C   UNL     1      44.383 -16.093   6.546  1.00  0.00     0.032 A 
HETATM   10  C   UNL     1      43.990 -17.367   6.131  1.00  0.00     0.002 A 
ENDROOT
BRANCH   6  11
HETATM   11  C   UNL     1      43.976 -11.390   6.953  1.00  0.00    -0.007 A 
HETATM   12  C   UNL     1      43.097 -10.356   7.337  1.00  0.00     0.016 A 
HETATM   13  C   UNL     1      43.564  -9.173   7.919  1.00  0.00     0.037 A 
HETATM   14  C   UNL     1      44.926  -9.004   8.122  1.00  0.00     0.065 A 
HETATM   15  C   UNL     1      45.823  -9.998   7.755  1.00  0.00     0.037 A 
HETATM   16  C   UNL     1      45.351 -11.180   7.173  1.00  0.00     0.016 A 
BRANCH  14  17
HETATM   17  O   UNL     1      45.430  -7.866   8.677  1.00  0.00    -0.361 OA
HETATM   18  H   UNL     1      46.291  -8.072   9.074  1.00  0.00     0.217 HD
ENDBRANCH  14  17
ENDBRANCH   6  11
BRANCH   8  19
HETATM   19  C   UNL     1      40.817 -13.810   3.997  1.00  0.00     0.253 C 
HETATM   20  N   UNL     1      41.098 -14.234   2.713  1.00  0.00    -0.352 N 
HETATM   21  H   UNL     1      42.048 -14.497   2.479  1.00  0.00     0.163 HD
HETATM   22  O   UNL     1      39.746 -13.342   4.361  1.00  0.00    -0.268 OA
BRANCH  20  23
HETATM   23  C   UNL     1      40.131 -14.174   1.664  1.00  0.00     0.084 A 
HETATM   24  C   UNL     1      40.560 -13.938   0.241  1.00  0.00     0.027 A 
HETATM   25  C   UNL     1      40.030 -15.281   0.652  1.00  0.00     0.027 A 
ENDBRANCH  20  23
ENDBRANCH   8  19
TORSDOF 4
ENDMDL
MODEL 10
REMARK VINA RESULT:      -7.0     14.715     15.758
REMARK  4 active torsions:
REMARK  status: ('A' for Active; 'I' for Inactive)
REMARK    1  A    between atoms: C_6  and  C_7 
REMARK    2  A    between atoms: C_10  and  O_11 
REMARK    3  A    between atoms: C_15  and  C_16 
REMARK       I    between atoms: C_16  and  N_17 
REMARK    4  A    between atoms: N_17  and  C_18 
ROOT
HETATM    1  C   UNL     1      44.319 -28.830  -3.224  1.00  0.00     0.001 A 
HETATM    2  C   UNL     1      43.856 -29.179  -1.957  1.00  0.00     0.015 A 
HETATM    3  C   UNL     1      44.746 -29.288  -0.856  1.00  0.00     0.008 A 
HETATM    4  C   UNL     1      46.119 -29.079  -1.069  1.00  0.00     0.068 A 
HETATM    5  N   UNL     1      47.040 -29.214  -0.100  1.00  0.00    -0.248 NA
HETATM    6  C   UNL     1      46.668 -29.600   1.146  1.00  0.00     0.068 A 
HETATM    7  C   UNL     1      45.336 -29.800   1.462  1.00  0.00     0.050 A 
HETATM    8  C   UNL     1      44.375 -29.620   0.465  1.00  0.00     0.046 A 
HETATM    9  C   UNL     1      46.554 -28.725  -2.339  1.00  0.00     0.032 A 
HETATM   10  C   UNL     1      45.673 -28.594  -3.414  1.00  0.00     0.002 A 
ENDROOT
BRANCH   6  11
HETATM   11  C   UNL     1      47.769 -29.782   2.117  1.00  0.00    -0.007 A 
HETATM   12  C   UNL     1      48.468 -31.005   2.191  1.00  0.00     0.016 A 
HETATM   13  C   UNL     1      49.503 -31.206   3.110  1.00  0.00     0.037 A 
HETATM   14  C   UNL     1      49.854 -30.180   3.976  1.00  0.00     0.065 A 
HETATM   15  C   UNL     1      49.188 -28.963   3.936  1.00  0.00     0.037 A 
HETATM   16  C   UNL     1      48.152 -28.767   3.015  1.00  0.00     0.016 A 
BRANCH  14  17
HETATM   17  O   UNL     1      50.850 -30.330   4.894  1.00  0.00    -0.361 OA
HETATM   18  H   UNL     1      51.455 -31.022   4.583  1.00  0.00     0.217 HD
ENDBRANCH  14  17
ENDBRANCH   6  11
BRANCH   8  19
HETATM   19  C   UNL     1      42.967 -29.797   0.888  1.00  0.00     0.253 C 
HETATM   20  N   UNL     1      42.592 -31.097   1.165  1.00  0.00    -0.352 N 
HETATM   21  H   UNL     1      43.258 -31.844   1.011  1.00  0.00     0.163 HD
HETATM   22  O   UNL     1      42.214 -28.831   0.906  1.00  0.00    -0.268 OA
BRANCH  20  23
HETATM   23  C   UNL     1      41.252 -31.442   1.521  1.00  0.00     0.084 A 
HETATM   24  C   UNL     1      40.956 -32.742   2.216  1.00  0.00     0.027 A 
HETATM   25  C   UNL     1      40.820 -31.446   2.961  1.00  0.00     0.027 A 
ENDBRANCH  20  23
ENDBRANCH   8  19
TORSDOF 4
ENDMDL
