MODEL 1
REMARK VINA RESULT:      -8.6      0.000      0.000
REMARK  4 active torsions:
REMARK  status: ('A' for Active; 'I' for Inactive)
REMARK    1  A    between atoms: C_5  and  C_6 
REMARK    2  A    between atoms: C_6  and  N_7 
REMARK    3  A    between atoms: N_13  and  C_15 
REMARK    4  A    between atoms: C_19  and  C_20 
ROOT
HETATM    1  N   UNL     1      41.679 -14.826   0.927  1.00  0.00    -0.064 N 
HETATM    2  H   UNL     1      42.073 -15.079  -0.000  1.00  0.00     0.280 HD
HETATM    3  C   UNL     1      42.860 -14.451   1.768  1.00  0.00     0.236 C 
HETATM    4  C   UNL     1      42.453 -14.250   3.233  1.00  0.00     0.039 C 
HETATM    5  C   UNL     1      41.607 -15.396   3.864  1.00  0.00    -0.013 C 
HETATM    6  C   UNL     1      42.467 -16.642   4.209  1.00  0.00     0.245 C 
HETATM    7  N   UNL     1      43.350 -16.409   5.411  1.00  0.00    -0.065 N 
HETATM    8  H   UNL     1      44.005 -15.640   5.217  1.00  0.00     0.280 HD
HETATM    9  C   UNL     1      42.559 -16.017   6.656  1.00  0.00     0.244 C 
HETATM   10  C   UNL     1      41.791 -14.707   6.407  1.00  0.00     0.045 C 
HETATM   11  C   UNL     1      40.890 -14.911   5.163  1.00  0.00     0.022 C 
HETATM   12  C   UNL     1      40.483 -15.793   2.855  1.00  0.00     0.039 C 
HETATM   13  C   UNL     1      40.958 -16.032   1.427  1.00  0.00     0.236 C 
ENDROOT
BRANCH   7  14
HETATM   14  C   UNL     1      44.184 -17.624   5.707  1.00  0.00     0.188 A 
HETATM   15  C   UNL     1      43.450 -18.889   6.052  1.00  0.00     0.035 A 
HETATM   16  C   UNL     1      44.126 -18.753   4.718  1.00  0.00     0.035 A 
ENDBRANCH   7  14
BRANCH  10  17
HETATM   17  C   UNL     1      42.618 -13.424   6.367  1.00  0.00    -0.052 A 
HETATM   18  C   UNL     1      43.990 -13.371   6.666  1.00  0.00     0.007 A 
HETATM   19  C   UNL     1      44.696 -12.165   6.615  1.00  0.00     0.001 A 
HETATM   20  C   UNL     1      44.041 -10.981   6.294  1.00  0.00     0.000 A 
HETATM   21  C   UNL     1      42.675 -10.998   6.046  1.00  0.00     0.001 A 
HETATM   22  C   UNL     1      41.970 -12.202   6.095  1.00  0.00     0.007 A 
ENDBRANCH  10  17
BRANCH   1  23
HETATM   23  C   UNL     1      40.762 -13.641   0.551  1.00  0.00     0.323 C 
BRANCH  23  24
HETATM   24  C   UNL     1      40.245 -13.758  -0.833  1.00  0.00     0.198 A 
HETATM   25  O   UNL     1      40.805 -12.968  -1.782  1.00  0.00    -0.194 OA
HETATM   26  N   UNL     1      40.130 -13.250  -2.965  1.00  0.00    -0.112 NA
HETATM   27  C   UNL     1      39.230 -14.176  -2.605  1.00  0.00     0.152 A 
HETATM   28  C   UNL     1      38.250 -14.741  -3.554  1.00  0.00     0.096 C 
HETATM   29  N   UNL     1      39.283 -14.539  -1.275  1.00  0.00    -0.208 NA
ENDBRANCH  23  24
ENDBRANCH   1  23
TORSDOF 4
ENDMDL
MODEL 2
REMARK VINA RESULT:      -8.6      4.263      6.324
REMARK  4 active torsions:
REMARK  status: ('A' for Active; 'I' for Inactive)
REMARK    1  A    between atoms: C_5  and  C_6 
REMARK    2  A    between atoms: C_6  and  N_7 
REMARK    3  A    between atoms: N_13  and  C_15 
REMARK    4  A    between atoms: C_19  and  C_20 
ROOT
HETATM    1  N   UNL     1      42.684 -16.603   6.041  1.00  0.00    -0.064 N 
HETATM    2  H   UNL     1      42.316 -17.444   6.526  1.00  0.00     0.280 HD
HETATM    3  C   UNL     1      42.714 -15.526   7.082  1.00  0.00     0.236 C 
HETATM    4  C   UNL     1      43.042 -14.164   6.460  1.00  0.00     0.039 C 
HETATM    5  C   UNL     1      42.197 -13.768   5.213  1.00  0.00    -0.013 C 
HETATM    6  C   UNL     1      40.761 -13.318   5.593  1.00  0.00     0.245 C 
HETATM    7  N   UNL     1      40.745 -11.955   6.242  1.00  0.00    -0.065 N 
HETATM    8  H   UNL     1      41.290 -11.979   7.115  1.00  0.00     0.280 HD
HETATM    9  C   UNL     1      41.365 -10.875   5.359  1.00  0.00     0.244 C 
HETATM   10  C   UNL     1      42.836 -11.209   5.064  1.00  0.00     0.045 C 
HETATM   11  C   UNL     1      42.885 -12.616   4.415  1.00  0.00     0.022 C 
HETATM   12  C   UNL     1      42.127 -14.997   4.252  1.00  0.00     0.039 C 
HETATM   13  C   UNL     1      41.743 -16.312   4.920  1.00  0.00     0.236 C 
ENDROOT
BRANCH   7  14
HETATM   14  C   UNL     1      39.345 -11.556   6.617  1.00  0.00     0.188 A 
HETATM   15  C   UNL     1      39.191 -10.335   7.478  1.00  0.00     0.035 A 
HETATM   16  C   UNL     1      38.813 -10.282   6.025  1.00  0.00     0.035 A 
ENDBRANCH   7  14
BRANCH  10  17
HETATM   17  C   UNL     1      43.826 -11.025   6.211  1.00  0.00    -0.052 A 
HETATM   18  C   UNL     1      43.467 -10.534   7.478  1.00  0.00     0.007 A 
HETATM   19  C   UNL     1      44.420 -10.384   8.492  1.00  0.00     0.001 A 
HETATM   20  C   UNL     1      45.754 -10.691   8.253  1.00  0.00     0.000 A 
HETATM   21  C   UNL     1      46.143 -11.127   6.994  1.00  0.00     0.001 A 
HETATM   22  C   UNL     1      45.193 -11.279   5.982  1.00  0.00     0.007 A 
ENDBRANCH  10  17
BRANCH   1  23
HETATM   23  C   UNL     1      44.079 -17.098   5.595  1.00  0.00     0.323 C 
BRANCH  23  24
HETATM   24  C   UNL     1      43.991 -18.318   4.758  1.00  0.00     0.198 A 
HETATM   25  O   UNL     1      44.085 -19.517   5.384  1.00  0.00    -0.194 OA
HETATM   26  N   UNL     1      44.004 -20.480   4.385  1.00  0.00    -0.112 NA
HETATM   27  C   UNL     1      43.875 -19.762   3.260  1.00  0.00     0.152 A 
HETATM   28  C   UNL     1      43.797 -20.386   1.924  1.00  0.00     0.096 C 
HETATM   29  N   UNL     1      43.841 -18.396   3.454  1.00  0.00    -0.208 NA
ENDBRANCH  23  24
ENDBRANCH   1  23
TORSDOF 4
ENDMDL
MODEL 3
REMARK VINA RESULT:      -8.4      3.486      7.932
REMARK  4 active torsions:
REMARK  status: ('A' for Active; 'I' for Inactive)
REMARK    1  A    between atoms: C_5  and  C_6 
REMARK    2  A    between atoms: C_6  and  N_7 
REMARK    3  A    between atoms: N_13  and  C_15 
REMARK    4  A    between atoms: C_19  and  C_20 
ROOT
HETATM    1  N   UNL     1      43.524 -11.693   5.723  1.00  0.00    -0.064 N 
HETATM    2  H   UNL     1      44.050 -10.812   5.563  1.00  0.00     0.280 HD
HETATM    3  C   UNL     1      43.825 -12.554   4.534  1.00  0.00     0.236 C 
HETATM    4  C   UNL     1      42.950 -13.813   4.528  1.00  0.00     0.039 C 
HETATM    5  C   UNL     1      41.423 -13.578   4.727  1.00  0.00    -0.013 C 
HETATM    6  C   UNL     1      40.741 -13.023   3.447  1.00  0.00     0.245 C 
HETATM    7  N   UNL     1      40.607 -14.074   2.372  1.00  0.00    -0.065 N 
HETATM    8  H   UNL     1      41.540 -14.406   2.092  1.00  0.00     0.280 HD
HETATM    9  C   UNL     1      39.821 -15.297   2.839  1.00  0.00     0.244 C 
HETATM   10  C   UNL     1      40.533 -15.965   4.027  1.00  0.00     0.045 C 
HETATM   11  C   UNL     1      40.704 -14.900   5.141  1.00  0.00     0.022 C 
HETATM   12  C   UNL     1      41.227 -12.574   5.907  1.00  0.00     0.039 C 
HETATM   13  C   UNL     1      42.084 -11.317   5.828  1.00  0.00     0.236 C 
ENDROOT
BRANCH   7  14
HETATM   14  C   UNL     1      39.963 -13.502   1.140  1.00  0.00     0.188 A 
HETATM   15  C   UNL     1      40.879 -12.981   0.070  1.00  0.00     0.035 A 
HETATM   16  C   UNL     1      40.134 -14.268  -0.140  1.00  0.00     0.035 A 
ENDBRANCH   7  14
BRANCH  10  17
HETATM   17  C   UNL     1      41.810 -16.741   3.715  1.00  0.00    -0.052 A 
HETATM   18  C   UNL     1      42.173 -17.155   2.423  1.00  0.00     0.007 A 
HETATM   19  C   UNL     1      43.357 -17.867   2.197  1.00  0.00     0.001 A 
HETATM   20  C   UNL     1      44.186 -18.205   3.260  1.00  0.00     0.000 A 
HETATM   21  C   UNL     1      43.823 -17.853   4.553  1.00  0.00     0.001 A 
HETATM   22  C   UNL     1      42.643 -17.142   4.779  1.00  0.00     0.007 A 
ENDBRANCH  10  17
BRANCH   1  23
HETATM   23  C   UNL     1      44.156 -12.187   7.044  1.00  0.00     0.323 C 
BRANCH  23  24
HETATM   24  C   UNL     1      44.398 -11.073   7.991  1.00  0.00     0.198 A 
HETATM   25  O   UNL     1      45.171 -10.044   7.567  1.00  0.00    -0.194 OA
HETATM   26  N   UNL     1      45.262  -9.163   8.639  1.00  0.00    -0.112 NA
HETATM   27  C   UNL     1      44.538  -9.754   9.599  1.00  0.00     0.152 A 
HETATM   28  C   UNL     1      44.395  -9.181  10.953  1.00  0.00     0.096 C 
HETATM   29  N   UNL     1      43.959 -10.950   9.226  1.00  0.00    -0.208 NA
ENDBRANCH  23  24
ENDBRANCH   1  23
TORSDOF 4
ENDMDL
MODEL 4
REMARK VINA RESULT:      -8.2     15.369     17.357
REMARK  4 active torsions:
REMARK  status: ('A' for Active; 'I' for Inactive)
REMARK    1  A    between atoms: C_5  and  C_6 
REMARK    2  A    between atoms: C_6  and  N_7 
REMARK    3  A    between atoms: N_13  and  C_15 
REMARK    4  A    between atoms: C_19  and  C_20 
ROOT
HETATM    1  N   UNL     1      44.764 -30.391   2.575  1.00  0.00    -0.064 N 
HETATM    2  H   UNL     1      44.571 -31.131   3.277  1.00  0.00     0.280 HD
HETATM    3  C   UNL     1      44.927 -31.115   1.273  1.00  0.00     0.236 C 
HETATM    4  C   UNL     1      45.422 -30.168   0.173  1.00  0.00     0.039 C 
HETATM    5  C   UNL     1      46.663 -29.299   0.535  1.00  0.00    -0.013 C 
HETATM    6  C   UNL     1      47.982 -30.116   0.512  1.00  0.00     0.245 C 
HETATM    7  N   UNL     1      48.420 -30.450  -0.894  1.00  0.00    -0.065 N 
HETATM    8  H   UNL     1      47.703 -31.028  -1.353  1.00  0.00     0.280 HD
HETATM    9  C   UNL     1      48.613 -29.208  -1.761  1.00  0.00     0.244 C 
HETATM   10  C   UNL     1      47.291 -28.432  -1.879  1.00  0.00     0.045 C 
HETATM   11  C   UNL     1      46.806 -28.094  -0.446  1.00  0.00     0.022 C 
HETATM   12  C   UNL     1      46.443 -28.693   1.958  1.00  0.00     0.039 C 
HETATM   13  C   UNL     1      46.005 -29.692   3.020  1.00  0.00     0.236 C 
ENDROOT
BRANCH   7  14
HETATM   14  C   UNL     1      49.687 -31.258  -0.883  1.00  0.00     0.188 A 
HETATM   15  C   UNL     1      50.870 -30.684  -1.609  1.00  0.00     0.035 A 
HETATM   16  C   UNL     1      50.847 -30.704  -0.107  1.00  0.00     0.035 A 
ENDBRANCH   7  14
BRANCH  10  17
HETATM   17  C   UNL     1      46.211 -29.045  -2.767  1.00  0.00    -0.052 A 
HETATM   18  C   UNL     1      46.358 -30.272  -3.438  1.00  0.00     0.007 A 
HETATM   19  C   UNL     1      45.334 -30.784  -4.241  1.00  0.00     0.001 A 
HETATM   20  C   UNL     1      44.155 -30.069  -4.416  1.00  0.00     0.000 A 
HETATM   21  C   UNL     1      44.006 -28.830  -3.807  1.00  0.00     0.001 A 
HETATM   22  C   UNL     1      45.028 -28.319  -3.004  1.00  0.00     0.007 A 
ENDBRANCH  10  17
BRANCH   1  23
HETATM   23  C   UNL     1      43.478 -29.539   2.674  1.00  0.00     0.323 C 
BRANCH  23  24
HETATM   24  C   UNL     1      42.255 -30.364   2.531  1.00  0.00     0.198 A 
HETATM   25  O   UNL     1      41.537 -30.230   1.389  1.00  0.00    -0.194 OA
HETATM   26  N   UNL     1      40.443 -31.080   1.521  1.00  0.00    -0.112 NA
HETATM   27  C   UNL     1      40.613 -31.633   2.730  1.00  0.00     0.152 A 
HETATM   28  C   UNL     1      39.645 -32.584   3.312  1.00  0.00     0.096 C 
HETATM   29  N   UNL     1      41.754 -31.225   3.391  1.00  0.00    -0.208 NA
ENDBRANCH  23  24
ENDBRANCH   1  23
TORSDOF 4
ENDMDL
MODEL 5
REMARK VINA RESULT:      -7.9      3.476      8.012
REMARK  4 active torsions:
REMARK  status: ('A' for Active; 'I' for Inactive)
REMARK    1  A    between atoms: C_5  and  C_6 
REMARK    2  A    between atoms: C_6  and  N_7 
REMARK    3  A    between atoms: N_13  and  C_15 
REMARK    4  A    between atoms: C_19  and  C_20 
ROOT
HETATM    1  N   UNL     1      42.014 -10.382   4.873  1.00  0.00    -0.064 N 
HETATM    2  H   UNL     1      42.609  -9.542   5.008  1.00  0.00     0.280 HD
HETATM    3  C   UNL     1      42.795 -11.276   3.959  1.00  0.00     0.236 C 
HETATM    4  C   UNL     1      41.951 -12.472   3.502  1.00  0.00     0.039 C 
HETATM    5  C   UNL     1      40.539 -12.129   2.941  1.00  0.00    -0.013 C 
HETATM    6  C   UNL     1      40.601 -11.544   1.504  1.00  0.00     0.245 C 
HETATM    7  N   UNL     1      40.935 -12.596   0.475  1.00  0.00    -0.065 N 
HETATM    8  H   UNL     1      41.863 -12.996   0.674  1.00  0.00     0.280 HD
HETATM    9  C   UNL     1      39.942 -13.756   0.475  1.00  0.00     0.244 C 
HETATM   10  C   UNL     1      39.942 -14.457   1.844  1.00  0.00     0.045 C 
HETATM   11  C   UNL     1      39.623 -13.392   2.924  1.00  0.00     0.022 C 
HETATM   12  C   UNL     1      39.863 -11.100   3.901  1.00  0.00     0.039 C 
HETATM   13  C   UNL     1      40.732  -9.906   4.276  1.00  0.00     0.236 C 
ENDROOT
BRANCH   7  14
HETATM   14  C   UNL     1      41.009 -11.997  -0.901  1.00  0.00     0.188 A 
HETATM   15  C   UNL     1      39.898 -11.067  -1.301  1.00  0.00     0.035 A 
HETATM   16  C   UNL     1      41.262 -10.519  -0.992  1.00  0.00     0.035 A 
ENDBRANCH   7  14
BRANCH  10  17
HETATM   17  C   UNL     1      41.156 -15.323   2.171  1.00  0.00    -0.052 A 
HETATM   18  C   UNL     1      42.257 -15.479   1.312  1.00  0.00     0.007 A 
HETATM   19  C   UNL     1      43.341 -16.289   1.665  1.00  0.00     0.001 A 
HETATM   20  C   UNL     1      43.336 -16.984   2.869  1.00  0.00     0.000 A 
HETATM   21  C   UNL     1      42.236 -16.889   3.711  1.00  0.00     0.001 A 
HETATM   22  C   UNL     1      41.154 -16.079   3.360  1.00  0.00     0.007 A 
ENDBRANCH  10  17
BRANCH   1  23
HETATM   23  C   UNL     1      41.892 -10.902   6.323  1.00  0.00     0.323 C 
BRANCH  23  24
HETATM   24  C   UNL     1      43.145 -10.705   7.089  1.00  0.00     0.198 A 
HETATM   25  O   UNL     1      43.880 -11.805   7.384  1.00  0.00    -0.194 OA
HETATM   26  N   UNL     1      44.971 -11.353   8.119  1.00  0.00    -0.112 NA
HETATM   27  C   UNL     1      44.777 -10.029   8.195  1.00  0.00     0.152 A 
HETATM   28  C   UNL     1      45.687  -9.135   8.939  1.00  0.00     0.096 C 
HETATM   29  N   UNL     1      43.649  -9.578   7.541  1.00  0.00    -0.208 NA
ENDBRANCH  23  24
ENDBRANCH   1  23
TORSDOF 4
ENDMDL
MODEL 6
REMARK VINA RESULT:      -7.9      1.366      1.770
REMARK  4 active torsions:
REMARK  status: ('A' for Active; 'I' for Inactive)
REMARK    1  A    between atoms: C_5  and  C_6 
REMARK    2  A    between atoms: C_6  and  N_7 
REMARK    3  A    between atoms: N_13  and  C_15 
REMARK    4  A    between atoms: C_19  and  C_20 
ROOT
HETATM    1  N   UNL     1      41.110 -14.634   1.019  1.00  0.00    -0.064 N 
HETATM    2  H   UNL     1      41.402 -14.790   0.034  1.00  0.00     0.280 HD
HETATM    3  C   UNL     1      42.357 -14.224   1.740  1.00  0.00     0.236 C 
HETATM    4  C   UNL     1      42.123 -14.158   3.254  1.00  0.00     0.039 C 
HETATM    5  C   UNL     1      41.447 -15.409   3.890  1.00  0.00    -0.013 C 
HETATM    6  C   UNL     1      42.430 -16.603   4.031  1.00  0.00     0.245 C 
HETATM    7  N   UNL     1      43.437 -16.383   5.133  1.00  0.00    -0.065 N 
HETATM    8  H   UNL     1      44.006 -15.552   4.923  1.00  0.00     0.280 HD
HETATM    9  C   UNL     1      42.782 -16.143   6.491  1.00  0.00     0.244 C 
HETATM   10  C   UNL     1      41.898 -14.885   6.439  1.00  0.00     0.045 C 
HETATM   11  C   UNL     1      40.865 -15.075   5.299  1.00  0.00     0.022 C 
HETATM   12  C   UNL     1      40.237 -15.826   2.995  1.00  0.00     0.039 C 
HETATM   13  C   UNL     1      40.545 -15.926   1.506  1.00  0.00     0.236 C 
ENDROOT
BRANCH   7  14
HETATM   14  C   UNL     1      44.387 -17.544   5.231  1.00  0.00     0.188 A 
HETATM   15  C   UNL     1      43.790 -18.891   5.529  1.00  0.00     0.035 A 
HETATM   16  C   UNL     1      44.309 -18.586   4.152  1.00  0.00     0.035 A 
ENDBRANCH   7  14
BRANCH  10  17
HETATM   17  C   UNL     1      42.619 -13.540   6.401  1.00  0.00    -0.052 A 
HETATM   18  C   UNL     1      41.999 -12.334   6.030  1.00  0.00     0.007 A 
HETATM   19  C   UNL     1      42.712 -11.131   6.012  1.00  0.00     0.001 A 
HETATM   20  C   UNL     1      44.064 -11.110   6.333  1.00  0.00     0.000 A 
HETATM   21  C   UNL     1      44.712 -12.297   6.651  1.00  0.00     0.001 A 
HETATM   22  C   UNL     1      44.001 -13.498   6.672  1.00  0.00     0.007 A 
ENDBRANCH  10  17
BRANCH   1  23
HETATM   23  C   UNL     1      40.069 -13.503   0.849  1.00  0.00     0.323 C 
BRANCH  23  24
HETATM   24  C   UNL     1      40.483 -12.522  -0.181  1.00  0.00     0.198 A 
HETATM   25  O   UNL     1      41.024 -11.354   0.245  1.00  0.00    -0.194 OA
HETATM   26  N   UNL     1      41.292 -10.614  -0.901  1.00  0.00    -0.112 NA
HETATM   27  C   UNL     1      40.880 -11.409  -1.898  1.00  0.00     0.152 A 
HETATM   28  C   UNL     1      40.936 -11.000  -3.316  1.00  0.00     0.096 C 
HETATM   29  N   UNL     1      40.383 -12.629  -1.488  1.00  0.00    -0.208 NA
ENDBRANCH  23  24
ENDBRANCH   1  23
TORSDOF 4
ENDMDL
MODEL 7
REMARK VINA RESULT:      -7.4      2.913      7.307
REMARK  4 active torsions:
REMARK  status: ('A' for Active; 'I' for Inactive)
REMARK    1  A    between atoms: C_5  and  C_6 
REMARK    2  A    between atoms: C_6  and  N_7 
REMARK    3  A    between atoms: N_13  and  C_15 
REMARK    4  A    between atoms: C_19  and  C_20 
ROOT
HETATM    1  N   UNL     1      41.857 -10.242   4.232  1.00  0.00    -0.064 N 
HETATM    2  H   UNL     1      42.461  -9.400   4.297  1.00  0.00     0.280 HD
HETATM    3  C   UNL     1      42.644 -11.232   3.428  1.00  0.00     0.236 C 
HETATM    4  C   UNL     1      41.793 -12.456   3.073  1.00  0.00     0.039 C 
HETATM    5  C   UNL     1      40.398 -12.154   2.450  1.00  0.00    -0.013 C 
HETATM    6  C   UNL     1      40.498 -11.714   0.964  1.00  0.00     0.245 C 
HETATM    7  N   UNL     1      40.838 -12.868   0.051  1.00  0.00    -0.065 N 
HETATM    8  H   UNL     1      41.756 -13.257   0.310  1.00  0.00     0.280 HD
HETATM    9  C   UNL     1      39.829 -14.009   0.143  1.00  0.00     0.244 C 
HETATM   10  C   UNL     1      39.791 -14.571   1.575  1.00  0.00     0.045 C 
HETATM   11  C   UNL     1      39.464 -13.401   2.538  1.00  0.00     0.022 C 
HETATM   12  C   UNL     1      39.716 -11.026   3.288  1.00  0.00     0.039 C 
HETATM   13  C   UNL     1      40.594  -9.811   3.563  1.00  0.00     0.236 C 
ENDROOT
BRANCH   7  14
HETATM   14  C   UNL     1      40.949 -12.408  -1.376  1.00  0.00     0.188 A 
HETATM   15  C   UNL     1      40.552 -13.389  -2.442  1.00  0.00     0.035 A 
HETATM   16  C   UNL     1      39.668 -12.213  -2.134  1.00  0.00     0.035 A 
ENDBRANCH   7  14
BRANCH  10  17
HETATM   17  C   UNL     1      40.984 -15.416   2.013  1.00  0.00    -0.052 A 
HETATM   18  C   UNL     1      41.064 -16.067   3.256  1.00  0.00     0.007 A 
HETATM   19  C   UNL     1      42.186 -16.826   3.604  1.00  0.00     0.001 A 
HETATM   20  C   UNL     1      43.264 -16.927   2.733  1.00  0.00     0.000 A 
HETATM   21  C   UNL     1      43.233 -16.249   1.521  1.00  0.00     0.001 A 
HETATM   22  C   UNL     1      42.112 -15.493   1.172  1.00  0.00     0.007 A 
ENDBRANCH  10  17
BRANCH   1  23
HETATM   23  C   UNL     1      41.697 -10.614   5.723  1.00  0.00     0.323 C 
BRANCH  23  24
HETATM   24  C   UNL     1      42.640 -11.683   6.131  1.00  0.00     0.198 A 
HETATM   25  O   UNL     1      43.904 -11.315   6.453  1.00  0.00    -0.194 OA
HETATM   26  N   UNL     1      44.579 -12.490   6.765  1.00  0.00    -0.112 NA
HETATM   27  C   UNL     1      43.653 -13.444   6.594  1.00  0.00     0.152 A 
HETATM   28  C   UNL     1      43.949 -14.879   6.775  1.00  0.00     0.096 C 
HETATM   29  N   UNL     1      42.412 -12.976   6.214  1.00  0.00    -0.208 NA
ENDBRANCH  23  24
ENDBRANCH   1  23
TORSDOF 4
ENDMDL
MODEL 8
REMARK VINA RESULT:      -7.2      9.487     13.224
REMARK  4 active torsions:
REMARK  status: ('A' for Active; 'I' for Inactive)
REMARK    1  A    between atoms: C_5  and  C_6 
REMARK    2  A    between atoms: C_6  and  N_7 
REMARK    3  A    between atoms: N_13  and  C_15 
REMARK    4  A    between atoms: C_19  and  C_20 
ROOT
HETATM    1  N   UNL     1      42.468  -9.417  12.409  1.00  0.00    -0.064 N 
HETATM    2  H   UNL     1      43.109 -10.208  12.610  1.00  0.00     0.280 HD
HETATM    3  C   UNL     1      43.241  -8.183  12.759  1.00  0.00     0.236 C 
HETATM    4  C   UNL     1      42.348  -6.938  12.708  1.00  0.00     0.039 C 
HETATM    5  C   UNL     1      40.999  -7.040  13.481  1.00  0.00    -0.013 C 
HETATM    6  C   UNL     1      41.190  -6.917  15.017  1.00  0.00     0.245 C 
HETATM    7  N   UNL     1      41.514  -5.504  15.438  1.00  0.00    -0.065 N 
HETATM    8  H   UNL     1      42.398  -5.206  15.003  1.00  0.00     0.280 HD
HETATM    9  C   UNL     1      40.446  -4.501  15.008  1.00  0.00     0.244 C 
HETATM   10  C   UNL     1      40.314  -4.489  13.476  1.00  0.00     0.045 C 
HETATM   11  C   UNL     1      40.002  -5.935  13.013  1.00  0.00     0.022 C 
HETATM   12  C   UNL     1      40.337  -8.413  13.141  1.00  0.00     0.039 C 
HETATM   13  C   UNL     1      41.261  -9.618  13.262  1.00  0.00     0.236 C 
ENDROOT
BRANCH   7  14
HETATM   14  C   UNL     1      41.713  -5.420  16.926  1.00  0.00     0.188 A 
HETATM   15  C   UNL     1      40.586  -5.903  17.794  1.00  0.00     0.035 A 
HETATM   16  C   UNL     1      41.844  -6.715  17.674  1.00  0.00     0.035 A 
ENDBRANCH   7  14
BRANCH  10  17
HETATM   17  C   UNL     1      41.444  -3.821  12.695  1.00  0.00    -0.052 A 
HETATM   18  C   UNL     1      42.392  -2.963  13.277  1.00  0.00     0.007 A 
HETATM   19  C   UNL     1      43.405  -2.377  12.509  1.00  0.00     0.001 A 
HETATM   20  C   UNL     1      43.473  -2.612  11.141  1.00  0.00     0.000 A 
HETATM   21  C   UNL     1      42.516  -3.414  10.533  1.00  0.00     0.001 A 
HETATM   22  C   UNL     1      41.506  -4.000  11.298  1.00  0.00     0.007 A 
ENDBRANCH  10  17
BRANCH   1  23
HETATM   23  C   UNL     1      42.221  -9.607  10.894  1.00  0.00     0.323 C 
BRANCH  23  24
HETATM   24  C   UNL     1      43.486  -9.808  10.149  1.00  0.00     0.198 A 
HETATM   25  O   UNL     1      44.165 -10.962  10.364  1.00  0.00    -0.194 OA
HETATM   26  N   UNL     1      45.310 -10.886   9.577  1.00  0.00    -0.112 NA
HETATM   27  C   UNL     1      45.205  -9.693   8.975  1.00  0.00     0.152 A 
HETATM   28  C   UNL     1      46.243  -9.168   8.066  1.00  0.00     0.096 C 
HETATM   29  N   UNL     1      44.060  -8.991   9.292  1.00  0.00    -0.208 NA
ENDBRANCH  23  24
ENDBRANCH   1  23
TORSDOF 4
ENDMDL
MODEL 9
REMARK VINA RESULT:      -7.2      3.567      7.281
REMARK  4 active torsions:
REMARK  status: ('A' for Active; 'I' for Inactive)
REMARK    1  A    between atoms: C_5  and  C_6 
REMARK    2  A    between atoms: C_6  and  N_7 
REMARK    3  A    between atoms: N_13  and  C_15 
REMARK    4  A    between atoms: C_19  and  C_20 
ROOT
HETATM    1  N   UNL     1      41.274 -12.110   6.473  1.00  0.00    -0.064 N 
HETATM    2  H   UNL     1      40.777 -12.166   7.383  1.00  0.00     0.280 HD
HETATM    3  C   UNL     1      40.513 -13.014   5.552  1.00  0.00     0.236 C 
HETATM    4  C   UNL     1      41.253 -13.195   4.221  1.00  0.00     0.039 C 
HETATM    5  C   UNL     1      42.758 -13.579   4.329  1.00  0.00    -0.013 C 
HETATM    6  C   UNL     1      42.960 -15.070   4.716  1.00  0.00     0.245 C 
HETATM    7  N   UNL     1      42.634 -16.002   3.574  1.00  0.00    -0.065 N 
HETATM    8  H   UNL     1      41.646 -15.895   3.308  1.00  0.00     0.280 HD
HETATM    9  C   UNL     1      43.465 -15.717   2.326  1.00  0.00     0.244 C 
HETATM   10  C   UNL     1      43.196 -14.289   1.823  1.00  0.00     0.045 C 
HETATM   11  C   UNL     1      43.502 -13.309   2.985  1.00  0.00     0.022 C 
HETATM   12  C   UNL     1      43.427 -12.662   5.402  1.00  0.00     0.039 C 
HETATM   13  C   UNL     1      42.673 -12.565   6.723  1.00  0.00     0.236 C 
ENDROOT
BRANCH   7  14
HETATM   14  C   UNL     1      42.819 -17.437   3.984  1.00  0.00     0.188 A 
HETATM   15  C   UNL     1      43.726 -18.279   3.134  1.00  0.00     0.035 A 
HETATM   16  C   UNL     1      44.173 -17.834   4.498  1.00  0.00     0.035 A 
ENDBRANCH   7  14
BRANCH  10  17
HETATM   17  C   UNL     1      41.851 -14.041   1.145  1.00  0.00    -0.052 A 
HETATM   18  C   UNL     1      40.976 -15.067   0.752  1.00  0.00     0.007 A 
HETATM   19  C   UNL     1      39.755 -14.780   0.132  1.00  0.00     0.001 A 
HETATM   20  C   UNL     1      39.397 -13.464  -0.136  1.00  0.00     0.000 A 
HETATM   21  C   UNL     1      40.268 -12.434   0.195  1.00  0.00     0.001 A 
HETATM   22  C   UNL     1      41.485 -12.721   0.815  1.00  0.00     0.007 A 
ENDBRANCH  10  17
BRANCH   1  23
HETATM   23  C   UNL     1      41.137 -10.605   6.147  1.00  0.00     0.323 C 
BRANCH  23  24
HETATM   24  C   UNL     1      41.698  -9.753   7.221  1.00  0.00     0.198 A 
HETATM   25  O   UNL     1      40.901  -9.472   8.281  1.00  0.00    -0.194 OA
HETATM   26  N   UNL     1      41.646  -8.647   9.116  1.00  0.00    -0.112 NA
HETATM   27  C   UNL     1      42.813  -8.511   8.470  1.00  0.00     0.152 A 
HETATM   28  C   UNL     1      43.910  -7.664   8.981  1.00  0.00     0.096 C 
HETATM   29  N   UNL     1      42.894  -9.209   7.283  1.00  0.00    -0.208 NA
ENDBRANCH  23  24
ENDBRANCH   1  23
TORSDOF 4
ENDMDL
MODEL 10
REMARK VINA RESULT:      -6.9     15.235     17.306
REMARK  4 active torsions:
REMARK  status: ('A' for Active; 'I' for Inactive)
REMARK    1  A    between atoms: C_5  and  C_6 
REMARK    2  A    between atoms: C_6  and  N_7 
REMARK    3  A    between atoms: N_13  and  C_15 
REMARK    4  A    between atoms: C_19  and  C_20 
ROOT
HETATM    1  N   UNL     1      41.700 -30.634   2.877  1.00  0.00    -0.064 N 
HETATM    2  H   UNL     1      40.816 -30.141   3.109  1.00  0.00     0.280 HD
HETATM    3  C   UNL     1      42.768 -29.586   2.957  1.00  0.00     0.236 C 
HETATM    4  C   UNL     1      44.107 -30.122   2.437  1.00  0.00     0.039 C 
HETATM    5  C   UNL     1      44.061 -30.826   1.048  1.00  0.00    -0.013 C 
HETATM    6  C   UNL     1      43.940 -29.814  -0.123  1.00  0.00     0.245 C 
HETATM    7  N   UNL     1      45.228 -29.064  -0.362  1.00  0.00    -0.065 N 
HETATM    8  H   UNL     1      45.475 -28.521   0.477  1.00  0.00     0.280 HD
HETATM    9  C   UNL     1      46.405 -29.992  -0.654  1.00  0.00     0.244 C 
HETATM   10  C   UNL     1      46.651 -30.929   0.540  1.00  0.00     0.045 C 
HETATM   11  C   UNL     1      45.335 -31.699   0.822  1.00  0.00     0.022 C 
HETATM   12  C   UNL     1      42.843 -31.802   1.029  1.00  0.00     0.039 C 
HETATM   13  C   UNL     1      41.528 -31.197   1.506  1.00  0.00     0.236 C 
ENDROOT
BRANCH   7  14
HETATM   14  C   UNL     1      45.074 -28.078  -1.486  1.00  0.00     0.188 A 
HETATM   15  C   UNL     1      46.098 -28.129  -2.584  1.00  0.00     0.035 A 
HETATM   16  C   UNL     1      44.703 -28.628  -2.833  1.00  0.00     0.035 A 
ENDBRANCH   7  14
BRANCH  10  17
HETATM   17  C   UNL     1      47.281 -30.307   1.784  1.00  0.00    -0.052 A 
HETATM   18  C   UNL     1      47.710 -28.971   1.854  1.00  0.00     0.007 A 
HETATM   19  C   UNL     1      48.283 -28.455   3.021  1.00  0.00     0.001 A 
HETATM   20  C   UNL     1      48.466 -29.270   4.132  1.00  0.00     0.000 A 
HETATM   21  C   UNL     1      48.099 -30.608   4.071  1.00  0.00     0.001 A 
HETATM   22  C   UNL     1      47.526 -31.122   2.906  1.00  0.00     0.007 A 
ENDBRANCH  10  17
BRANCH   1  23
HETATM   23  C   UNL     1      41.760 -31.692   4.002  1.00  0.00     0.323 C 
BRANCH  23  24
HETATM   24  C   UNL     1      40.407 -32.114   4.437  1.00  0.00     0.198 A 
HETATM   25  O   UNL     1      39.960 -31.656   5.632  1.00  0.00    -0.194 OA
HETATM   26  N   UNL     1      38.699 -32.215   5.811  1.00  0.00    -0.112 NA
HETATM   27  C   UNL     1      38.519 -32.955   4.708  1.00  0.00     0.152 A 
HETATM   28  C   UNL     1      37.312 -33.776   4.490  1.00  0.00     0.096 C 
HETATM   29  N   UNL     1      39.563 -32.902   3.807  1.00  0.00    -0.208 NA
ENDBRANCH  23  24
ENDBRANCH   1  23
TORSDOF 4
ENDMDL
