MODEL 1
REMARK VINA RESULT:      -8.2      0.000      0.000
REMARK  5 active torsions:
REMARK  status: ('A' for Active; 'I' for Inactive)
REMARK    1  A    between atoms: C_2  and  C_3 
REMARK    2  A    between atoms: C_3  and  N_4 
REMARK       I    between atoms: N_4  and  C_5 
REMARK    3  A    between atoms: C_5  and  C_6 
REMARK    4  A    between atoms: C_19  and  O_20 
REMARK    5  A    between atoms: O_20  and  C_21 
ROOT
HETATM    1  N   UNL     1      42.092 -15.767   4.132  1.00  0.00    -0.353 N 
HETATM    2  C   UNL     1      42.756 -16.371   3.090  1.00  0.00     0.254 C 
HETATM    3  O   UNL     1      43.033 -15.783   2.049  1.00  0.00    -0.268 OA
HETATM    4  H   UNL     1      41.827 -16.329   4.941  1.00  0.00     0.163 HD
ENDROOT
BRANCH   1   5
HETATM    5  C   UNL     1      41.602 -14.420   3.995  1.00  0.00     0.161 C 
BRANCH   5   6
HETATM    6  C   UNL     1      42.642 -13.391   4.334  1.00  0.00    -0.035 A 
HETATM    7  C   UNL     1      43.155 -12.537   3.354  1.00  0.00     0.028 A 
HETATM    8  C   UNL     1      44.063 -11.559   3.732  1.00  0.00     0.120 A 
HETATM    9  N   UNL     1      44.486 -11.372   5.000  1.00  0.00    -0.237 NA
HETATM   10  C   UNL     1      43.992 -12.220   5.924  1.00  0.00     0.164 A 
HETATM   11  C   UNL     1      43.099 -13.242   5.647  1.00  0.00     0.066 A 
BRANCH  10  12
HETATM   12  O   UNL     1      44.380 -12.075   7.242  1.00  0.00    -0.329 OA
BRANCH  12  13
HETATM   13  C   UNL     1      44.616 -10.718   7.672  1.00  0.00     0.130 C 
HETATM   14  C   UNL     1      44.315 -10.457   9.173  1.00  0.00     0.032 C 
HETATM   15  C   UNL     1      45.517  -9.497   9.179  1.00  0.00     0.005 C 
HETATM   16  C   UNL     1      46.077 -10.305   7.993  1.00  0.00     0.032 C 
ENDBRANCH  12  13
ENDBRANCH  10  12
ENDBRANCH   5   6
ENDBRANCH   1   5
BRANCH   2  17
HETATM   17  C   UNL     1      43.130 -17.795   3.251  1.00  0.00     0.066 A 
HETATM   18  C   UNL     1      43.361 -18.377   4.514  1.00  0.00     0.100 A 
HETATM   19  C   UNL     1      43.705 -19.728   4.585  1.00  0.00     0.066 A 
HETATM   20  N   UNL     1      43.308 -17.833   5.783  1.00  0.00    -0.241 NA
HETATM   21  N   UNL     1      43.858 -19.976   5.926  1.00  0.00    -0.349 N 
HETATM   22  C   UNL     1      43.832 -20.547   3.461  1.00  0.00     0.074 A 
HETATM   23  H   UNL     1      44.109 -20.862   6.344  1.00  0.00     0.167 HD
HETATM   24  C   UNL     1      43.611 -18.814   6.602  1.00  0.00     0.208 A 
HETATM   25  C   UNL     1      43.596 -19.946   2.225  1.00  0.00     0.119 A 
HETATM   26  F   UNL     1      43.704 -20.690   1.115  1.00  0.00    -0.206 F 
HETATM   27  C   UNL     1      43.254 -18.604   2.107  1.00  0.00     0.061 A 
ENDBRANCH   2  17
TORSDOF 5
ENDMDL
MODEL 2
REMARK VINA RESULT:      -8.0      1.607      2.120
REMARK  5 active torsions:
REMARK  status: ('A' for Active; 'I' for Inactive)
REMARK    1  A    between atoms: C_2  and  C_3 
REMARK    2  A    between atoms: C_3  and  N_4 
REMARK       I    between atoms: N_4  and  C_5 
REMARK    3  A    between atoms: C_5  and  C_6 
REMARK    4  A    between atoms: C_19  and  O_20 
REMARK    5  A    between atoms: O_20  and  C_21 
ROOT
HETATM    1  N   UNL     1      42.000 -15.371   2.812  1.00  0.00    -0.353 N 
HETATM    2  C   UNL     1      42.981 -16.245   2.405  1.00  0.00     0.254 C 
HETATM    3  O   UNL     1      43.569 -16.131   1.333  1.00  0.00    -0.268 OA
HETATM    4  H   UNL     1      41.498 -15.560   3.681  1.00  0.00     0.163 HD
ENDROOT
BRANCH   1   5
HETATM    5  C   UNL     1      41.551 -14.324   1.932  1.00  0.00     0.161 C 
BRANCH   5   6
HETATM    6  C   UNL     1      41.846 -12.953   2.468  1.00  0.00    -0.035 A 
HETATM    7  C   UNL     1      40.908 -11.923   2.364  1.00  0.00     0.028 A 
HETATM    8  C   UNL     1      41.203 -10.694   2.935  1.00  0.00     0.120 A 
HETATM    9  N   UNL     1      42.347 -10.425   3.597  1.00  0.00    -0.237 NA
HETATM   10  C   UNL     1      43.245 -11.428   3.668  1.00  0.00     0.164 A 
HETATM   11  C   UNL     1      43.057 -12.683   3.113  1.00  0.00     0.066 A 
BRANCH  10  12
HETATM   12  O   UNL     1      44.434 -11.218   4.340  1.00  0.00    -0.329 OA
BRANCH  12  13
HETATM   13  C   UNL     1      44.459 -11.674   5.709  1.00  0.00     0.130 C 
HETATM   14  C   UNL     1      45.777 -11.358   6.466  1.00  0.00     0.032 C 
HETATM   15  C   UNL     1      44.921 -11.122   7.723  1.00  0.00     0.005 C 
HETATM   16  C   UNL     1      43.750 -10.799   6.776  1.00  0.00     0.032 C 
ENDBRANCH  12  13
ENDBRANCH  10  12
ENDBRANCH   5   6
ENDBRANCH   1   5
BRANCH   2  17
HETATM   17  C   UNL     1      43.314 -17.369   3.311  1.00  0.00     0.066 A 
HETATM   18  C   UNL     1      43.355 -17.224   4.712  1.00  0.00     0.100 A 
HETATM   19  C   UNL     1      43.672 -18.333   5.498  1.00  0.00     0.066 A 
HETATM   20  N   UNL     1      43.124 -16.123   5.513  1.00  0.00    -0.241 NA
HETATM   21  N   UNL     1      43.627 -17.865   6.788  1.00  0.00    -0.349 N 
HETATM   22  C   UNL     1      43.952 -19.594   4.970  1.00  0.00     0.074 A 
HETATM   23  H   UNL     1      43.807 -18.404   7.624  1.00  0.00     0.167 HD
HETATM   24  C   UNL     1      43.297 -16.540   6.746  1.00  0.00     0.208 A 
HETATM   25  C   UNL     1      43.903 -19.710   3.581  1.00  0.00     0.119 A 
HETATM   26  F   UNL     1      44.162 -20.901   3.023  1.00  0.00    -0.206 F 
HETATM   27  C   UNL     1      43.594 -18.633   2.758  1.00  0.00     0.061 A 
ENDBRANCH   2  17
TORSDOF 5
ENDMDL
MODEL 3
REMARK VINA RESULT:      -7.9      2.058      2.792
REMARK  5 active torsions:
REMARK  status: ('A' for Active; 'I' for Inactive)
REMARK    1  A    between atoms: C_2  and  C_3 
REMARK    2  A    between atoms: C_3  and  N_4 
REMARK       I    between atoms: N_4  and  C_5 
REMARK    3  A    between atoms: C_5  and  C_6 
REMARK    4  A    between atoms: C_19  and  O_20 
REMARK    5  A    between atoms: O_20  and  C_21 
ROOT
HETATM    1  N   UNL     1      42.300 -14.808   1.691  1.00  0.00    -0.353 N 
HETATM    2  C   UNL     1      41.781 -16.016   2.098  1.00  0.00     0.254 C 
HETATM    3  O   UNL     1      40.615 -16.341   1.893  1.00  0.00    -0.268 OA
HETATM    4  H   UNL     1      43.256 -14.568   1.954  1.00  0.00     0.163 HD
ENDROOT
BRANCH   1   5
HETATM    5  C   UNL     1      41.447 -13.822   1.083  1.00  0.00     0.161 C 
BRANCH   5   6
HETATM    6  C   UNL     1      41.521 -12.490   1.773  1.00  0.00    -0.035 A 
HETATM    7  C   UNL     1      40.533 -11.522   1.577  1.00  0.00     0.028 A 
HETATM    8  C   UNL     1      40.613 -10.335   2.290  1.00  0.00     0.120 A 
HETATM    9  N   UNL     1      41.591 -10.051   3.175  1.00  0.00    -0.237 NA
HETATM   10  C   UNL     1      42.544 -10.992   3.332  1.00  0.00     0.164 A 
HETATM   11  C   UNL     1      42.568 -12.199   2.653  1.00  0.00     0.066 A 
BRANCH  10  12
HETATM   12  O   UNL     1      43.569 -10.764   4.230  1.00  0.00    -0.329 OA
BRANCH  12  13
HETATM   13  C   UNL     1      43.826 -11.837   5.160  1.00  0.00     0.130 C 
HETATM   14  C   UNL     1      44.942 -11.535   6.197  1.00  0.00     0.032 C 
HETATM   15  C   UNL     1      44.113 -12.328   7.222  1.00  0.00     0.005 C 
HETATM   16  C   UNL     1      42.873 -11.986   6.375  1.00  0.00     0.032 C 
ENDBRANCH  12  13
ENDBRANCH  10  12
ENDBRANCH   5   6
ENDBRANCH   1   5
BRANCH   2  17
HETATM   17  C   UNL     1      42.685 -16.940   2.821  1.00  0.00     0.066 A 
HETATM   18  C   UNL     1      43.231 -16.629   4.083  1.00  0.00     0.100 A 
HETATM   19  C   UNL     1      44.071 -17.555   4.704  1.00  0.00     0.066 A 
HETATM   20  N   UNL     1      43.084 -15.511   4.880  1.00  0.00    -0.241 NA
HETATM   21  N   UNL     1      44.424 -16.960   5.890  1.00  0.00    -0.349 N 
HETATM   22  C   UNL     1      44.404 -18.788   4.140  1.00  0.00     0.074 A 
HETATM   23  H   UNL     1      45.031 -17.353   6.596  1.00  0.00     0.167 HD
HETATM   24  C   UNL     1      43.811 -15.740   5.950  1.00  0.00     0.208 A 
HETATM   25  C   UNL     1      43.848 -19.071   2.893  1.00  0.00     0.119 A 
HETATM   26  F   UNL     1      44.135 -20.243   2.310  1.00  0.00    -0.206 F 
HETATM   27  C   UNL     1      43.009 -18.178   2.236  1.00  0.00     0.061 A 
ENDBRANCH   2  17
TORSDOF 5
ENDMDL
MODEL 4
REMARK VINA RESULT:      -7.9      2.263      3.426
REMARK  5 active torsions:
REMARK  status: ('A' for Active; 'I' for Inactive)
REMARK    1  A    between atoms: C_2  and  C_3 
REMARK    2  A    between atoms: C_3  and  N_4 
REMARK       I    between atoms: N_4  and  C_5 
REMARK    3  A    between atoms: C_5  and  C_6 
REMARK    4  A    between atoms: C_19  and  O_20 
REMARK    5  A    between atoms: O_20  and  C_21 
ROOT
HETATM    1  N   UNL     1      43.304 -13.342   5.718  1.00  0.00    -0.353 N 
HETATM    2  C   UNL     1      42.438 -13.857   4.781  1.00  0.00     0.254 C 
HETATM    3  O   UNL     1      41.382 -13.308   4.481  1.00  0.00    -0.268 OA
HETATM    4  H   UNL     1      44.131 -13.881   5.976  1.00  0.00     0.163 HD
ENDROOT
BRANCH   1   5
HETATM    5  C   UNL     1      42.947 -12.165   6.466  1.00  0.00     0.161 C 
BRANCH   5   6
HETATM    6  C   UNL     1      44.131 -11.516   7.120  1.00  0.00    -0.035 A 
HETATM    7  C   UNL     1      45.370 -11.463   6.476  1.00  0.00     0.028 A 
HETATM    8  C   UNL     1      46.414 -10.792   7.096  1.00  0.00     0.120 A 
HETATM    9  N   UNL     1      46.311 -10.176   8.291  1.00  0.00    -0.237 NA
HETATM   10  C   UNL     1      45.112 -10.258   8.903  1.00  0.00     0.164 A 
HETATM   11  C   UNL     1      44.014 -10.921   8.380  1.00  0.00     0.066 A 
BRANCH  10  12
HETATM   12  O   UNL     1      44.940  -9.640  10.126  1.00  0.00    -0.329 OA
BRANCH  12  13
HETATM   13  C   UNL     1      43.661  -9.861  10.757  1.00  0.00     0.130 C 
HETATM   14  C   UNL     1      43.666 -10.962  11.851  1.00  0.00     0.032 C 
HETATM   15  C   UNL     1      42.658 -10.100  12.631  1.00  0.00     0.005 C 
HETATM   16  C   UNL     1      43.230  -8.882  11.881  1.00  0.00     0.032 C 
ENDBRANCH  12  13
ENDBRANCH  10  12
ENDBRANCH   5   6
ENDBRANCH   1   5
BRANCH   2  17
HETATM   17  C   UNL     1      42.814 -15.134   4.131  1.00  0.00     0.066 A 
HETATM   18  C   UNL     1      43.102 -16.300   4.868  1.00  0.00     0.100 A 
HETATM   19  C   UNL     1      43.443 -17.467   4.182  1.00  0.00     0.066 A 
HETATM   20  N   UNL     1      43.110 -16.529   6.230  1.00  0.00    -0.241 NA
HETATM   21  N   UNL     1      43.657 -18.398   5.169  1.00  0.00    -0.349 N 
HETATM   22  C   UNL     1      43.514 -17.546   2.790  1.00  0.00     0.074 A 
HETATM   23  H   UNL     1      43.924 -19.363   5.030  1.00  0.00     0.167 HD
HETATM   24  C   UNL     1      43.447 -17.791   6.375  1.00  0.00     0.208 A 
HETATM   25  C   UNL     1      43.222 -16.379   2.086  1.00  0.00     0.119 A 
HETATM   26  F   UNL     1      43.274 -16.402   0.747  1.00  0.00    -0.206 F 
HETATM   27  C   UNL     1      42.880 -15.193   2.727  1.00  0.00     0.061 A 
ENDBRANCH   2  17
TORSDOF 5
ENDMDL
MODEL 5
REMARK VINA RESULT:      -7.9      3.932      6.418
REMARK  5 active torsions:
REMARK  status: ('A' for Active; 'I' for Inactive)
REMARK    1  A    between atoms: C_2  and  C_3 
REMARK    2  A    between atoms: C_3  and  N_4 
REMARK       I    between atoms: N_4  and  C_5 
REMARK    3  A    between atoms: C_5  and  C_6 
REMARK    4  A    between atoms: C_19  and  O_20 
REMARK    5  A    between atoms: O_20  and  C_21 
ROOT
HETATM    1  N   UNL     1      41.160 -14.424   3.439  1.00  0.00    -0.353 N 
HETATM    2  C   UNL     1      41.060 -15.691   2.912  1.00  0.00     0.254 C 
HETATM    3  O   UNL     1      40.115 -16.048   2.215  1.00  0.00    -0.268 OA
HETATM    4  H   UNL     1      41.933 -14.210   4.069  1.00  0.00     0.163 HD
ENDROOT
BRANCH   1   5
HETATM    5  C   UNL     1      40.087 -13.480   3.265  1.00  0.00     0.161 C 
BRANCH   5   6
HETATM    6  C   UNL     1      40.335 -12.525   2.134  1.00  0.00    -0.035 A 
HETATM    7  C   UNL     1      41.279 -11.502   2.251  1.00  0.00     0.028 A 
HETATM    8  C   UNL     1      41.519 -10.689   1.152  1.00  0.00     0.120 A 
HETATM    9  N   UNL     1      40.897 -10.825  -0.037  1.00  0.00    -0.237 NA
HETATM   10  C   UNL     1      39.976 -11.806  -0.119  1.00  0.00     0.164 A 
HETATM   11  C   UNL     1      39.648 -12.657   0.924  1.00  0.00     0.066 A 
BRANCH  10  12
HETATM   12  O   UNL     1      39.310 -12.002  -1.314  1.00  0.00    -0.329 OA
BRANCH  12  13
HETATM   13  C   UNL     1      38.938 -13.368  -1.598  1.00  0.00     0.130 C 
HETATM   14  C   UNL     1      37.762 -13.517  -2.600  1.00  0.00     0.032 C 
HETATM   15  C   UNL     1      38.477 -14.762  -3.153  1.00  0.00     0.005 C 
HETATM   16  C   UNL     1      39.791 -14.150  -2.632  1.00  0.00     0.032 C 
ENDBRANCH  12  13
ENDBRANCH  10  12
ENDBRANCH   5   6
ENDBRANCH   1   5
BRANCH   2  17
HETATM   17  C   UNL     1      42.145 -16.649   3.225  1.00  0.00     0.066 A 
HETATM   18  C   UNL     1      42.952 -16.528   4.375  1.00  0.00     0.100 A 
HETATM   19  C   UNL     1      43.951 -17.475   4.603  1.00  0.00     0.066 A 
HETATM   20  N   UNL     1      42.943 -15.591   5.390  1.00  0.00    -0.241 NA
HETATM   21  N   UNL     1      44.540 -17.079   5.779  1.00  0.00    -0.349 N 
HETATM   22  C   UNL     1      44.199 -18.551   3.749  1.00  0.00     0.074 A 
HETATM   23  H   UNL     1      45.309 -17.540   6.245  1.00  0.00     0.167 HD
HETATM   24  C   UNL     1      43.905 -15.948   6.210  1.00  0.00     0.208 A 
HETATM   25  C   UNL     1      43.385 -18.648   2.621  1.00  0.00     0.119 A 
HETATM   26  F   UNL     1      43.582 -19.664   1.769  1.00  0.00    -0.206 F 
HETATM   27  C   UNL     1      42.379 -17.727   2.352  1.00  0.00     0.061 A 
ENDBRANCH   2  17
TORSDOF 5
ENDMDL
MODEL 6
REMARK VINA RESULT:      -7.8      2.084      2.716
REMARK  5 active torsions:
REMARK  status: ('A' for Active; 'I' for Inactive)
REMARK    1  A    between atoms: C_2  and  C_3 
REMARK    2  A    between atoms: C_3  and  N_4 
REMARK       I    between atoms: N_4  and  C_5 
REMARK    3  A    between atoms: C_5  and  C_6 
REMARK    4  A    between atoms: C_19  and  O_20 
REMARK    5  A    between atoms: O_20  and  C_21 
ROOT
HETATM    1  N   UNL     1      42.102 -15.688   5.849  1.00  0.00    -0.353 N 
HETATM    2  C   UNL     1      42.979 -16.635   6.325  1.00  0.00     0.254 C 
HETATM    3  O   UNL     1      43.481 -16.573   7.443  1.00  0.00    -0.268 OA
HETATM    4  H   UNL     1      41.776 -15.757   4.885  1.00  0.00     0.163 HD
ENDROOT
BRANCH   1   5
HETATM    5  C   UNL     1      41.809 -14.515   6.629  1.00  0.00     0.161 C 
BRANCH   5   6
HETATM    6  C   UNL     1      42.761 -13.387   6.354  1.00  0.00    -0.035 A 
HETATM    7  C   UNL     1      42.784 -12.753   5.109  1.00  0.00     0.028 A 
HETATM    8  C   UNL     1      43.634 -11.672   4.928  1.00  0.00     0.120 A 
HETATM    9  N   UNL     1      44.447 -11.182   5.888  1.00  0.00    -0.237 NA
HETATM   10  C   UNL     1      44.421 -11.822   7.074  1.00  0.00     0.164 A 
HETATM   11  C   UNL     1      43.626 -12.922   7.349  1.00  0.00     0.066 A 
BRANCH  10  12
HETATM   12  O   UNL     1      45.224 -11.363   8.100  1.00  0.00    -0.329 OA
BRANCH  12  13
HETATM   13  C   UNL     1      44.810 -10.117   8.700  1.00  0.00     0.130 C 
HETATM   14  C   UNL     1      43.631 -10.247   9.701  1.00  0.00     0.032 C 
HETATM   15  C   UNL     1      44.308  -9.149  10.539  1.00  0.00     0.005 C 
HETATM   16  C   UNL     1      45.640  -9.580   9.896  1.00  0.00     0.032 C 
ENDBRANCH  12  13
ENDBRANCH  10  12
ENDBRANCH   5   6
ENDBRANCH   1   5
BRANCH   2  17
HETATM   17  C   UNL     1      43.327 -17.759   5.424  1.00  0.00     0.066 A 
HETATM   18  C   UNL     1      43.292 -17.641   4.020  1.00  0.00     0.100 A 
HETATM   19  C   UNL     1      43.639 -18.744   3.239  1.00  0.00     0.066 A 
HETATM   20  N   UNL     1      42.960 -16.571   3.212  1.00  0.00    -0.241 NA
HETATM   21  N   UNL     1      43.504 -18.307   1.944  1.00  0.00    -0.349 N 
HETATM   22  C   UNL     1      44.027 -19.973   3.776  1.00  0.00     0.074 A 
HETATM   23  H   UNL     1      43.676 -18.852   1.111  1.00  0.00     0.167 HD
HETATM   24  C   UNL     1      43.096 -17.003   1.979  1.00  0.00     0.208 A 
HETATM   25  C   UNL     1      44.054 -20.061   5.167  1.00  0.00     0.119 A 
HETATM   26  F   UNL     1      44.421 -21.220   5.733  1.00  0.00    -0.206 F 
HETATM   27  C   UNL     1      43.715 -18.990   5.985  1.00  0.00     0.061 A 
ENDBRANCH   2  17
TORSDOF 5
ENDMDL
MODEL 7
REMARK VINA RESULT:      -7.8      3.701      5.967
REMARK  5 active torsions:
REMARK  status: ('A' for Active; 'I' for Inactive)
REMARK    1  A    between atoms: C_2  and  C_3 
REMARK    2  A    between atoms: C_3  and  N_4 
REMARK       I    between atoms: N_4  and  C_5 
REMARK    3  A    between atoms: C_5  and  C_6 
REMARK    4  A    between atoms: C_19  and  O_20 
REMARK    5  A    between atoms: O_20  and  C_21 
ROOT
HETATM    1  N   UNL     1      43.447 -15.335   3.197  1.00  0.00    -0.353 N 
HETATM    2  C   UNL     1      43.330 -16.629   2.746  1.00  0.00     0.254 C 
HETATM    3  O   UNL     1      43.083 -16.905   1.576  1.00  0.00    -0.268 OA
HETATM    4  H   UNL     1      43.582 -15.170   4.195  1.00  0.00     0.163 HD
ENDROOT
BRANCH   1   5
HETATM    5  C   UNL     1      43.182 -14.232   2.311  1.00  0.00     0.161 C 
BRANCH   5   6
HETATM    6  C   UNL     1      41.752 -13.777   2.367  1.00  0.00    -0.035 A 
HETATM    7  C   UNL     1      41.104 -13.593   3.591  1.00  0.00     0.028 A 
HETATM    8  C   UNL     1      39.804 -13.106   3.589  1.00  0.00     0.120 A 
HETATM    9  N   UNL     1      39.119 -12.791   2.470  1.00  0.00    -0.237 NA
HETATM   10  C   UNL     1      39.758 -12.997   1.302  1.00  0.00     0.164 A 
HETATM   11  C   UNL     1      41.045 -13.498   1.194  1.00  0.00     0.066 A 
BRANCH  10  12
HETATM   12  O   UNL     1      39.112 -12.685   0.120  1.00  0.00    -0.329 OA
BRANCH  12  13
HETATM   13  C   UNL     1      39.475 -13.498  -1.016  1.00  0.00     0.130 C 
HETATM   14  C   UNL     1      38.318 -13.750  -2.020  1.00  0.00     0.032 C 
HETATM   15  C   UNL     1      39.364 -13.668  -3.145  1.00  0.00     0.005 C 
HETATM   16  C   UNL     1      40.215 -12.809  -2.192  1.00  0.00     0.032 C 
ENDBRANCH  12  13
ENDBRANCH  10  12
ENDBRANCH   5   6
ENDBRANCH   1   5
BRANCH   2  17
HETATM   17  C   UNL     1      43.501 -17.717   3.737  1.00  0.00     0.066 A 
HETATM   18  C   UNL     1      43.359 -17.506   5.124  1.00  0.00     0.100 A 
HETATM   19  C   UNL     1      43.531 -18.583   5.994  1.00  0.00     0.066 A 
HETATM   20  N   UNL     1      43.060 -16.361   5.837  1.00  0.00    -0.241 NA
HETATM   21  N   UNL     1      43.329 -18.053   7.244  1.00  0.00    -0.349 N 
HETATM   22  C   UNL     1      43.837 -19.876   5.564  1.00  0.00     0.074 A 
HETATM   23  H   UNL     1      43.377 -18.556   8.120  1.00  0.00     0.167 HD
HETATM   24  C   UNL     1      43.052 -16.723   7.099  1.00  0.00     0.208 A 
HETATM   25  C   UNL     1      43.970 -20.057   4.188  1.00  0.00     0.119 A 
HETATM   26  F   UNL     1      44.262 -21.280   3.724  1.00  0.00    -0.206 F 
HETATM   27  C   UNL     1      43.810 -19.013   3.284  1.00  0.00     0.061 A 
ENDBRANCH   2  17
TORSDOF 5
ENDMDL
MODEL 8
REMARK VINA RESULT:      -7.5      3.089      4.700
REMARK  5 active torsions:
REMARK  status: ('A' for Active; 'I' for Inactive)
REMARK    1  A    between atoms: C_2  and  C_3 
REMARK    2  A    between atoms: C_3  and  N_4 
REMARK       I    between atoms: N_4  and  C_5 
REMARK    3  A    between atoms: C_5  and  C_6 
REMARK    4  A    between atoms: C_19  and  O_20 
REMARK    5  A    between atoms: O_20  and  C_21 
ROOT
HETATM    1  N   UNL     1      43.292 -13.193   5.611  1.00  0.00    -0.353 N 
HETATM    2  C   UNL     1      43.032 -14.542   5.550  1.00  0.00     0.254 C 
HETATM    3  O   UNL     1      43.490 -15.345   6.358  1.00  0.00    -0.268 OA
HETATM    4  H   UNL     1      42.941 -12.588   4.869  1.00  0.00     0.163 HD
ENDROOT
BRANCH   1   5
HETATM    5  C   UNL     1      44.210 -12.676   6.592  1.00  0.00     0.161 C 
BRANCH   5   6
HETATM    6  C   UNL     1      43.748 -11.378   7.188  1.00  0.00    -0.035 A 
HETATM    7  C   UNL     1      42.840 -10.559   6.511  1.00  0.00     0.028 A 
HETATM    8  C   UNL     1      42.393  -9.403   7.135  1.00  0.00     0.120 A 
HETATM    9  N   UNL     1      42.778  -9.015   8.369  1.00  0.00    -0.237 NA
HETATM   10  C   UNL     1      43.669  -9.811   8.993  1.00  0.00     0.164 A 
HETATM   11  C   UNL     1      44.193 -10.972   8.449  1.00  0.00     0.066 A 
BRANCH  10  12
HETATM   12  O   UNL     1      44.096  -9.472  10.263  1.00  0.00    -0.329 OA
BRANCH  12  13
HETATM   13  C   UNL     1      43.048  -9.189  11.213  1.00  0.00     0.130 C 
HETATM   14  C   UNL     1      42.836 -10.294  12.283  1.00  0.00     0.032 C 
HETATM   15  C   UNL     1      42.535  -9.170  13.289  1.00  0.00     0.005 C 
HETATM   16  C   UNL     1      43.381  -8.243  12.398  1.00  0.00     0.032 C 
ENDBRANCH  12  13
ENDBRANCH  10  12
ENDBRANCH   5   6
ENDBRANCH   1   5
BRANCH   2  17
HETATM   17  C   UNL     1      42.170 -15.023   4.445  1.00  0.00     0.066 A 
HETATM   18  C   UNL     1      41.040 -14.306   4.001  1.00  0.00     0.100 A 
HETATM   19  C   UNL     1      40.281 -14.822   2.950  1.00  0.00     0.066 A 
HETATM   20  N   UNL     1      40.503 -13.109   4.433  1.00  0.00    -0.241 NA
HETATM   21  N   UNL     1      39.276 -13.905   2.767  1.00  0.00    -0.349 N 
HETATM   22  C   UNL     1      40.582 -16.022   2.303  1.00  0.00     0.074 A 
HETATM   23  H   UNL     1      38.536 -13.961   2.081  1.00  0.00     0.167 HD
HETATM   24  C   UNL     1      39.450 -12.900   3.676  1.00  0.00     0.208 A 
HETATM   25  C   UNL     1      41.706 -16.709   2.760  1.00  0.00     0.119 A 
HETATM   26  F   UNL     1      42.039 -17.866   2.170  1.00  0.00    -0.206 F 
HETATM   27  C   UNL     1      42.490 -16.235   3.805  1.00  0.00     0.061 A 
ENDBRANCH   2  17
TORSDOF 5
ENDMDL
MODEL 9
REMARK VINA RESULT:      -7.5      2.640      4.015
REMARK  5 active torsions:
REMARK  status: ('A' for Active; 'I' for Inactive)
REMARK    1  A    between atoms: C_2  and  C_3 
REMARK    2  A    between atoms: C_3  and  N_4 
REMARK       I    between atoms: N_4  and  C_5 
REMARK    3  A    between atoms: C_5  and  C_6 
REMARK    4  A    between atoms: C_19  and  O_20 
REMARK    5  A    between atoms: O_20  and  C_21 
ROOT
HETATM    1  N   UNL     1      43.192 -13.085   5.420  1.00  0.00    -0.353 N 
HETATM    2  C   UNL     1      42.297 -14.094   5.687  1.00  0.00     0.254 C 
HETATM    3  O   UNL     1      41.176 -13.885   6.142  1.00  0.00    -0.268 OA
HETATM    4  H   UNL     1      44.133 -13.328   5.111  1.00  0.00     0.163 HD
ENDROOT
BRANCH   1   5
HETATM    5  C   UNL     1      42.873 -11.724   5.762  1.00  0.00     0.161 C 
BRANCH   5   6
HETATM    6  C   UNL     1      43.912 -11.091   6.643  1.00  0.00    -0.035 A 
HETATM    7  C   UNL     1      45.251 -11.482   6.569  1.00  0.00     0.028 A 
HETATM    8  C   UNL     1      46.182 -10.819   7.356  1.00  0.00     0.120 A 
HETATM    9  N   UNL     1      45.876  -9.807   8.195  1.00  0.00    -0.237 NA
HETATM   10  C   UNL     1      44.575  -9.462   8.264  1.00  0.00     0.164 A 
HETATM   11  C   UNL     1      43.567 -10.074   7.537  1.00  0.00     0.066 A 
BRANCH  10  12
HETATM   12  O   UNL     1      44.199  -8.427   9.098  1.00  0.00    -0.329 OA
BRANCH  12  13
HETATM   13  C   UNL     1      43.300  -8.790  10.167  1.00  0.00     0.130 C 
HETATM   14  C   UNL     1      43.925  -9.713  11.247  1.00  0.00     0.032 C 
HETATM   15  C   UNL     1      43.087  -8.951  12.289  1.00  0.00     0.005 C 
HETATM   16  C   UNL     1      43.083  -7.762  11.310  1.00  0.00     0.032 C 
ENDBRANCH  12  13
ENDBRANCH  10  12
ENDBRANCH   5   6
ENDBRANCH   1   5
BRANCH   2  17
HETATM   17  C   UNL     1      42.733 -15.484   5.418  1.00  0.00     0.066 A 
HETATM   18  C   UNL     1      43.016 -15.949   4.118  1.00  0.00     0.100 A 
HETATM   19  C   UNL     1      43.427 -17.272   3.947  1.00  0.00     0.066 A 
HETATM   20  N   UNL     1      42.964 -15.305   2.897  1.00  0.00    -0.241 NA
HETATM   21  N   UNL     1      43.617 -17.402   2.593  1.00  0.00    -0.349 N 
HETATM   22  C   UNL     1      43.578 -18.172   5.003  1.00  0.00     0.074 A 
HETATM   23  H   UNL     1      43.918 -18.237   2.111  1.00  0.00     0.167 HD
HETATM   24  C   UNL     1      43.327 -16.201   2.009  1.00  0.00     0.208 A 
HETATM   25  C   UNL     1      43.294 -17.685   6.279  1.00  0.00     0.119 A 
HETATM   26  F   UNL     1      43.425 -18.509   7.328  1.00  0.00    -0.206 F 
HETATM   27  C   UNL     1      42.879 -16.376   6.496  1.00  0.00     0.061 A 
ENDBRANCH   2  17
TORSDOF 5
ENDMDL
MODEL 10
REMARK VINA RESULT:      -7.4      4.019      8.483
REMARK  5 active torsions:
REMARK  status: ('A' for Active; 'I' for Inactive)
REMARK    1  A    between atoms: C_2  and  C_3 
REMARK    2  A    between atoms: C_3  and  N_4 
REMARK       I    between atoms: N_4  and  C_5 
REMARK    3  A    between atoms: C_5  and  C_6 
REMARK    4  A    between atoms: C_19  and  O_20 
REMARK    5  A    between atoms: O_20  and  C_21 
ROOT
HETATM    1  N   UNL     1      41.417 -11.380   6.672  1.00  0.00    -0.353 N 
HETATM    2  C   UNL     1      41.720 -10.144   7.194  1.00  0.00     0.254 C 
HETATM    3  O   UNL     1      40.972  -9.176   7.087  1.00  0.00    -0.268 OA
HETATM    4  H   UNL     1      42.112 -12.125   6.732  1.00  0.00     0.163 HD
ENDROOT
BRANCH   1   5
HETATM    5  C   UNL     1      40.229 -11.561   5.880  1.00  0.00     0.161 C 
BRANCH   5   6
HETATM    6  C   UNL     1      40.408 -12.585   4.797  1.00  0.00    -0.035 A 
HETATM    7  C   UNL     1      39.501 -12.677   3.738  1.00  0.00     0.028 A 
HETATM    8  C   UNL     1      39.749 -13.595   2.728  1.00  0.00     0.120 A 
HETATM    9  N   UNL     1      40.822 -14.412   2.697  1.00  0.00    -0.237 NA
HETATM   10  C   UNL     1      41.672 -14.319   3.739  1.00  0.00     0.164 A 
HETATM   11  C   UNL     1      41.505 -13.452   4.807  1.00  0.00     0.066 A 
BRANCH  10  12
HETATM   12  O   UNL     1      42.796 -15.122   3.762  1.00  0.00    -0.329 OA
BRANCH  12  13
HETATM   13  C   UNL     1      42.574 -16.507   3.419  1.00  0.00     0.130 C 
HETATM   14  C   UNL     1      43.144 -16.925   2.037  1.00  0.00     0.032 C 
HETATM   15  C   UNL     1      43.491 -18.286   2.666  1.00  0.00     0.005 C 
HETATM   16  C   UNL     1      43.532 -17.565   4.027  1.00  0.00     0.032 C 
ENDBRANCH  12  13
ENDBRANCH  10  12
ENDBRANCH   5   6
ENDBRANCH   1   5
BRANCH   2  17
HETATM   17  C   UNL     1      43.014  -9.997   7.900  1.00  0.00     0.066 A 
HETATM   18  C   UNL     1      44.229 -10.456   7.353  1.00  0.00     0.100 A 
HETATM   19  C   UNL     1      45.409 -10.277   8.077  1.00  0.00     0.066 A 
HETATM   20  N   UNL     1      44.498 -11.091   6.155  1.00  0.00    -0.241 NA
HETATM   21  N   UNL     1      46.388 -10.822   7.284  1.00  0.00    -0.349 N 
HETATM   22  C   UNL     1      45.455  -9.658   9.328  1.00  0.00     0.074 A 
HETATM   23  H   UNL     1      47.374 -10.866   7.500  1.00  0.00     0.167 HD
HETATM   24  C   UNL     1      45.796 -11.296   6.147  1.00  0.00     0.208 A 
HETATM   25  C   UNL     1      44.239  -9.212   9.845  1.00  0.00     0.119 A 
HETATM   26  F   UNL     1      44.229  -8.610  11.042  1.00  0.00    -0.206 F 
HETATM   27  C   UNL     1      43.040  -9.372   9.160  1.00  0.00     0.061 A 
ENDBRANCH   2  17
TORSDOF 5
ENDMDL
