MODEL 1
REMARK VINA RESULT:      -9.5      0.000      0.000
REMARK  6 active torsions:
REMARK  status: ('A' for Active; 'I' for Inactive)
REMARK    1  A    between atoms: C_7  and  S_8 
REMARK    2  A    between atoms: S_8  and  C_9 
REMARK    3  A    between atoms: C_9  and  C_10 
REMARK    4  A    between atoms: C_18  and  C_19 
REMARK    5  A    between atoms: C_29  and  C_30 
REMARK    6  A    between atoms: C_30  and  O_31 
ROOT
HETATM    1  C   UNL     1      38.821 -12.093   2.514  1.00  0.00     0.070 C 
HETATM    2  C   UNL     1      39.976 -12.487   3.401  1.00  0.00     0.037 C 
HETATM    3  N   UNL     1      39.811 -13.672   4.112  1.00  0.00    -0.192 N 
HETATM    4  C   UNL     1      40.821 -14.259   4.783  1.00  0.00     0.726 A 
HETATM    5  N   UNL     1      41.983 -13.568   4.988  1.00  0.00    -0.082 N 
HETATM    6  N   UNL     1      42.930 -14.353   5.542  1.00  0.00    -0.128 NA
HETATM    7  C   UNL     1      42.241 -15.489   5.714  1.00  0.00     0.226 A 
HETATM    8  N   UNL     1      40.944 -15.467   5.263  1.00  0.00    -0.035 NA
HETATM    9  C   UNL     1      42.197 -12.182   4.550  1.00  0.00     0.204 C 
HETATM   10  C   UNL     1      41.118 -11.768   3.548  1.00  0.00     0.070 C 
HETATM   11  H   UNL     1      38.999 -14.241   3.884  1.00  0.00     0.184 HD
ENDROOT
BRANCH   9  12
HETATM   12  C   UNL     1      42.289 -11.280   5.790  1.00  0.00    -0.017 A 
HETATM   13  C   UNL     1      43.537 -10.982   6.425  1.00  0.00    -0.017 A 
HETATM   14  C   UNL     1      43.536 -10.120   7.555  1.00  0.00    -0.025 A 
HETATM   15  C   UNL     1      44.795 -11.495   6.017  1.00  0.00     0.013 A 
HETATM   16  C   UNL     1      44.740  -9.787   8.199  1.00  0.00     0.012 A 
HETATM   17  C   UNL     1      42.334  -9.597   8.045  1.00  0.00     0.012 A 
HETATM   18  C   UNL     1      45.957 -10.300   7.760  1.00  0.00     0.001 A 
HETATM   19  C   UNL     1      45.984 -11.158   6.672  1.00  0.00     0.001 A 
HETATM   20  C   UNL     1      41.121  -9.918   7.449  1.00  0.00     0.002 A 
HETATM   21  C   UNL     1      41.098 -10.753   6.339  1.00  0.00     0.010 A 
ENDBRANCH   9  12
BRANCH  10  22
HETATM   22  C   UNL     1      41.468 -10.589   2.728  1.00  0.00     0.293 C 
HETATM   23  O   UNL     1      41.302  -9.436   3.088  1.00  0.00    -0.259 OA
BRANCH  22  24
HETATM   24  O   UNL     1      42.096 -10.983   1.592  1.00  0.00    -0.323 OA
HETATM   25  C   UNL     1      41.581 -10.398   0.394  1.00  0.00     0.213 C 
ENDBRANCH  22  24
ENDBRANCH  10  22
BRANCH   7  26
HETATM   26  S   UNL     1      42.933 -16.934   6.395  1.00  0.00    -0.083 SA
BRANCH  26  27
HETATM   27  C   UNL     1      44.343 -17.211   5.289  1.00  0.00     0.123 C 
BRANCH  27  28
HETATM   28  C   UNL     1      44.043 -18.313   4.298  1.00  0.00    -0.027 A 
HETATM   29  C   UNL     1      43.535 -18.064   3.012  1.00  0.00     0.041 A 
HETATM   30 CL   UNL     1      43.247 -16.462   2.431  1.00  0.00    -0.084 Cl
HETATM   31  C   UNL     1      43.237 -19.124   2.147  1.00  0.00     0.024 A 
HETATM   32  C   UNL     1      43.433 -20.443   2.557  1.00  0.00     0.002 A 
HETATM   33  C   UNL     1      43.928 -20.705   3.830  1.00  0.00     0.001 A 
HETATM   34  C   UNL     1      44.229 -19.651   4.694  1.00  0.00     0.009 A 
ENDBRANCH  27  28
ENDBRANCH  26  27
ENDBRANCH   7  26
TORSDOF 6
ENDMDL
MODEL 2
REMARK VINA RESULT:      -9.3      3.337      6.462
REMARK  6 active torsions:
REMARK  status: ('A' for Active; 'I' for Inactive)
REMARK    1  A    between atoms: C_7  and  S_8 
REMARK    2  A    between atoms: S_8  and  C_9 
REMARK    3  A    between atoms: C_9  and  C_10 
REMARK    4  A    between atoms: C_18  and  C_19 
REMARK    5  A    between atoms: C_29  and  C_30 
REMARK    6  A    between atoms: C_30  and  O_31 
ROOT
HETATM    1  C   UNL     1      42.693  -9.663   7.551  1.00  0.00     0.070 C 
HETATM    2  C   UNL     1      42.633 -10.350   6.210  1.00  0.00     0.037 C 
HETATM    3  N   UNL     1      41.773  -9.773   5.278  1.00  0.00    -0.192 N 
HETATM    4  C   UNL     1      41.759 -10.142   3.982  1.00  0.00     0.726 A 
HETATM    5  N   UNL     1      42.422 -11.276   3.599  1.00  0.00    -0.082 N 
HETATM    6  N   UNL     1      42.425 -11.411   2.257  1.00  0.00    -0.128 NA
HETATM    7  C   UNL     1      41.678 -10.358   1.898  1.00  0.00     0.226 A 
HETATM    8  N   UNL     1      41.251  -9.560   2.930  1.00  0.00    -0.035 NA
HETATM    9  C   UNL     1      43.132 -12.161   4.531  1.00  0.00     0.204 C 
HETATM   10  C   UNL     1      43.332 -11.465   5.878  1.00  0.00     0.070 C 
HETATM   11  H   UNL     1      41.362  -8.875   5.520  1.00  0.00     0.184 HD
ENDROOT
BRANCH   9  12
HETATM   12  C   UNL     1      42.380 -13.498   4.615  1.00  0.00    -0.017 A 
HETATM   13  C   UNL     1      42.588 -14.551   3.668  1.00  0.00    -0.017 A 
HETATM   14  C   UNL     1      41.867 -15.765   3.831  1.00  0.00    -0.025 A 
HETATM   15  C   UNL     1      43.463 -14.475   2.554  1.00  0.00     0.013 A 
HETATM   16  C   UNL     1      42.053 -16.831   2.935  1.00  0.00     0.012 A 
HETATM   17  C   UNL     1      40.957 -15.910   4.884  1.00  0.00     0.012 A 
HETATM   18  C   UNL     1      42.932 -16.723   1.861  1.00  0.00     0.001 A 
HETATM   19  C   UNL     1      43.633 -15.543   1.667  1.00  0.00     0.001 A 
HETATM   20  C   UNL     1      40.729 -14.873   5.780  1.00  0.00     0.002 A 
HETATM   21  C   UNL     1      41.427 -13.679   5.644  1.00  0.00     0.010 A 
ENDBRANCH   9  12
BRANCH  10  22
HETATM   22  C   UNL     1      44.387 -12.064   6.723  1.00  0.00     0.293 C 
HETATM   23  O   UNL     1      44.194 -12.979   7.505  1.00  0.00    -0.259 OA
BRANCH  22  24
HETATM   24  O   UNL     1      45.593 -11.528   6.411  1.00  0.00    -0.323 OA
HETATM   25  C   UNL     1      46.215 -10.805   7.475  1.00  0.00     0.213 C 
ENDBRANCH  22  24
ENDBRANCH  10  22
BRANCH   7  26
HETATM   26  S   UNL     1      41.315  -9.962   0.242  1.00  0.00    -0.083 SA
BRANCH  26  27
HETATM   27  C   UNL     1      39.707 -10.769   0.026  1.00  0.00     0.123 C 
BRANCH  27  28
HETATM   28  C   UNL     1      39.813 -12.258   0.270  1.00  0.00    -0.027 A 
HETATM   29  C   UNL     1      40.203 -13.168  -0.727  1.00  0.00     0.041 A 
HETATM   30 CL   UNL     1      40.639 -12.658  -2.319  1.00  0.00    -0.084 Cl
HETATM   31  C   UNL     1      40.246 -14.542  -0.458  1.00  0.00     0.024 A 
HETATM   32  C   UNL     1      39.895 -15.024   0.802  1.00  0.00     0.002 A 
HETATM   33  C   UNL     1      39.500 -14.136   1.797  1.00  0.00     0.001 A 
HETATM   34  C   UNL     1      39.458 -12.766   1.534  1.00  0.00     0.009 A 
ENDBRANCH  27  28
ENDBRANCH  26  27
ENDBRANCH   7  26
TORSDOF 6
ENDMDL
MODEL 3
REMARK VINA RESULT:      -9.2      4.654      5.610
REMARK  6 active torsions:
REMARK  status: ('A' for Active; 'I' for Inactive)
REMARK    1  A    between atoms: C_7  and  S_8 
REMARK    2  A    between atoms: S_8  and  C_9 
REMARK    3  A    between atoms: C_9  and  C_10 
REMARK    4  A    between atoms: C_18  and  C_19 
REMARK    5  A    between atoms: C_29  and  C_30 
REMARK    6  A    between atoms: C_30  and  O_31 
ROOT
HETATM    1  C   UNL     1      38.563 -14.993  -3.067  1.00  0.00     0.070 C 
HETATM    2  C   UNL     1      39.240 -14.491  -1.817  1.00  0.00     0.037 C 
HETATM    3  N   UNL     1      39.140 -15.322  -0.704  1.00  0.00    -0.192 N 
HETATM    4  C   UNL     1      39.855 -15.115   0.419  1.00  0.00     0.726 A 
HETATM    5  N   UNL     1      40.517 -13.930   0.586  1.00  0.00    -0.082 N 
HETATM    6  N   UNL     1      41.293 -13.953   1.689  1.00  0.00    -0.128 NA
HETATM    7  C   UNL     1      40.990 -15.161   2.182  1.00  0.00     0.226 A 
HETATM    8  N   UNL     1      40.109 -15.900   1.431  1.00  0.00    -0.035 NA
HETATM    9  C   UNL     1      40.469 -12.826  -0.381  1.00  0.00     0.204 C 
HETATM   10  C   UNL     1      39.903 -13.310  -1.716  1.00  0.00     0.070 C 
HETATM   11  H   UNL     1      38.743 -16.247  -0.850  1.00  0.00     0.184 HD
ENDROOT
BRANCH   9  12
HETATM   12  C   UNL     1      39.700 -11.652   0.244  1.00  0.00    -0.017 A 
HETATM   13  C   UNL     1      40.196 -10.310   0.210  1.00  0.00    -0.017 A 
HETATM   14  C   UNL     1      39.411  -9.279   0.794  1.00  0.00    -0.025 A 
HETATM   15  C   UNL     1      41.435  -9.920  -0.360  1.00  0.00     0.013 A 
HETATM   16  C   UNL     1      39.851  -7.945   0.768  1.00  0.00     0.012 A 
HETATM   17  C   UNL     1      38.190  -9.583   1.409  1.00  0.00     0.012 A 
HETATM   18  C   UNL     1      41.067  -7.600   0.186  1.00  0.00     0.001 A 
HETATM   19  C   UNL     1      41.862  -8.588  -0.374  1.00  0.00     0.001 A 
HETATM   20  C   UNL     1      37.729 -10.891   1.474  1.00  0.00     0.002 A 
HETATM   21  C   UNL     1      38.477 -11.915   0.904  1.00  0.00     0.010 A 
ENDBRANCH   9  12
BRANCH  10  22
HETATM   22  C   UNL     1      40.209 -12.431  -2.864  1.00  0.00     0.293 C 
HETATM   23  O   UNL     1      41.244 -12.485  -3.506  1.00  0.00    -0.259 OA
BRANCH  22  24
HETATM   24  O   UNL     1      39.134 -11.655  -3.155  1.00  0.00    -0.323 OA
HETATM   25  C   UNL     1      39.450 -10.303  -3.491  1.00  0.00     0.213 C 
ENDBRANCH  22  24
ENDBRANCH  10  22
BRANCH   7  26
HETATM   26  S   UNL     1      41.699 -15.808   3.634  1.00  0.00    -0.083 SA
BRANCH  26  27
HETATM   27  C   UNL     1      43.311 -16.369   3.026  1.00  0.00     0.123 C 
BRANCH  27  28
HETATM   28  C   UNL     1      43.467 -17.862   3.209  1.00  0.00    -0.027 A 
HETATM   29  C   UNL     1      43.944 -18.439   4.398  1.00  0.00     0.041 A 
HETATM   30 CL   UNL     1      44.356 -17.487   5.781  1.00  0.00    -0.084 Cl
HETATM   31  C   UNL     1      44.107 -19.826   4.501  1.00  0.00     0.024 A 
HETATM   32  C   UNL     1      43.805 -20.652   3.419  1.00  0.00     0.002 A 
HETATM   33  C   UNL     1      43.339 -20.095   2.232  1.00  0.00     0.001 A 
HETATM   34  C   UNL     1      43.173 -18.713   2.127  1.00  0.00     0.009 A 
ENDBRANCH  27  28
ENDBRANCH  26  27
ENDBRANCH   7  26
TORSDOF 6
ENDMDL
MODEL 4
REMARK VINA RESULT:      -8.7      3.399      6.594
REMARK  6 active torsions:
REMARK  status: ('A' for Active; 'I' for Inactive)
REMARK    1  A    between atoms: C_7  and  S_8 
REMARK    2  A    between atoms: S_8  and  C_9 
REMARK    3  A    between atoms: C_9  and  C_10 
REMARK    4  A    between atoms: C_18  and  C_19 
REMARK    5  A    between atoms: C_29  and  C_30 
REMARK    6  A    between atoms: C_30  and  O_31 
ROOT
HETATM    1  C   UNL     1      41.367  -9.846   7.582  1.00  0.00     0.070 C 
HETATM    2  C   UNL     1      41.235 -10.631   6.301  1.00  0.00     0.037 C 
HETATM    3  N   UNL     1      40.040 -10.453   5.608  1.00  0.00    -0.192 N 
HETATM    4  C   UNL     1      39.853 -10.920   4.358  1.00  0.00     0.726 A 
HETATM    5  N   UNL     1      40.753 -11.803   3.829  1.00  0.00    -0.082 N 
HETATM    6  N   UNL     1      40.492 -12.049   2.529  1.00  0.00    -0.128 NA
HETATM    7  C   UNL     1      39.371 -11.336   2.360  1.00  0.00     0.226 A 
HETATM    8  N   UNL     1      38.948 -10.633   3.462  1.00  0.00    -0.035 NA
HETATM    9  C   UNL     1      41.917 -12.320   4.561  1.00  0.00     0.204 C 
HETATM   10  C   UNL     1      42.175 -11.480   5.813  1.00  0.00     0.070 C 
HETATM   11  H   UNL     1      39.416  -9.722   5.940  1.00  0.00     0.184 HD
ENDROOT
BRANCH   9  12
HETATM   12  C   UNL     1      41.705 -13.817   4.836  1.00  0.00    -0.017 A 
HETATM   13  C   UNL     1      42.236 -14.832   3.978  1.00  0.00    -0.017 A 
HETATM   14  C   UNL     1      42.012 -16.194   4.318  1.00  0.00    -0.025 A 
HETATM   15  C   UNL     1      42.971 -14.585   2.791  1.00  0.00     0.013 A 
HETATM   16  C   UNL     1      42.529 -17.224   3.514  1.00  0.00     0.012 A 
HETATM   17  C   UNL     1      41.266 -16.526   5.455  1.00  0.00     0.012 A 
HETATM   18  C   UNL     1      43.259 -16.941   2.363  1.00  0.00     0.001 A 
HETATM   19  C   UNL     1      43.476 -15.621   1.999  1.00  0.00     0.001 A 
HETATM   20  C   UNL     1      40.720 -15.539   6.264  1.00  0.00     0.002 A 
HETATM   21  C   UNL     1      40.932 -14.200   5.956  1.00  0.00     0.010 A 
ENDBRANCH   9  12
BRANCH  10  22
HETATM   22  C   UNL     1      43.535 -11.623   6.373  1.00  0.00     0.293 C 
HETATM   23  O   UNL     1      43.790 -12.249   7.388  1.00  0.00    -0.259 OA
BRANCH  22  24
HETATM   24  O   UNL     1      44.444 -11.060   5.538  1.00  0.00    -0.323 OA
HETATM   25  C   UNL     1      45.807 -11.291   5.900  1.00  0.00     0.213 C 
ENDBRANCH  22  24
ENDBRANCH  10  22
BRANCH   7  26
HETATM   26  S   UNL     1      38.522 -11.230   0.844  1.00  0.00    -0.083 SA
BRANCH  26  27
HETATM   27  C   UNL     1      39.800 -11.777  -0.320  1.00  0.00     0.123 C 
BRANCH  27  28
HETATM   28  C   UNL     1      39.266 -12.851  -1.241  1.00  0.00    -0.027 A 
HETATM   29  C   UNL     1      39.535 -14.217  -1.056  1.00  0.00     0.041 A 
HETATM   30 CL   UNL     1      40.470 -14.798   0.276  1.00  0.00    -0.084 Cl
HETATM   31  C   UNL     1      39.048 -15.167  -1.962  1.00  0.00     0.024 A 
HETATM   32  C   UNL     1      38.297 -14.766  -3.066  1.00  0.00     0.002 A 
HETATM   33  C   UNL     1      38.029 -13.416  -3.267  1.00  0.00     0.001 A 
HETATM   34  C   UNL     1      38.510 -12.467  -2.364  1.00  0.00     0.009 A 
ENDBRANCH  27  28
ENDBRANCH  26  27
ENDBRANCH   7  26
TORSDOF 6
ENDMDL
MODEL 5
REMARK VINA RESULT:      -8.6      2.924      7.247
REMARK  6 active torsions:
REMARK  status: ('A' for Active; 'I' for Inactive)
REMARK    1  A    between atoms: C_7  and  S_8 
REMARK    2  A    between atoms: S_8  and  C_9 
REMARK    3  A    between atoms: C_9  and  C_10 
REMARK    4  A    between atoms: C_18  and  C_19 
REMARK    5  A    between atoms: C_29  and  C_30 
REMARK    6  A    between atoms: C_30  and  O_31 
ROOT
HETATM    1  C   UNL     1      41.690 -11.585   1.746  1.00  0.00     0.070 C 
HETATM    2  C   UNL     1      42.189 -11.928   3.128  1.00  0.00     0.037 C 
HETATM    3  N   UNL     1      43.504 -11.559   3.401  1.00  0.00    -0.192 N 
HETATM    4  C   UNL     1      44.026 -11.610   4.641  1.00  0.00     0.726 A 
HETATM    5  N   UNL     1      43.347 -12.267   5.630  1.00  0.00    -0.082 N 
HETATM    6  N   UNL     1      43.938 -12.094   6.830  1.00  0.00    -0.128 NA
HETATM    7  C   UNL     1      45.016 -11.382   6.476  1.00  0.00     0.226 A 
HETATM    8  N   UNL     1      45.104 -11.069   5.141  1.00  0.00    -0.035 NA
HETATM    9  C   UNL     1      42.075 -12.971   5.418  1.00  0.00     0.204 C 
HETATM   10  C   UNL     1      41.459 -12.564   4.079  1.00  0.00     0.070 C 
HETATM   11  H   UNL     1      43.975 -10.979   2.711  1.00  0.00     0.184 HD
ENDROOT
BRANCH   9  12
HETATM   12  C   UNL     1      42.311 -14.480   5.575  1.00  0.00    -0.017 A 
HETATM   13  C   UNL     1      42.701 -15.310   4.475  1.00  0.00    -0.017 A 
HETATM   14  C   UNL     1      42.920 -16.694   4.711  1.00  0.00    -0.025 A 
HETATM   15  C   UNL     1      42.878 -14.856   3.143  1.00  0.00     0.013 A 
HETATM   16  C   UNL     1      43.319 -17.542   3.664  1.00  0.00     0.012 A 
HETATM   17  C   UNL     1      42.733 -17.231   5.990  1.00  0.00     0.012 A 
HETATM   18  C   UNL     1      43.497 -17.055   2.372  1.00  0.00     0.001 A 
HETATM   19  C   UNL     1      43.271 -15.713   2.110  1.00  0.00     0.001 A 
HETATM   20  C   UNL     1      42.319 -16.431   7.047  1.00  0.00     0.002 A 
HETATM   21  C   UNL     1      42.105 -15.074   6.841  1.00  0.00     0.010 A 
ENDBRANCH   9  12
BRANCH  10  22
HETATM   22  C   UNL     1      40.015 -12.855   3.959  1.00  0.00     0.293 C 
HETATM   23  O   UNL     1      39.541 -13.626   3.141  1.00  0.00    -0.259 OA
BRANCH  22  24
HETATM   24  O   UNL     1      39.331 -12.236   4.953  1.00  0.00    -0.323 OA
HETATM   25  C   UNL     1      39.035 -10.860   4.704  1.00  0.00     0.213 C 
ENDBRANCH  22  24
ENDBRANCH  10  22
BRANCH   7  26
HETATM   26  S   UNL     1      46.206 -10.816   7.614  1.00  0.00    -0.083 SA
BRANCH  26  27
HETATM   27  C   UNL     1      45.518  -9.204   8.077  1.00  0.00     0.123 C 
BRANCH  27  28
HETATM   28  C   UNL     1      44.439  -9.359   9.126  1.00  0.00    -0.027 A 
HETATM   29  C   UNL     1      43.073  -9.186   8.846  1.00  0.00     0.041 A 
HETATM   30 CL   UNL     1      42.499  -8.820   7.258  1.00  0.00    -0.084 Cl
HETATM   31  C   UNL     1      42.119  -9.302   9.863  1.00  0.00     0.024 A 
HETATM   32  C   UNL     1      42.514  -9.583  11.171  1.00  0.00     0.002 A 
HETATM   33  C   UNL     1      43.863  -9.750  11.465  1.00  0.00     0.001 A 
HETATM   34  C   UNL     1      44.818  -9.638  10.453  1.00  0.00     0.009 A 
ENDBRANCH  27  28
ENDBRANCH  26  27
ENDBRANCH   7  26
TORSDOF 6
ENDMDL
MODEL 6
REMARK VINA RESULT:      -8.6      2.704      7.341
REMARK  6 active torsions:
REMARK  status: ('A' for Active; 'I' for Inactive)
REMARK    1  A    between atoms: C_7  and  S_8 
REMARK    2  A    between atoms: S_8  and  C_9 
REMARK    3  A    between atoms: C_9  and  C_10 
REMARK    4  A    between atoms: C_18  and  C_19 
REMARK    5  A    between atoms: C_29  and  C_30 
REMARK    6  A    between atoms: C_30  and  O_31 
ROOT
HETATM    1  C   UNL     1      40.848 -11.558   0.823  1.00  0.00     0.070 C 
HETATM    2  C   UNL     1      41.522 -12.140   2.041  1.00  0.00     0.037 C 
HETATM    3  N   UNL     1      42.690 -11.500   2.445  1.00  0.00    -0.192 N 
HETATM    4  C   UNL     1      43.293 -11.769   3.620  1.00  0.00     0.726 A 
HETATM    5  N   UNL     1      42.904 -12.865   4.339  1.00  0.00    -0.082 N 
HETATM    6  N   UNL     1      43.504 -12.898   5.546  1.00  0.00    -0.128 NA
HETATM    7  C   UNL     1      44.303 -11.826   5.456  1.00  0.00     0.226 A 
HETATM    8  N   UNL     1      44.202 -11.112   4.288  1.00  0.00    -0.035 NA
HETATM    9  C   UNL     1      41.877 -13.814   3.890  1.00  0.00     0.204 C 
HETATM   10  C   UNL     1      41.076 -13.222   2.730  1.00  0.00     0.070 C 
HETATM   11  H   UNL     1      42.925 -10.626   1.981  1.00  0.00     0.184 HD
ENDROOT
BRANCH   9  12
HETATM   12  C   UNL     1      42.549 -15.159   3.574  1.00  0.00    -0.017 A 
HETATM   13  C   UNL     1      42.796 -16.144   4.583  1.00  0.00    -0.017 A 
HETATM   14  C   UNL     1      43.403 -17.371   4.201  1.00  0.00    -0.025 A 
HETATM   15  C   UNL     1      42.489 -15.987   5.958  1.00  0.00     0.013 A 
HETATM   16  C   UNL     1      43.649 -18.372   5.155  1.00  0.00     0.012 A 
HETATM   17  C   UNL     1      43.770 -17.594   2.868  1.00  0.00     0.012 A 
HETATM   18  C   UNL     1      43.320 -18.186   6.495  1.00  0.00     0.001 A 
HETATM   19  C   UNL     1      42.744 -16.992   6.897  1.00  0.00     0.001 A 
HETATM   20  C   UNL     1      43.563 -16.621   1.898  1.00  0.00     0.002 A 
HETATM   21  C   UNL     1      42.965 -15.416   2.247  1.00  0.00     0.010 A 
ENDBRANCH   9  12
BRANCH  10  22
HETATM   22  C   UNL     1      39.772 -13.876   2.492  1.00  0.00     0.293 C 
HETATM   23  O   UNL     1      38.696 -13.366   2.756  1.00  0.00    -0.259 OA
BRANCH  22  24
HETATM   24  O   UNL     1      39.953 -15.053   1.842  1.00  0.00    -0.323 OA
HETATM   25  C   UNL     1      39.878 -14.963   0.417  1.00  0.00     0.213 C 
ENDBRANCH  22  24
ENDBRANCH  10  22
BRANCH   7  26
HETATM   26  S   UNL     1      45.357 -11.307   6.741  1.00  0.00    -0.083 SA
BRANCH  26  27
HETATM   27  C   UNL     1      44.190 -11.145   8.118  1.00  0.00     0.123 C 
BRANCH  27  28
HETATM   28  C   UNL     1      43.685  -9.724   8.233  1.00  0.00    -0.027 A 
HETATM   29  C   UNL     1      42.474  -9.296   7.663  1.00  0.00     0.041 A 
HETATM   30 CL   UNL     1      41.426 -10.375   6.812  1.00  0.00    -0.084 Cl
HETATM   31  C   UNL     1      42.073  -7.959   7.766  1.00  0.00     0.024 A 
HETATM   32  C   UNL     1      42.877  -7.032   8.428  1.00  0.00     0.002 A 
HETATM   33  C   UNL     1      44.082  -7.438   8.991  1.00  0.00     0.001 A 
HETATM   34  C   UNL     1      44.484  -8.771   8.893  1.00  0.00     0.009 A 
ENDBRANCH  27  28
ENDBRANCH  26  27
ENDBRANCH   7  26
TORSDOF 6
ENDMDL
MODEL 7
REMARK VINA RESULT:      -8.2      2.350      3.390
REMARK  6 active torsions:
REMARK  status: ('A' for Active; 'I' for Inactive)
REMARK    1  A    between atoms: C_7  and  S_8 
REMARK    2  A    between atoms: S_8  and  C_9 
REMARK    3  A    between atoms: C_9  and  C_10 
REMARK    4  A    between atoms: C_18  and  C_19 
REMARK    5  A    between atoms: C_29  and  C_30 
REMARK    6  A    between atoms: C_30  and  O_31 
ROOT
HETATM    1  C   UNL     1      38.023  -8.236   4.926  1.00  0.00     0.070 C 
HETATM    2  C   UNL     1      39.100  -9.188   5.381  1.00  0.00     0.037 C 
HETATM    3  N   UNL     1      38.722 -10.526   5.470  1.00  0.00    -0.192 N 
HETATM    4  C   UNL     1      39.613 -11.518   5.662  1.00  0.00     0.726 A 
HETATM    5  N   UNL     1      40.895 -11.208   6.027  1.00  0.00    -0.082 N 
HETATM    6  N   UNL     1      41.681 -12.305   6.033  1.00  0.00    -0.128 NA
HETATM    7  C   UNL     1      40.785 -13.255   5.734  1.00  0.00     0.226 A 
HETATM    8  N   UNL     1      39.507 -12.809   5.503  1.00  0.00    -0.035 NA
HETATM    9  C   UNL     1      41.367  -9.839   6.266  1.00  0.00     0.204 C 
HETATM   10  C   UNL     1      40.366  -8.825   5.710  1.00  0.00     0.070 C 
HETATM   11  H   UNL     1      37.807 -10.774   5.101  1.00  0.00     0.184 HD
ENDROOT
BRANCH   9  12
HETATM   12  C   UNL     1      41.671  -9.673   7.763  1.00  0.00    -0.017 A 
HETATM   13  C   UNL     1      42.996  -9.798   8.291  1.00  0.00    -0.017 A 
HETATM   14  C   UNL     1      43.192  -9.608   9.686  1.00  0.00    -0.025 A 
HETATM   15  C   UNL     1      44.146 -10.112   7.523  1.00  0.00     0.013 A 
HETATM   16  C   UNL     1      44.478  -9.705  10.244  1.00  0.00     0.012 A 
HETATM   17  C   UNL     1      42.105  -9.330  10.522  1.00  0.00     0.012 A 
HETATM   18  C   UNL     1      45.586 -10.000   9.454  1.00  0.00     0.001 A 
HETATM   19  C   UNL     1      45.419 -10.209   8.094  1.00  0.00     0.001 A 
HETATM   20  C   UNL     1      40.815  -9.247  10.012  1.00  0.00     0.002 A 
HETATM   21  C   UNL     1      40.600  -9.422   8.651  1.00  0.00     0.010 A 
ENDBRANCH   9  12
BRANCH  10  22
HETATM   22  C   UNL     1      40.921  -7.471   5.501  1.00  0.00     0.293 C 
HETATM   23  O   UNL     1      41.498  -7.122   4.485  1.00  0.00    -0.259 OA
BRANCH  22  24
HETATM   24  O   UNL     1      40.592  -6.667   6.543  1.00  0.00    -0.323 OA
HETATM   25  C   UNL     1      41.699  -6.001   7.153  1.00  0.00     0.213 C 
ENDBRANCH  22  24
ENDBRANCH  10  22
BRANCH   7  26
HETATM   26  S   UNL     1      41.194 -14.939   5.573  1.00  0.00    -0.083 SA
BRANCH  26  27
HETATM   27  C   UNL     1      42.597 -14.858   4.428  1.00  0.00     0.123 C 
BRANCH  27  28
HETATM   28  C   UNL     1      43.032 -16.245   4.008  1.00  0.00    -0.027 A 
HETATM   29  C   UNL     1      43.924 -17.025   4.762  1.00  0.00     0.041 A 
HETATM   30 CL   UNL     1      44.574 -16.483   6.268  1.00  0.00    -0.084 Cl
HETATM   31  C   UNL     1      44.324 -18.288   4.307  1.00  0.00     0.024 A 
HETATM   32  C   UNL     1      43.847 -18.782   3.093  1.00  0.00     0.002 A 
HETATM   33  C   UNL     1      42.969 -18.018   2.332  1.00  0.00     0.001 A 
HETATM   34  C   UNL     1      42.566 -16.760   2.784  1.00  0.00     0.009 A 
ENDBRANCH  27  28
ENDBRANCH  26  27
ENDBRANCH   7  26
TORSDOF 6
ENDMDL
MODEL 8
REMARK VINA RESULT:      -8.2      3.272      6.681
REMARK  6 active torsions:
REMARK  status: ('A' for Active; 'I' for Inactive)
REMARK    1  A    between atoms: C_7  and  S_8 
REMARK    2  A    between atoms: S_8  and  C_9 
REMARK    3  A    between atoms: C_9  and  C_10 
REMARK    4  A    between atoms: C_18  and  C_19 
REMARK    5  A    between atoms: C_29  and  C_30 
REMARK    6  A    between atoms: C_30  and  O_31 
ROOT
HETATM    1  C   UNL     1      43.357 -17.807   5.023  1.00  0.00     0.070 C 
HETATM    2  C   UNL     1      42.560 -16.649   4.477  1.00  0.00     0.037 C 
HETATM    3  N   UNL     1      42.704 -16.411   3.113  1.00  0.00    -0.192 N 
HETATM    4  C   UNL     1      41.912 -15.552   2.442  1.00  0.00     0.726 A 
HETATM    5  N   UNL     1      41.102 -14.699   3.140  1.00  0.00    -0.082 N 
HETATM    6  N   UNL     1      40.279 -14.019   2.315  1.00  0.00    -0.128 NA
HETATM    7  C   UNL     1      40.702 -14.459   1.123  1.00  0.00     0.226 A 
HETATM    8  N   UNL     1      41.704 -15.398   1.162  1.00  0.00    -0.035 NA
HETATM    9  C   UNL     1      41.064 -14.627   4.606  1.00  0.00     0.204 C 
HETATM   10  C   UNL     1      41.753 -15.847   5.218  1.00  0.00     0.070 C 
HETATM   11  H   UNL     1      43.218 -17.103   2.573  1.00  0.00     0.184 HD
ENDROOT
BRANCH   9  12
HETATM   12  C   UNL     1      41.650 -13.278   5.052  1.00  0.00    -0.017 A 
HETATM   13  C   UNL     1      40.829 -12.215   5.545  1.00  0.00    -0.017 A 
HETATM   14  C   UNL     1      41.455 -11.007   5.957  1.00  0.00    -0.025 A 
HETATM   15  C   UNL     1      39.416 -12.266   5.648  1.00  0.00     0.013 A 
HETATM   16  C   UNL     1      40.690  -9.943   6.463  1.00  0.00     0.012 A 
HETATM   17  C   UNL     1      42.844 -10.861   5.856  1.00  0.00     0.012 A 
HETATM   18  C   UNL     1      39.304 -10.037   6.562  1.00  0.00     0.001 A 
HETATM   19  C   UNL     1      38.667 -11.196   6.150  1.00  0.00     0.001 A 
HETATM   20  C   UNL     1      43.634 -11.880   5.342  1.00  0.00     0.002 A 
HETATM   21  C   UNL     1      43.045 -13.073   4.940  1.00  0.00     0.010 A 
ENDBRANCH   9  12
BRANCH  10  22
HETATM   22  C   UNL     1      41.401 -16.102   6.631  1.00  0.00     0.293 C 
HETATM   23  O   UNL     1      40.257 -16.153   7.048  1.00  0.00    -0.259 OA
BRANCH  22  24
HETATM   24  O   UNL     1      42.520 -16.380   7.346  1.00  0.00    -0.323 OA
HETATM   25  C   UNL     1      43.110 -15.249   7.991  1.00  0.00     0.213 C 
ENDBRANCH  22  24
ENDBRANCH  10  22
BRANCH   7  26
HETATM   26  S   UNL     1      40.004 -13.949  -0.388  1.00  0.00    -0.083 SA
BRANCH  26  27
HETATM   27  C   UNL     1      40.500 -12.206  -0.442  1.00  0.00     0.123 C 
BRANCH  27  28
HETATM   28  C   UNL     1      39.749 -11.400   0.594  1.00  0.00    -0.027 A 
HETATM   29  C   UNL     1      40.376 -10.811   1.705  1.00  0.00     0.041 A 
HETATM   30 CL   UNL     1      42.081 -10.922   1.964  1.00  0.00    -0.084 Cl
HETATM   31  C   UNL     1      39.626 -10.108   2.655  1.00  0.00     0.024 A 
HETATM   32  C   UNL     1      38.244  -9.991   2.514  1.00  0.00     0.002 A 
HETATM   33  C   UNL     1      37.607 -10.574   1.424  1.00  0.00     0.001 A 
HETATM   34  C   UNL     1      38.352 -11.274   0.472  1.00  0.00     0.009 A 
ENDBRANCH  27  28
ENDBRANCH  26  27
ENDBRANCH   7  26
TORSDOF 6
ENDMDL
MODEL 9
REMARK VINA RESULT:      -8.1      3.759      7.099
REMARK  6 active torsions:
REMARK  status: ('A' for Active; 'I' for Inactive)
REMARK    1  A    between atoms: C_7  and  S_8 
REMARK    2  A    between atoms: S_8  and  C_9 
REMARK    3  A    between atoms: C_9  and  C_10 
REMARK    4  A    between atoms: C_18  and  C_19 
REMARK    5  A    between atoms: C_29  and  C_30 
REMARK    6  A    between atoms: C_30  and  O_31 
ROOT
HETATM    1  C   UNL     1      43.185 -17.234   2.206  1.00  0.00     0.070 C 
HETATM    2  C   UNL     1      42.293 -16.019   2.245  1.00  0.00     0.037 C 
HETATM    3  N   UNL     1      42.050 -15.412   1.016  1.00  0.00    -0.192 N 
HETATM    4  C   UNL     1      41.120 -14.450   0.856  1.00  0.00     0.726 A 
HETATM    5  N   UNL     1      40.560 -13.866   1.959  1.00  0.00    -0.082 N 
HETATM    6  N   UNL     1      39.553 -13.037   1.616  1.00  0.00    -0.128 NA
HETATM    7  C   UNL     1      39.612 -13.112   0.280  1.00  0.00     0.226 A 
HETATM    8  N   UNL     1      40.562 -13.967  -0.221  1.00  0.00    -0.035 NA
HETATM    9  C   UNL     1      40.940 -14.197   3.338  1.00  0.00     0.204 C 
HETATM   10  C   UNL     1      41.746 -15.495   3.372  1.00  0.00     0.070 C 
HETATM   11  H   UNL     1      42.374 -15.901   0.185  1.00  0.00     0.184 HD
ENDROOT
BRANCH   9  12
HETATM   12  C   UNL     1      41.658 -12.988   3.958  1.00  0.00    -0.017 A 
HETATM   13  C   UNL     1      41.024 -12.131   4.912  1.00  0.00    -0.017 A 
HETATM   14  C   UNL     1      41.769 -11.047   5.453  1.00  0.00    -0.025 A 
HETATM   15  C   UNL     1      39.687 -12.271   5.362  1.00  0.00     0.013 A 
HETATM   16  C   UNL     1      41.192 -10.190   6.405  1.00  0.00     0.012 A 
HETATM   17  C   UNL     1      43.085 -10.816   5.036  1.00  0.00     0.012 A 
HETATM   18  C   UNL     1      39.879 -10.369   6.833  1.00  0.00     0.001 A 
HETATM   19  C   UNL     1      39.125 -11.406   6.307  1.00  0.00     0.001 A 
HETATM   20  C   UNL     1      43.685 -11.628   4.082  1.00  0.00     0.002 A 
HETATM   21  C   UNL     1      42.979 -12.697   3.545  1.00  0.00     0.010 A 
ENDBRANCH   9  12
BRANCH  10  22
HETATM   22  C   UNL     1      41.803 -16.144   4.700  1.00  0.00     0.293 C 
HETATM   23  O   UNL     1      42.834 -16.325   5.325  1.00  0.00    -0.259 OA
BRANCH  22  24
HETATM   24  O   UNL     1      40.547 -16.391   5.151  1.00  0.00    -0.323 OA
HETATM   25  C   UNL     1      40.281 -15.901   6.466  1.00  0.00     0.213 C 
ENDBRANCH  22  24
ENDBRANCH  10  22
BRANCH   7  26
HETATM   26  S   UNL     1      38.526 -12.253  -0.775  1.00  0.00    -0.083 SA
BRANCH  26  27
HETATM   27  C   UNL     1      39.237 -10.586  -0.739  1.00  0.00     0.123 C 
BRANCH  27  28
HETATM   28  C   UNL     1      39.304 -10.058   0.677  1.00  0.00    -0.027 A 
HETATM   29  C   UNL     1      38.159  -9.780   1.442  1.00  0.00     0.041 A 
HETATM   30 CL   UNL     1      36.563 -10.059   0.843  1.00  0.00    -0.084 Cl
HETATM   31  C   UNL     1      38.278  -9.255   2.734  1.00  0.00     0.024 A 
HETATM   32  C   UNL     1      39.537  -8.994   3.275  1.00  0.00     0.002 A 
HETATM   33  C   UNL     1      40.679  -9.257   2.527  1.00  0.00     0.001 A 
HETATM   34  C   UNL     1      40.565  -9.783   1.239  1.00  0.00     0.009 A 
ENDBRANCH  27  28
ENDBRANCH  26  27
ENDBRANCH   7  26
TORSDOF 6
ENDMDL
MODEL 10
REMARK VINA RESULT:      -8.0      3.362      7.641
REMARK  6 active torsions:
REMARK  status: ('A' for Active; 'I' for Inactive)
REMARK    1  A    between atoms: C_7  and  S_8 
REMARK    2  A    between atoms: S_8  and  C_9 
REMARK    3  A    between atoms: C_9  and  C_10 
REMARK    4  A    between atoms: C_18  and  C_19 
REMARK    5  A    between atoms: C_29  and  C_30 
REMARK    6  A    between atoms: C_30  and  O_31 
ROOT
HETATM    1  C   UNL     1      42.029 -16.426   6.602  1.00  0.00     0.070 C 
HETATM    2  C   UNL     1      42.401 -15.008   6.245  1.00  0.00     0.037 C 
HETATM    3  N   UNL     1      42.952 -14.253   7.278  1.00  0.00    -0.192 N 
HETATM    4  C   UNL     1      43.517 -13.048   7.070  1.00  0.00     0.726 A 
HETATM    5  N   UNL     1      43.340 -12.421   5.867  1.00  0.00    -0.082 N 
HETATM    6  N   UNL     1      44.091 -11.303   5.782  1.00  0.00    -0.128 NA
HETATM    7  C   UNL     1      44.639 -11.278   7.004  1.00  0.00     0.226 A 
HETATM    8  N   UNL     1      44.307 -12.331   7.821  1.00  0.00    -0.035 NA
HETATM    9  C   UNL     1      42.525 -12.967   4.775  1.00  0.00     0.204 C 
HETATM   10  C   UNL     1      42.220 -14.444   5.023  1.00  0.00     0.070 C 
HETATM   11  H   UNL     1      43.182 -14.743   8.139  1.00  0.00     0.184 HD
ENDROOT
BRANCH   9  12
HETATM   12  C   UNL     1      41.279 -12.085   4.597  1.00  0.00    -0.017 A 
HETATM   13  C   UNL     1      41.062 -11.299   3.421  1.00  0.00    -0.017 A 
HETATM   14  C   UNL     1      39.872 -10.528   3.329  1.00  0.00    -0.025 A 
HETATM   15  C   UNL     1      41.959 -11.218   2.326  1.00  0.00     0.013 A 
HETATM   16  C   UNL     1      39.609  -9.755   2.185  1.00  0.00     0.012 A 
HETATM   17  C   UNL     1      38.949 -10.523   4.381  1.00  0.00     0.012 A 
HETATM   18  C   UNL     1      40.509  -9.713   1.123  1.00  0.00     0.001 A 
HETATM   19  C   UNL     1      41.686 -10.441   1.195  1.00  0.00     0.001 A 
HETATM   20  C   UNL     1      39.181 -11.256   5.538  1.00  0.00     0.002 A 
HETATM   21  C   UNL     1      40.334 -12.024   5.647  1.00  0.00     0.010 A 
ENDBRANCH   9  12
BRANCH  10  22
HETATM   22  C   UNL     1      41.799 -15.191   3.820  1.00  0.00     0.293 C 
HETATM   23  O   UNL     1      40.635 -15.370   3.503  1.00  0.00    -0.259 OA
BRANCH  22  24
HETATM   24  O   UNL     1      42.884 -15.535   3.081  1.00  0.00    -0.323 OA
HETATM   25  C   UNL     1      43.185 -16.932   3.081  1.00  0.00     0.213 C 
ENDBRANCH  22  24
ENDBRANCH  10  22
BRANCH   7  26
HETATM   26  S   UNL     1      45.754 -10.048   7.528  1.00  0.00    -0.083 SA
BRANCH  26  27
HETATM   27  C   UNL     1      45.496 -10.072   9.322  1.00  0.00     0.123 C 
BRANCH  27  28
HETATM   28  C   UNL     1      44.471  -9.038   9.734  1.00  0.00    -0.027 A 
HETATM   29  C   UNL     1      43.578  -9.233  10.800  1.00  0.00     0.041 A 
HETATM   30 CL   UNL     1      43.600 -10.664  11.769  1.00  0.00    -0.084 Cl
HETATM   31  C   UNL     1      42.621  -8.260  11.114  1.00  0.00     0.024 A 
HETATM   32  C   UNL     1      42.539  -7.087  10.364  1.00  0.00     0.002 A 
HETATM   33  C   UNL     1      43.412  -6.882   9.301  1.00  0.00     0.001 A 
HETATM   34  C   UNL     1      44.369  -7.849   8.987  1.00  0.00     0.009 A 
ENDBRANCH  27  28
ENDBRANCH  26  27
ENDBRANCH   7  26
TORSDOF 6
ENDMDL
