MODEL 1
REMARK VINA RESULT:      -8.3      0.000      0.000
REMARK  2 active torsions:
REMARK  status: ('A' for Active; 'I' for Inactive)
REMARK    1  A    between atoms: C_8  and  N_9 
REMARK       I    between atoms: N_9  and  C_10 
REMARK       I    between atoms: C_10  and  N_11 
REMARK    2  A    between atoms: N_11  and  C_12 
ROOT
HETATM    1  C   UNL     1      43.652 -19.955   2.787  1.00  0.00     0.044 A 
HETATM    2  C   UNL     1      44.036 -19.894   4.116  1.00  0.00     0.117 A 
HETATM    3  F   UNL     1      44.377 -21.018   4.757  1.00  0.00    -0.206 F 
HETATM    4  C   UNL     1      44.044 -18.685   4.800  1.00  0.00     0.067 A 
HETATM    5  C   UNL     1      43.670 -17.498   4.147  1.00  0.00     0.074 A 
HETATM    6  C   UNL     1      43.566 -16.321   4.961  1.00  0.00     0.102 C 
HETATM    7  N   UNL     1      43.459 -15.379   5.631  1.00  0.00    -0.191 NA
HETATM    8  C   UNL     1      43.308 -17.538   2.783  1.00  0.00     0.057 A 
HETATM    9  C   UNL     1      43.284 -18.783   2.124  1.00  0.00     0.034 A 
ENDROOT
BRANCH   8  10
HETATM   10  N   UNL     1      42.890 -16.433   1.998  1.00  0.00    -0.308 N 
HETATM   11  C   UNL     1      41.630 -15.899   1.921  1.00  0.00     0.321 C 
HETATM   12  N   UNL     1      41.523 -15.017   0.872  1.00  0.00    -0.336 N 
HETATM   13  O   UNL     1      40.682 -16.133   2.660  1.00  0.00    -0.247 OA
HETATM   14  H   UNL     1      42.231 -15.108   0.153  1.00  0.00     0.164 HD
HETATM   15  H   UNL     1      43.622 -15.789   1.722  1.00  0.00     0.170 HD
BRANCH  12  16
HETATM   16  C   UNL     1      40.296 -14.303   0.510  1.00  0.00     0.118 C 
HETATM   17  C   UNL     1      40.407 -12.774   0.351  1.00  0.00     0.210 C 
HETATM   18  N   UNL     1      40.798 -12.612  -1.090  1.00  0.00    -0.065 N 
HETATM   19  C   UNL     1      41.386 -12.006   1.224  1.00  0.00     0.035 C 
HETATM   20  H   UNL     1      41.779 -12.968  -1.181  1.00  0.00     0.280 HD
HETATM   21  C   UNL     1      40.767 -11.202  -1.570  1.00  0.00     0.235 C 
HETATM   22  C   UNL     1      39.953 -13.601  -1.834  1.00  0.00     0.237 C 
HETATM   23  C   UNL     1      41.692 -10.361  -0.697  1.00  0.00     0.028 C 
HETATM   24  C   UNL     1      41.423 -10.533   0.802  1.00  0.00     0.004 C 
HETATM   25  C   UNL     1      39.736 -14.755  -0.851  1.00  0.00     0.055 C 
ENDBRANCH  12  16
ENDBRANCH   8  10
TORSDOF 2
ENDMDL
MODEL 2
REMARK VINA RESULT:      -8.3      1.516      2.498
REMARK  2 active torsions:
REMARK  status: ('A' for Active; 'I' for Inactive)
REMARK    1  A    between atoms: C_8  and  N_9 
REMARK       I    between atoms: N_9  and  C_10 
REMARK       I    between atoms: C_10  and  N_11 
REMARK    2  A    between atoms: N_11  and  C_12 
ROOT
HETATM    1  C   UNL     1      43.851 -19.319   2.952  1.00  0.00     0.044 A 
HETATM    2  C   UNL     1      44.196 -19.055   4.268  1.00  0.00     0.117 A 
HETATM    3  F   UNL     1      44.967 -19.923   4.934  1.00  0.00    -0.206 F 
HETATM    4  C   UNL     1      43.730 -17.917   4.912  1.00  0.00     0.067 A 
HETATM    5  C   UNL     1      42.904 -17.005   4.232  1.00  0.00     0.074 A 
HETATM    6  C   UNL     1      42.350 -15.935   5.010  1.00  0.00     0.102 C 
HETATM    7  N   UNL     1      41.884 -15.087   5.653  1.00  0.00    -0.191 NA
HETATM    8  C   UNL     1      42.570 -17.241   2.881  1.00  0.00     0.057 A 
HETATM    9  C   UNL     1      43.036 -18.418   2.264  1.00  0.00     0.034 A 
ENDROOT
BRANCH   8  10
HETATM   10  N   UNL     1      41.734 -16.427   2.073  1.00  0.00    -0.308 N 
HETATM   11  C   UNL     1      42.002 -15.164   1.612  1.00  0.00     0.321 C 
HETATM   12  N   UNL     1      40.876 -14.573   1.091  1.00  0.00    -0.336 N 
HETATM   13  O   UNL     1      43.080 -14.584   1.630  1.00  0.00    -0.247 OA
HETATM   14  H   UNL     1      39.995 -14.982   1.382  1.00  0.00     0.164 HD
HETATM   15  H   UNL     1      41.036 -16.919   1.529  1.00  0.00     0.170 HD
BRANCH  12  16
HETATM   16  C   UNL     1      40.830 -13.214   0.544  1.00  0.00     0.118 C 
HETATM   17  C   UNL     1      40.076 -13.031  -0.789  1.00  0.00     0.210 C 
HETATM   18  N   UNL     1      38.663 -12.785  -0.346  1.00  0.00    -0.065 N 
HETATM   19  C   UNL     1      40.092 -14.156  -1.811  1.00  0.00     0.035 C 
HETATM   20  H   UNL     1      38.306 -13.688   0.048  1.00  0.00     0.280 HD
HETATM   21  C   UNL     1      37.750 -12.362  -1.445  1.00  0.00     0.235 C 
HETATM   22  C   UNL     1      38.780 -11.865   0.831  1.00  0.00     0.237 C 
HETATM   23  C   UNL     1      37.761 -13.427  -2.536  1.00  0.00     0.028 C 
HETATM   24  C   UNL     1      39.174 -13.809  -2.988  1.00  0.00     0.004 C 
HETATM   25  C   UNL     1      40.116 -12.228   1.485  1.00  0.00     0.055 C 
ENDBRANCH  12  16
ENDBRANCH   8  10
TORSDOF 2
ENDMDL
MODEL 3
REMARK VINA RESULT:      -7.8      2.442      3.741
REMARK  2 active torsions:
REMARK  status: ('A' for Active; 'I' for Inactive)
REMARK    1  A    between atoms: C_8  and  N_9 
REMARK       I    between atoms: N_9  and  C_10 
REMARK       I    between atoms: C_10  and  N_11 
REMARK    2  A    between atoms: N_11  and  C_12 
ROOT
HETATM    1  C   UNL     1      41.347 -15.960   6.727  1.00  0.00     0.044 A 
HETATM    2  C   UNL     1      42.433 -16.792   6.514  1.00  0.00     0.117 A 
HETATM    3  F   UNL     1      43.110 -17.275   7.563  1.00  0.00    -0.206 F 
HETATM    4  C   UNL     1      42.845 -17.111   5.227  1.00  0.00     0.067 A 
HETATM    5  C   UNL     1      42.156 -16.598   4.115  1.00  0.00     0.074 A 
HETATM    6  C   UNL     1      42.731 -16.856   2.826  1.00  0.00     0.102 C 
HETATM    7  N   UNL     1      43.218 -17.046   1.789  1.00  0.00    -0.191 NA
HETATM    8  C   UNL     1      41.026 -15.775   4.313  1.00  0.00     0.057 A 
HETATM    9  C   UNL     1      40.650 -15.448   5.631  1.00  0.00     0.034 A 
ENDROOT
BRANCH   8  10
HETATM   10  N   UNL     1      40.245 -15.169   3.296  1.00  0.00    -0.308 N 
HETATM   11  C   UNL     1      40.598 -14.111   2.498  1.00  0.00     0.321 C 
HETATM   12  N   UNL     1      39.512 -13.616   1.815  1.00  0.00    -0.336 N 
HETATM   13  O   UNL     1      41.713 -13.625   2.366  1.00  0.00    -0.247 OA
HETATM   14  H   UNL     1      38.607 -13.864   2.197  1.00  0.00     0.164 HD
HETATM   15  H   UNL     1      39.511 -15.747   2.904  1.00  0.00     0.170 HD
BRANCH  12  16
HETATM   16  C   UNL     1      39.558 -12.470   0.903  1.00  0.00     0.118 C 
HETATM   17  C   UNL     1      39.434 -12.779  -0.602  1.00  0.00     0.210 C 
HETATM   18  N   UNL     1      37.950 -12.763  -0.829  1.00  0.00    -0.065 N 
HETATM   19  C   UNL     1      40.009 -14.078  -1.143  1.00  0.00     0.035 C 
HETATM   20  H   UNL     1      37.559 -13.606  -0.345  1.00  0.00     0.280 HD
HETATM   21  C   UNL     1      37.557 -12.827  -2.265  1.00  0.00     0.235 C 
HETATM   22  C   UNL     1      37.450 -11.591  -0.040  1.00  0.00     0.237 C 
HETATM   23  C   UNL     1      38.151 -14.086  -2.886  1.00  0.00     0.028 C 
HETATM   24  C   UNL     1      39.654 -14.232  -2.626  1.00  0.00     0.004 C 
HETATM   25  C   UNL     1      38.407 -11.479   1.151  1.00  0.00     0.055 C 
ENDBRANCH  12  16
ENDBRANCH   8  10
TORSDOF 2
ENDMDL
MODEL 4
REMARK VINA RESULT:      -7.7      2.999      4.133
REMARK  2 active torsions:
REMARK  status: ('A' for Active; 'I' for Inactive)
REMARK    1  A    between atoms: C_8  and  N_9 
REMARK       I    between atoms: N_9  and  C_10 
REMARK       I    between atoms: C_10  and  N_11 
REMARK    2  A    between atoms: N_11  and  C_12 
ROOT
HETATM    1  C   UNL     1      42.185 -16.821   5.467  1.00  0.00     0.044 A 
HETATM    2  C   UNL     1      42.194 -16.158   6.683  1.00  0.00     0.117 A 
HETATM    3  F   UNL     1      42.869 -16.679   7.714  1.00  0.00    -0.206 F 
HETATM    4  C   UNL     1      41.488 -14.975   6.854  1.00  0.00     0.067 A 
HETATM    5  C   UNL     1      40.758 -14.424   5.787  1.00  0.00     0.074 A 
HETATM    6  C   UNL     1      39.942 -13.282   6.086  1.00  0.00     0.102 C 
HETATM    7  N   UNL     1      39.264 -12.375   6.343  1.00  0.00    -0.191 NA
HETATM    8  C   UNL     1      40.766 -15.069   4.530  1.00  0.00     0.057 A 
HETATM    9  C   UNL     1      41.469 -16.281   4.396  1.00  0.00     0.034 A 
ENDROOT
BRANCH   8  10
HETATM   10  N   UNL     1      40.065 -14.647   3.371  1.00  0.00    -0.308 N 
HETATM   11  C   UNL     1      40.438 -13.668   2.487  1.00  0.00     0.321 C 
HETATM   12  N   UNL     1      39.406 -13.339   1.640  1.00  0.00    -0.336 N 
HETATM   13  O   UNL     1      41.530 -13.120   2.408  1.00  0.00    -0.247 OA
HETATM   14  H   UNL     1      38.481 -13.605   1.958  1.00  0.00     0.164 HD
HETATM   15  H   UNL     1      39.415 -15.319   2.983  1.00  0.00     0.170 HD
BRANCH  12  16
HETATM   16  C   UNL     1      39.481 -12.308   0.601  1.00  0.00     0.118 C 
HETATM   17  C   UNL     1      39.345 -12.787  -0.858  1.00  0.00     0.210 C 
HETATM   18  N   UNL     1      37.861 -12.756  -1.085  1.00  0.00    -0.065 N 
HETATM   19  C   UNL     1      39.881 -14.156  -1.243  1.00  0.00     0.035 C 
HETATM   20  H   UNL     1      37.448 -13.525  -0.506  1.00  0.00     0.280 HD
HETATM   21  C   UNL     1      37.463 -12.975  -2.505  1.00  0.00     0.235 C 
HETATM   22  C   UNL     1      37.397 -11.486  -0.439  1.00  0.00     0.237 C 
HETATM   23  C   UNL     1      38.019 -14.315  -2.974  1.00  0.00     0.028 C 
HETATM   24  C   UNL     1      39.517 -14.472  -2.698  1.00  0.00     0.004 C 
HETATM   25  C   UNL     1      38.359 -11.263   0.731  1.00  0.00     0.055 C 
ENDBRANCH  12  16
ENDBRANCH   8  10
TORSDOF 2
ENDMDL
MODEL 5
REMARK VINA RESULT:      -7.7      2.591      3.193
REMARK  2 active torsions:
REMARK  status: ('A' for Active; 'I' for Inactive)
REMARK    1  A    between atoms: C_8  and  N_9 
REMARK       I    between atoms: N_9  and  C_10 
REMARK       I    between atoms: C_10  and  N_11 
REMARK    2  A    between atoms: N_11  and  C_12 
ROOT
HETATM    1  C   UNL     1      43.178 -19.595   2.213  1.00  0.00     0.044 A 
HETATM    2  C   UNL     1      43.928 -20.073   3.274  1.00  0.00     0.117 A 
HETATM    3  F   UNL     1      44.309 -21.356   3.289  1.00  0.00    -0.206 F 
HETATM    4  C   UNL     1      44.267 -19.246   4.337  1.00  0.00     0.067 A 
HETATM    5  C   UNL     1      43.860 -17.901   4.346  1.00  0.00     0.074 A 
HETATM    6  C   UNL     1      44.126 -17.156   5.543  1.00  0.00     0.102 C 
HETATM    7  N   UNL     1      44.321 -16.568   6.525  1.00  0.00    -0.191 NA
HETATM    8  C   UNL     1      43.123 -17.388   3.256  1.00  0.00     0.057 A 
HETATM    9  C   UNL     1      42.772 -18.259   2.207  1.00  0.00     0.034 A 
ENDROOT
BRANCH   8  10
HETATM   10  N   UNL     1      42.627 -16.065   3.132  1.00  0.00    -0.308 N 
HETATM   11  C   UNL     1      41.322 -15.656   3.225  1.00  0.00     0.321 C 
HETATM   12  N   UNL     1      41.172 -14.360   2.791  1.00  0.00    -0.336 N 
HETATM   13  O   UNL     1      40.370 -16.309   3.633  1.00  0.00    -0.247 OA
HETATM   14  H   UNL     1      41.919 -14.008   2.205  1.00  0.00     0.164 HD
HETATM   15  H   UNL     1      43.298 -15.327   3.310  1.00  0.00     0.170 HD
BRANCH  12  16
HETATM   16  C   UNL     1      39.894 -13.645   2.740  1.00  0.00     0.118 C 
HETATM   17  C   UNL     1      39.586 -12.695   3.914  1.00  0.00     0.210 C 
HETATM   18  N   UNL     1      40.205 -11.401   3.472  1.00  0.00    -0.065 N 
HETATM   19  C   UNL     1      40.094 -13.044   5.304  1.00  0.00     0.035 C 
HETATM   20  H   UNL     1      41.243 -11.536   3.496  1.00  0.00     0.280 HD
HETATM   21  C   UNL     1      39.866 -10.240   4.344  1.00  0.00     0.235 C 
HETATM   22  C   UNL     1      39.858 -11.282   2.019  1.00  0.00     0.237 C 
HETATM   23  C   UNL     1      40.302 -10.548   5.771  1.00  0.00     0.028 C 
HETATM   24  C   UNL     1      39.788 -11.900   6.277  1.00  0.00     0.004 C 
HETATM   25  C   UNL     1      39.786 -12.725   1.511  1.00  0.00     0.055 C 
ENDBRANCH  12  16
ENDBRANCH   8  10
TORSDOF 2
ENDMDL
MODEL 6
REMARK VINA RESULT:      -7.5      3.729      5.447
REMARK  2 active torsions:
REMARK  status: ('A' for Active; 'I' for Inactive)
REMARK    1  A    between atoms: C_8  and  N_9 
REMARK       I    between atoms: N_9  and  C_10 
REMARK       I    between atoms: C_10  and  N_11 
REMARK    2  A    between atoms: N_11  and  C_12 
ROOT
HETATM    1  C   UNL     1      44.390 -18.533   3.876  1.00  0.00     0.044 A 
HETATM    2  C   UNL     1      43.724 -18.998   2.755  1.00  0.00     0.117 A 
HETATM    3  F   UNL     1      44.139 -20.123   2.159  1.00  0.00    -0.206 F 
HETATM    4  C   UNL     1      42.649 -18.298   2.223  1.00  0.00     0.067 A 
HETATM    5  C   UNL     1      42.213 -17.105   2.825  1.00  0.00     0.074 A 
HETATM    6  C   UNL     1      41.194 -16.370   2.132  1.00  0.00     0.102 C 
HETATM    7  N   UNL     1      40.388 -15.768   1.552  1.00  0.00    -0.191 NA
HETATM    8  C   UNL     1      42.859 -16.635   3.989  1.00  0.00     0.057 A 
HETATM    9  C   UNL     1      43.963 -17.353   4.487  1.00  0.00     0.034 A 
ENDROOT
BRANCH   8  10
HETATM   10  N   UNL     1      42.547 -15.443   4.693  1.00  0.00    -0.308 N 
HETATM   11  C   UNL     1      42.804 -14.156   4.300  1.00  0.00     0.321 C 
HETATM   12  N   UNL     1      42.614 -13.270   5.333  1.00  0.00    -0.336 N 
HETATM   13  O   UNL     1      43.157 -13.778   3.190  1.00  0.00    -0.247 OA
HETATM   14  H   UNL     1      42.621 -13.676   6.262  1.00  0.00     0.164 HD
HETATM   15  H   UNL     1      41.801 -15.519   5.374  1.00  0.00     0.170 HD
BRANCH  12  16
HETATM   16  C   UNL     1      42.834 -11.824   5.238  1.00  0.00     0.118 C 
HETATM   17  C   UNL     1      41.626 -10.919   5.552  1.00  0.00     0.210 C 
HETATM   18  N   UNL     1      41.726 -10.727   7.038  1.00  0.00    -0.065 N 
HETATM   19  C   UNL     1      40.227 -11.400   5.202  1.00  0.00     0.035 C 
HETATM   20  H   UNL     1      41.497 -11.649   7.479  1.00  0.00     0.280 HD
HETATM   21  C   UNL     1      40.785  -9.706   7.580  1.00  0.00     0.235 C 
HETATM   22  C   UNL     1      43.185 -10.516   7.305  1.00  0.00     0.237 C 
HETATM   23  C   UNL     1      39.359 -10.101   7.214  1.00  0.00     0.028 C 
HETATM   24  C   UNL     1      39.185 -10.405   5.723  1.00  0.00     0.004 C 
HETATM   25  C   UNL     1      43.906 -11.329   6.225  1.00  0.00     0.055 C 
ENDBRANCH  12  16
ENDBRANCH   8  10
TORSDOF 2
ENDMDL
MODEL 7
REMARK VINA RESULT:      -7.4      1.994      2.643
REMARK  2 active torsions:
REMARK  status: ('A' for Active; 'I' for Inactive)
REMARK    1  A    between atoms: C_8  and  N_9 
REMARK       I    between atoms: N_9  and  C_10 
REMARK       I    between atoms: C_10  and  N_11 
REMARK    2  A    between atoms: N_11  and  C_12 
ROOT
HETATM    1  C   UNL     1      43.567 -17.608   2.589  1.00  0.00     0.044 A 
HETATM    2  C   UNL     1      43.272 -17.568   3.942  1.00  0.00     0.117 A 
HETATM    3  F   UNL     1      43.672 -18.571   4.734  1.00  0.00    -0.206 F 
HETATM    4  C   UNL     1      42.542 -16.518   4.481  1.00  0.00     0.067 A 
HETATM    5  C   UNL     1      42.098 -15.467   3.660  1.00  0.00     0.074 A 
HETATM    6  C   UNL     1      41.230 -14.499   4.267  1.00  0.00     0.102 C 
HETATM    7  N   UNL     1      40.507 -13.735   4.758  1.00  0.00    -0.191 NA
HETATM    8  C   UNL     1      42.419 -15.474   2.285  1.00  0.00     0.057 A 
HETATM    9  C   UNL     1      43.137 -16.567   1.763  1.00  0.00     0.034 A 
ENDROOT
BRANCH   8  10
HETATM   10  N   UNL     1      42.027 -14.500   1.332  1.00  0.00    -0.308 N 
HETATM   11  C   UNL     1      40.917 -14.526   0.527  1.00  0.00     0.321 C 
HETATM   12  N   UNL     1      40.989 -13.568  -0.456  1.00  0.00    -0.336 N 
HETATM   13  O   UNL     1      39.954 -15.277   0.620  1.00  0.00    -0.247 OA
HETATM   14  H   UNL     1      41.917 -13.208  -0.646  1.00  0.00     0.164 HD
HETATM   15  H   UNL     1      42.404 -13.571   1.473  1.00  0.00     0.170 HD
BRANCH  12  16
HETATM   16  C   UNL     1      39.970 -13.361  -1.489  1.00  0.00     0.118 C 
HETATM   17  C   UNL     1      38.952 -12.231  -1.239  1.00  0.00     0.210 C 
HETATM   18  N   UNL     1      39.634 -11.027  -1.823  1.00  0.00    -0.065 N 
HETATM   19  C   UNL     1      38.522 -11.920   0.185  1.00  0.00     0.035 C 
HETATM   20  H   UNL     1      40.446 -10.806  -1.199  1.00  0.00     0.280 HD
HETATM   21  C   UNL     1      38.765  -9.820  -1.903  1.00  0.00     0.235 C 
HETATM   22  C   UNL     1      40.245 -11.511  -3.103  1.00  0.00     0.237 C 
HETATM   23  C   UNL     1      38.252  -9.484  -0.508  1.00  0.00     0.028 C 
HETATM   24  C   UNL     1      37.617 -10.683   0.203  1.00  0.00     0.004 C 
HETATM   25  C   UNL     1      40.584 -12.983  -2.848  1.00  0.00     0.055 C 
ENDBRANCH  12  16
ENDBRANCH   8  10
TORSDOF 2
ENDMDL
MODEL 8
REMARK VINA RESULT:      -7.3     14.401     17.163
REMARK  2 active torsions:
REMARK  status: ('A' for Active; 'I' for Inactive)
REMARK    1  A    between atoms: C_8  and  N_9 
REMARK       I    between atoms: N_9  and  C_10 
REMARK       I    between atoms: C_10  and  N_11 
REMARK    2  A    between atoms: N_11  and  C_12 
ROOT
HETATM    1  C   UNL     1      43.506  -8.270  11.815  1.00  0.00     0.044 A 
HETATM    2  C   UNL     1      42.842  -9.124  10.951  1.00  0.00     0.117 A 
HETATM    3  F   UNL     1      43.199  -9.166   9.661  1.00  0.00    -0.206 F 
HETATM    4  C   UNL     1      41.793  -9.916  11.398  1.00  0.00     0.067 A 
HETATM    5  C   UNL     1      41.393  -9.869  12.744  1.00  0.00     0.074 A 
HETATM    6  C   UNL     1      40.212 -10.607  13.091  1.00  0.00     0.102 C 
HETATM    7  N   UNL     1      39.241 -11.185  13.358  1.00  0.00    -0.191 NA
HETATM    8  C   UNL     1      42.080  -9.029  13.647  1.00  0.00     0.057 A 
HETATM    9  C   UNL     1      43.122  -8.218  13.157  1.00  0.00     0.034 A 
ENDROOT
BRANCH   8  10
HETATM   10  N   UNL     1      41.782  -8.861  15.023  1.00  0.00    -0.308 N 
HETATM   11  C   UNL     1      41.051  -7.852  15.596  1.00  0.00     0.321 C 
HETATM   12  N   UNL     1      41.186  -7.851  16.964  1.00  0.00    -0.336 N 
HETATM   13  O   UNL     1      40.349  -7.030  15.022  1.00  0.00    -0.247 OA
HETATM   14  H   UNL     1      41.993  -8.349  17.322  1.00  0.00     0.164 HD
HETATM   15  H   UNL     1      41.829  -9.700  15.588  1.00  0.00     0.170 HD
BRANCH  12  16
HETATM   16  C   UNL     1      40.552  -6.881  17.860  1.00  0.00     0.118 C 
HETATM   17  C   UNL     1      40.328  -7.329  19.318  1.00  0.00     0.210 C 
HETATM   18  N   UNL     1      41.616  -6.946  19.989  1.00  0.00    -0.065 N 
HETATM   19  C   UNL     1      40.029  -8.791  19.608  1.00  0.00     0.035 C 
HETATM   20  H   UNL     1      42.355  -7.587  19.617  1.00  0.00     0.280 HD
HETATM   21  C   UNL     1      41.586  -7.080  21.473  1.00  0.00     0.235 C 
HETATM   22  C   UNL     1      41.954  -5.595  19.436  1.00  0.00     0.237 C 
HETATM   23  C   UNL     1      41.235  -8.518  21.835  1.00  0.00     0.028 C 
HETATM   24  C   UNL     1      39.978  -9.027  21.121  1.00  0.00     0.004 C 
HETATM   25  C   UNL     1      41.385  -5.596  18.014  1.00  0.00     0.055 C 
ENDBRANCH  12  16
ENDBRANCH   8  10
TORSDOF 2
ENDMDL
MODEL 9
REMARK VINA RESULT:      -7.2      9.193     11.212
REMARK  2 active torsions:
REMARK  status: ('A' for Active; 'I' for Inactive)
REMARK    1  A    between atoms: C_8  and  N_9 
REMARK       I    between atoms: N_9  and  C_10 
REMARK       I    between atoms: C_10  and  N_11 
REMARK    2  A    between atoms: N_11  and  C_12 
ROOT
HETATM    1  C   UNL     1      43.255  -7.519  13.680  1.00  0.00     0.044 A 
HETATM    2  C   UNL     1      42.339  -7.732  14.697  1.00  0.00     0.117 A 
HETATM    3  F   UNL     1      42.469  -7.069  15.852  1.00  0.00    -0.206 F 
HETATM    4  C   UNL     1      41.305  -8.646  14.543  1.00  0.00     0.067 A 
HETATM    5  C   UNL     1      41.166  -9.365  13.344  1.00  0.00     0.074 A 
HETATM    6  C   UNL     1      40.162 -10.390  13.321  1.00  0.00     0.102 C 
HETATM    7  N   UNL     1      39.367 -11.236  13.319  1.00  0.00    -0.191 NA
HETATM    8  C   UNL     1      42.070  -9.135  12.285  1.00  0.00     0.057 A 
HETATM    9  C   UNL     1      43.125  -8.222  12.481  1.00  0.00     0.034 A 
ENDROOT
BRANCH   8  10
HETATM   10  N   UNL     1      42.070  -9.794  11.029  1.00  0.00    -0.308 N 
HETATM   11  C   UNL     1      42.631  -9.351   9.859  1.00  0.00     0.321 C 
HETATM   12  N   UNL     1      42.214 -10.105   8.787  1.00  0.00    -0.336 N 
HETATM   13  O   UNL     1      43.410  -8.417   9.720  1.00  0.00    -0.247 OA
HETATM   14  H   UNL     1      41.367 -10.641   8.936  1.00  0.00     0.164 HD
HETATM   15  H   UNL     1      41.934 -10.798  11.060  1.00  0.00     0.170 HD
BRANCH  12  16
HETATM   16  C   UNL     1      42.615  -9.865   7.398  1.00  0.00     0.118 C 
HETATM   17  C   UNL     1      43.127 -11.085   6.607  1.00  0.00     0.210 C 
HETATM   18  N   UNL     1      41.868 -11.666   6.030  1.00  0.00    -0.065 N 
HETATM   19  C   UNL     1      43.892 -12.177   7.338  1.00  0.00     0.035 C 
HETATM   20  H   UNL     1      41.325 -12.068   6.830  1.00  0.00     0.280 HD
HETATM   21  C   UNL     1      42.103 -12.749   5.034  1.00  0.00     0.235 C 
HETATM   22  C   UNL     1      41.071 -10.482   5.571  1.00  0.00     0.237 C 
HETATM   23  C   UNL     1      42.918 -13.858   5.690  1.00  0.00     0.028 C 
HETATM   24  C   UNL     1      44.182 -13.342   6.386  1.00  0.00     0.004 C 
HETATM   25  C   UNL     1      41.451  -9.353   6.533  1.00  0.00     0.055 C 
ENDBRANCH  12  16
ENDBRANCH   8  10
TORSDOF 2
ENDMDL
MODEL 10
REMARK VINA RESULT:      -7.2      9.351     11.580
REMARK  2 active torsions:
REMARK  status: ('A' for Active; 'I' for Inactive)
REMARK    1  A    between atoms: C_8  and  N_9 
REMARK       I    between atoms: N_9  and  C_10 
REMARK       I    between atoms: C_10  and  N_11 
REMARK    2  A    between atoms: N_11  and  C_12 
ROOT
HETATM    1  C   UNL     1      46.379 -10.644   7.493  1.00  0.00     0.044 A 
HETATM    2  C   UNL     1      46.029 -11.329   6.341  1.00  0.00     0.117 A 
HETATM    3  F   UNL     1      46.986 -11.740   5.501  1.00  0.00    -0.206 F 
HETATM    4  C   UNL     1      44.696 -11.569   6.033  1.00  0.00     0.067 A 
HETATM    5  C   UNL     1      43.678 -11.127   6.895  1.00  0.00     0.074 A 
HETATM    6  C   UNL     1      42.329 -11.287   6.433  1.00  0.00     0.102 C 
HETATM    7  N   UNL     1      41.242 -11.395   6.040  1.00  0.00    -0.191 NA
HETATM    8  C   UNL     1      44.019 -10.457   8.090  1.00  0.00     0.057 A 
HETATM    9  C   UNL     1      45.378 -10.205   8.361  1.00  0.00     0.034 A 
ENDROOT
BRANCH   8  10
HETATM   10  N   UNL     1      43.107  -9.937   9.044  1.00  0.00    -0.308 N 
HETATM   11  C   UNL     1      42.983 -10.306  10.359  1.00  0.00     0.321 C 
HETATM   12  N   UNL     1      41.833  -9.796  10.914  1.00  0.00    -0.336 N 
HETATM   13  O   UNL     1      43.759 -10.992  11.011  1.00  0.00    -0.247 OA
HETATM   14  H   UNL     1      41.121  -9.509  10.253  1.00  0.00     0.164 HD
HETATM   15  H   UNL     1      42.743  -9.014   8.845  1.00  0.00     0.170 HD
BRANCH  12  16
HETATM   16  C   UNL     1      41.402 -10.034  12.294  1.00  0.00     0.118 C 
HETATM   17  C   UNL     1      41.776  -8.957  13.331  1.00  0.00     0.210 C 
HETATM   18  N   UNL     1      40.625  -7.997  13.251  1.00  0.00    -0.065 N 
HETATM   19  C   UNL     1      43.079  -8.190  13.167  1.00  0.00     0.035 C 
HETATM   20  H   UNL     1      40.692  -7.517  12.322  1.00  0.00     0.280 HD
HETATM   21  C   UNL     1      40.632  -6.954  14.316  1.00  0.00     0.235 C 
HETATM   22  C   UNL     1      39.405  -8.862  13.156  1.00  0.00     0.237 C 
HETATM   23  C   UNL     1      41.943  -6.180  14.242  1.00  0.00     0.028 C 
HETATM   24  C   UNL     1      43.176  -7.088  14.228  1.00  0.00     0.004 C 
HETATM   25  C   UNL     1      39.871 -10.123  12.422  1.00  0.00     0.055 C 
ENDBRANCH  12  16
ENDBRANCH   8  10
TORSDOF 2
ENDMDL
