MODEL 1
REMARK VINA RESULT:      -9.3      0.000      0.000
REMARK  8 active torsions:
REMARK  status: ('A' for Active; 'I' for Inactive)
REMARK    1  A    between atoms: O_2  and  C_3 
REMARK    2  A    between atoms: C_4  and  O_5 
REMARK    3  A    between atoms: C_8  and  C_9 
REMARK    4  A    between atoms: C_9  and  C_10 
REMARK    5  A    between atoms: C_10  and  C_11 
REMARK    6  A    between atoms: C_13  and  N_14 
REMARK       I    between atoms: N_14  and  C_15 
REMARK    7  A    between atoms: C_15  and  C_16 
REMARK    8  A    between atoms: C_20  and  C_21 
ROOT
HETATM    1  C   UNL     1      44.851 -10.625   8.781  1.00  0.00     0.140 A 
HETATM    2  N   UNL     1      44.166 -11.610   8.239  1.00  0.00    -0.046 NA
HETATM    3  C   UNL     1      44.800 -11.831   7.043  1.00  0.00     0.747 A 
HETATM    4  N   UNL     1      45.855 -11.046   6.835  1.00  0.00     0.020 NA
HETATM    5  N   UNL     1      45.873 -10.293   7.938  1.00  0.00    -0.248 N 
HETATM    6  H   UNL     1      46.583  -9.577   8.039  1.00  0.00     0.191 HD
ENDROOT
BRANCH   3   7
HETATM    7  N   UNL     1      44.290 -12.773   6.209  1.00  0.00    -0.149 N 
HETATM    8  C   UNL     1      43.027 -12.768   5.674  1.00  0.00     0.290 C 
HETATM    9  O   UNL     1      42.167 -11.903   5.793  1.00  0.00    -0.265 OA
HETATM   10  H   UNL     1      44.870 -13.582   6.033  1.00  0.00     0.188 HD
BRANCH   8  11
HETATM   11  C   UNL     1      42.759 -14.003   4.913  1.00  0.00     0.147 A 
HETATM   12  N   UNL     1      41.830 -14.064   3.938  1.00  0.00    -0.169 NA
HETATM   13  N   UNL     1      41.911 -15.334   3.498  1.00  0.00    -0.277 N 
HETATM   14  H   UNL     1      41.269 -15.626   2.769  1.00  0.00     0.189 HD
HETATM   15  C   UNL     1      42.882 -16.090   4.103  1.00  0.00     0.063 A 
HETATM   16  C   UNL     1      43.423 -15.248   5.055  1.00  0.00     0.071 A 
BRANCH  15  17
HETATM   17  C   UNL     1      43.193 -17.476   3.748  1.00  0.00    -0.008 A 
HETATM   18  C   UNL     1      42.890 -17.994   2.480  1.00  0.00     0.014 A 
HETATM   19  C   UNL     1      43.214 -19.314   2.149  1.00  0.00     0.001 A 
HETATM   20  C   UNL     1      43.847 -20.134   3.080  1.00  0.00     0.000 A 
HETATM   21  C   UNL     1      44.158 -19.634   4.341  1.00  0.00     0.001 A 
HETATM   22  C   UNL     1      43.833 -18.316   4.672  1.00  0.00     0.014 A 
ENDBRANCH  15  17
ENDBRANCH   8  11
ENDBRANCH   3   7
BRANCH   1  23
HETATM   23  C   UNL     1      44.599  -9.893  10.049  1.00  0.00     0.085 C 
BRANCH  23  24
HETATM   24  C   UNL     1      43.279  -9.121  10.036  1.00  0.00     0.046 C 
BRANCH  24  25
HETATM   25  C   UNL     1      42.773  -8.918  11.446  1.00  0.00    -0.055 A 
HETATM   26  C   UNL     1      41.654  -9.625  11.910  1.00  0.00     0.046 A 
HETATM   27  C   UNL     1      41.224  -9.496  13.236  1.00  0.00     0.102 A 
HETATM   28  C   UNL     1      41.934  -8.658  14.118  1.00  0.00     0.101 A 
HETATM   29  C   UNL     1      43.035  -7.935  13.648  1.00  0.00     0.040 A 
HETATM   30  C   UNL     1      43.454  -8.067  12.323  1.00  0.00     0.010 A 
BRANCH  27  31
HETATM   31  O   UNL     1      40.150 -10.163  13.773  1.00  0.00    -0.353 OA
HETATM   32  C   UNL     1      39.315 -10.891  12.886  1.00  0.00     0.210 C 
ENDBRANCH  27  31
BRANCH  28  33
HETATM   33  O   UNL     1      41.465  -8.586  15.406  1.00  0.00    -0.353 OA
HETATM   34  C   UNL     1      40.935  -7.334  15.821  1.00  0.00     0.210 C 
ENDBRANCH  28  33
ENDBRANCH  24  25
ENDBRANCH  23  24
ENDBRANCH   1  23
TORSDOF 8
ENDMDL
MODEL 2
REMARK VINA RESULT:      -9.2      1.557      1.963
REMARK  8 active torsions:
REMARK  status: ('A' for Active; 'I' for Inactive)
REMARK    1  A    between atoms: O_2  and  C_3 
REMARK    2  A    between atoms: C_4  and  O_5 
REMARK    3  A    between atoms: C_8  and  C_9 
REMARK    4  A    between atoms: C_9  and  C_10 
REMARK    5  A    between atoms: C_10  and  C_11 
REMARK    6  A    between atoms: C_13  and  N_14 
REMARK       I    between atoms: N_14  and  C_15 
REMARK    7  A    between atoms: C_15  and  C_16 
REMARK    8  A    between atoms: C_20  and  C_21 
ROOT
HETATM    1  C   UNL     1      44.457 -10.016   8.404  1.00  0.00     0.140 A 
HETATM    2  N   UNL     1      44.817 -11.262   8.177  1.00  0.00    -0.046 NA
HETATM    3  C   UNL     1      44.015 -11.650   7.134  1.00  0.00     0.747 A 
HETATM    4  N   UNL     1      43.198 -10.696   6.693  1.00  0.00     0.020 NA
HETATM    5  N   UNL     1      43.489  -9.675   7.503  1.00  0.00    -0.248 N 
HETATM    6  H   UNL     1      42.987  -8.800   7.399  1.00  0.00     0.191 HD
ENDROOT
BRANCH   3   7
HETATM    7  N   UNL     1      44.111 -12.930   6.692  1.00  0.00    -0.149 N 
HETATM    8  C   UNL     1      43.070 -13.703   6.245  1.00  0.00     0.290 C 
HETATM    9  O   UNL     1      41.898 -13.371   6.105  1.00  0.00    -0.265 OA
HETATM   10  H   UNL     1      45.019 -13.369   6.771  1.00  0.00     0.188 HD
BRANCH   8  11
HETATM   11  C   UNL     1      43.506 -15.083   5.958  1.00  0.00     0.147 A 
HETATM   12  N   UNL     1      44.264 -15.795   6.816  1.00  0.00    -0.169 NA
HETATM   13  N   UNL     1      44.421 -16.980   6.196  1.00  0.00    -0.277 N 
HETATM   14  H   UNL     1      44.996 -17.681   6.650  1.00  0.00     0.189 HD
HETATM   15  C   UNL     1      43.760 -17.093   5.000  1.00  0.00     0.063 A 
HETATM   16  C   UNL     1      43.186 -15.851   4.811  1.00  0.00     0.071 A 
BRANCH  15  17
HETATM   17  C   UNL     1      43.737 -18.306   4.179  1.00  0.00    -0.008 A 
HETATM   18  C   UNL     1      44.078 -19.558   4.711  1.00  0.00     0.014 A 
HETATM   19  C   UNL     1      44.029 -20.710   3.919  1.00  0.00     0.001 A 
HETATM   20  C   UNL     1      43.637 -20.627   2.586  1.00  0.00     0.000 A 
HETATM   21  C   UNL     1      43.292 -19.393   2.043  1.00  0.00     0.001 A 
HETATM   22  C   UNL     1      43.342 -18.242   2.834  1.00  0.00     0.014 A 
ENDBRANCH  15  17
ENDBRANCH   8  11
ENDBRANCH   3   7
BRANCH   1  23
HETATM   23  C   UNL     1      44.916  -9.085   9.466  1.00  0.00     0.085 C 
BRANCH  23  24
HETATM   24  C   UNL     1      44.788  -9.678  10.871  1.00  0.00     0.046 C 
BRANCH  24  25
HETATM   25  C   UNL     1      43.499  -9.226  11.518  1.00  0.00    -0.055 A 
HETATM   26  C   UNL     1      42.278  -9.820  11.163  1.00  0.00     0.046 A 
HETATM   27  C   UNL     1      41.090  -9.456  11.810  1.00  0.00     0.102 A 
HETATM   28  C   UNL     1      41.126  -8.495  12.839  1.00  0.00     0.101 A 
HETATM   29  C   UNL     1      42.340  -7.886  13.175  1.00  0.00     0.040 A 
HETATM   30  C   UNL     1      43.518  -8.253  12.521  1.00  0.00     0.010 A 
BRANCH  27  31
HETATM   31  O   UNL     1      39.859  -9.999  11.535  1.00  0.00    -0.353 OA
HETATM   32  C   UNL     1      39.348  -9.841  10.220  1.00  0.00     0.210 C 
ENDBRANCH  27  31
BRANCH  28  33
HETATM   33  O   UNL     1      39.928  -8.193  13.438  1.00  0.00    -0.353 OA
HETATM   34  C   UNL     1      39.866  -6.968  14.154  1.00  0.00     0.210 C 
ENDBRANCH  28  33
ENDBRANCH  24  25
ENDBRANCH  23  24
ENDBRANCH   1  23
TORSDOF 8
ENDMDL
MODEL 3
REMARK VINA RESULT:      -9.1      2.721     11.190
REMARK  8 active torsions:
REMARK  status: ('A' for Active; 'I' for Inactive)
REMARK    1  A    between atoms: O_2  and  C_3 
REMARK    2  A    between atoms: C_4  and  O_5 
REMARK    3  A    between atoms: C_8  and  C_9 
REMARK    4  A    between atoms: C_9  and  C_10 
REMARK    5  A    between atoms: C_10  and  C_11 
REMARK    6  A    between atoms: C_13  and  N_14 
REMARK       I    between atoms: N_14  and  C_15 
REMARK    7  A    between atoms: C_15  and  C_16 
REMARK    8  A    between atoms: C_20  and  C_21 
ROOT
HETATM    1  C   UNL     1      42.556 -12.889   4.615  1.00  0.00     0.140 A 
HETATM    2  N   UNL     1      42.327 -12.311   5.776  1.00  0.00    -0.046 NA
HETATM    3  C   UNL     1      43.211 -11.262   5.800  1.00  0.00     0.747 A 
HETATM    4  N   UNL     1      43.954 -11.153   4.700  1.00  0.00     0.020 NA
HETATM    5  N   UNL     1      43.529 -12.185   3.965  1.00  0.00    -0.248 N 
HETATM    6  H   UNL     1      43.950 -12.356   3.059  1.00  0.00     0.191 HD
ENDROOT
BRANCH   3   7
HETATM    7  N   UNL     1      43.258 -10.486   6.913  1.00  0.00    -0.149 N 
HETATM    8  C   UNL     1      44.055 -10.704   8.007  1.00  0.00     0.290 C 
HETATM    9  O   UNL     1      44.898 -11.581   8.156  1.00  0.00    -0.265 OA
HETATM   10  H   UNL     1      42.592  -9.727   6.962  1.00  0.00     0.188 HD
BRANCH   8  11
HETATM   11  C   UNL     1      43.765  -9.742   9.087  1.00  0.00     0.147 A 
HETATM   12  N   UNL     1      43.769  -8.408   8.887  1.00  0.00    -0.169 NA
HETATM   13  N   UNL     1      43.448  -7.904  10.094  1.00  0.00    -0.277 N 
HETATM   14  H   UNL     1      43.421  -6.895  10.195  1.00  0.00     0.189 HD
HETATM   15  C   UNL     1      43.184  -8.844  11.056  1.00  0.00     0.063 A 
HETATM   16  C   UNL     1      43.421 -10.050  10.427  1.00  0.00     0.071 A 
BRANCH  15  17
HETATM   17  C   UNL     1      42.758  -8.531  12.423  1.00  0.00    -0.008 A 
HETATM   18  C   UNL     1      41.722  -9.241  13.048  1.00  0.00     0.014 A 
HETATM   19  C   UNL     1      41.342  -8.944  14.361  1.00  0.00     0.001 A 
HETATM   20  C   UNL     1      41.994  -7.937  15.068  1.00  0.00     0.000 A 
HETATM   21  C   UNL     1      43.027  -7.226  14.464  1.00  0.00     0.001 A 
HETATM   22  C   UNL     1      43.404  -7.521  13.151  1.00  0.00     0.014 A 
ENDBRANCH  15  17
ENDBRANCH   8  11
ENDBRANCH   3   7
BRANCH   1  23
HETATM   23  C   UNL     1      41.960 -14.127   4.051  1.00  0.00     0.085 C 
BRANCH  23  24
HETATM   24  C   UNL     1      42.879 -14.824   3.046  1.00  0.00     0.046 C 
BRANCH  24  25
HETATM   25  C   UNL     1      43.298 -16.180   3.568  1.00  0.00    -0.055 A 
HETATM   26  C   UNL     1      43.464 -17.261   2.690  1.00  0.00     0.046 A 
HETATM   27  C   UNL     1      43.921 -18.500   3.157  1.00  0.00     0.102 A 
HETATM   28  C   UNL     1      44.232 -18.655   4.522  1.00  0.00     0.101 A 
HETATM   29  C   UNL     1      44.044 -17.583   5.401  1.00  0.00     0.040 A 
HETATM   30  C   UNL     1      43.584 -16.354   4.926  1.00  0.00     0.010 A 
BRANCH  27  31
HETATM   31  O   UNL     1      44.125 -19.602   2.363  1.00  0.00    -0.353 OA
HETATM   32  C   UNL     1      42.980 -20.275   1.864  1.00  0.00     0.210 C 
ENDBRANCH  27  31
BRANCH  28  33
HETATM   33  O   UNL     1      44.686 -19.892   4.910  1.00  0.00    -0.353 OA
HETATM   34  C   UNL     1      43.773 -20.705   5.634  1.00  0.00     0.210 C 
ENDBRANCH  28  33
ENDBRANCH  24  25
ENDBRANCH  23  24
ENDBRANCH   1  23
TORSDOF 8
ENDMDL
MODEL 4
REMARK VINA RESULT:      -9.1      2.887     10.693
REMARK  8 active torsions:
REMARK  status: ('A' for Active; 'I' for Inactive)
REMARK    1  A    between atoms: O_2  and  C_3 
REMARK    2  A    between atoms: C_4  and  O_5 
REMARK    3  A    between atoms: C_8  and  C_9 
REMARK    4  A    between atoms: C_9  and  C_10 
REMARK    5  A    between atoms: C_10  and  C_11 
REMARK    6  A    between atoms: C_13  and  N_14 
REMARK       I    between atoms: N_14  and  C_15 
REMARK    7  A    between atoms: C_15  and  C_16 
REMARK    8  A    between atoms: C_20  and  C_21 
ROOT
HETATM    1  C   UNL     1      42.409 -12.913   3.931  1.00  0.00     0.140 A 
HETATM    2  N   UNL     1      42.467 -12.697   5.229  1.00  0.00    -0.046 NA
HETATM    3  C   UNL     1      43.234 -11.565   5.338  1.00  0.00     0.747 A 
HETATM    4  N   UNL     1      43.630 -11.062   4.170  1.00  0.00     0.020 NA
HETATM    5  N   UNL     1      43.102 -11.924   3.296  1.00  0.00    -0.248 N 
HETATM    6  H   UNL     1      43.266 -11.788   2.305  1.00  0.00     0.191 HD
ENDROOT
BRANCH   3   7
HETATM    7  N   UNL     1      43.527 -11.104   6.581  1.00  0.00    -0.149 N 
HETATM    8  C   UNL     1      44.762 -11.135   7.176  1.00  0.00     0.290 C 
HETATM    9  O   UNL     1      45.819 -11.517   6.687  1.00  0.00    -0.265 OA
HETATM   10  H   UNL     1      42.747 -10.779   7.137  1.00  0.00     0.188 HD
BRANCH   8  11
HETATM   11  C   UNL     1      44.700 -10.668   8.574  1.00  0.00     0.147 A 
HETATM   12  N   UNL     1      45.806 -10.450   9.313  1.00  0.00    -0.169 NA
HETATM   13  N   UNL     1      45.322 -10.027  10.496  1.00  0.00    -0.277 N 
HETATM   14  H   UNL     1      45.985  -9.828  11.237  1.00  0.00     0.189 HD
HETATM   15  C   UNL     1      43.956  -9.910  10.548  1.00  0.00     0.063 A 
HETATM   16  C   UNL     1      43.530 -10.358   9.313  1.00  0.00     0.071 A 
BRANCH  15  17
HETATM   17  C   UNL     1      43.212  -9.413  11.708  1.00  0.00    -0.008 A 
HETATM   18  C   UNL     1      42.107 -10.108  12.222  1.00  0.00     0.014 A 
HETATM   19  C   UNL     1      41.422  -9.631  13.345  1.00  0.00     0.001 A 
HETATM   20  C   UNL     1      41.832  -8.456  13.969  1.00  0.00     0.000 A 
HETATM   21  C   UNL     1      42.928  -7.757  13.473  1.00  0.00     0.001 A 
HETATM   22  C   UNL     1      43.612  -8.232  12.351  1.00  0.00     0.014 A 
ENDBRANCH  15  17
ENDBRANCH   8  11
ENDBRANCH   3   7
BRANCH   1  23
HETATM   23  C   UNL     1      41.782 -14.041   3.196  1.00  0.00     0.085 C 
BRANCH  23  24
HETATM   24  C   UNL     1      42.756 -14.754   2.257  1.00  0.00     0.046 C 
BRANCH  24  25
HETATM   25  C   UNL     1      43.179 -16.081   2.844  1.00  0.00    -0.055 A 
HETATM   26  C   UNL     1      43.480 -16.192   4.209  1.00  0.00     0.046 A 
HETATM   27  C   UNL     1      43.803 -17.433   4.773  1.00  0.00     0.102 A 
HETATM   28  C   UNL     1      43.809 -18.584   3.961  1.00  0.00     0.101 A 
HETATM   29  C   UNL     1      43.533 -18.468   2.595  1.00  0.00     0.040 A 
HETATM   30  C   UNL     1      43.216 -17.226   2.042  1.00  0.00     0.010 A 
BRANCH  27  31
HETATM   31  O   UNL     1      44.094 -17.631   6.101  1.00  0.00    -0.353 OA
HETATM   32  C   UNL     1      43.236 -17.032   7.060  1.00  0.00     0.210 C 
ENDBRANCH  27  31
BRANCH  28  33
HETATM   33  O   UNL     1      44.123 -19.768   4.580  1.00  0.00    -0.353 OA
HETATM   34  C   UNL     1      43.892 -20.956   3.835  1.00  0.00     0.210 C 
ENDBRANCH  28  33
ENDBRANCH  24  25
ENDBRANCH  23  24
ENDBRANCH   1  23
TORSDOF 8
ENDMDL
MODEL 5
REMARK VINA RESULT:      -8.7      1.610      2.161
REMARK  8 active torsions:
REMARK  status: ('A' for Active; 'I' for Inactive)
REMARK    1  A    between atoms: O_2  and  C_3 
REMARK    2  A    between atoms: C_4  and  O_5 
REMARK    3  A    between atoms: C_8  and  C_9 
REMARK    4  A    between atoms: C_9  and  C_10 
REMARK    5  A    between atoms: C_10  and  C_11 
REMARK    6  A    between atoms: C_13  and  N_14 
REMARK       I    between atoms: N_14  and  C_15 
REMARK    7  A    between atoms: C_15  and  C_16 
REMARK    8  A    between atoms: C_20  and  C_21 
ROOT
HETATM    1  C   UNL     1      44.234 -10.843   7.853  1.00  0.00     0.140 A 
HETATM    2  N   UNL     1      44.591 -11.835   7.063  1.00  0.00    -0.046 NA
HETATM    3  C   UNL     1      43.458 -12.096   6.334  1.00  0.00     0.747 A 
HETATM    4  N   UNL     1      42.431 -11.298   6.621  1.00  0.00     0.020 NA
HETATM    5  N   UNL     1      42.937 -10.516   7.579  1.00  0.00    -0.248 N 
HETATM    6  H   UNL     1      42.349  -9.808   8.004  1.00  0.00     0.191 HD
ENDROOT
BRANCH   3   7
HETATM    7  N   UNL     1      43.487 -13.123   5.447  1.00  0.00    -0.149 N 
HETATM    8  C   UNL     1      43.038 -13.075   4.152  1.00  0.00     0.290 C 
HETATM    9  O   UNL     1      42.596 -12.104   3.549  1.00  0.00    -0.265 OA
HETATM   10  H   UNL     1      43.799 -14.017   5.801  1.00  0.00     0.188 HD
BRANCH   8  11
HETATM   11  C   UNL     1      43.103 -14.401   3.509  1.00  0.00     0.147 A 
HETATM   12  N   UNL     1      43.107 -14.555   2.169  1.00  0.00    -0.169 NA
HETATM   13  N   UNL     1      43.190 -15.888   2.001  1.00  0.00    -0.277 N 
HETATM   14  H   UNL     1      43.176 -16.249   1.053  1.00  0.00     0.189 HD
HETATM   15  C   UNL     1      43.291 -16.607   3.164  1.00  0.00     0.063 A 
HETATM   16  C   UNL     1      43.201 -15.656   4.161  1.00  0.00     0.071 A 
BRANCH  15  17
HETATM   17  C   UNL     1      43.452 -18.063   3.225  1.00  0.00    -0.008 A 
HETATM   18  C   UNL     1      43.110 -18.884   2.141  1.00  0.00     0.014 A 
HETATM   19  C   UNL     1      43.291 -20.270   2.208  1.00  0.00     0.001 A 
HETATM   20  C   UNL     1      43.817 -20.852   3.358  1.00  0.00     0.000 A 
HETATM   21  C   UNL     1      44.164 -20.051   4.442  1.00  0.00     0.001 A 
HETATM   22  C   UNL     1      43.982 -18.667   4.375  1.00  0.00     0.014 A 
ENDBRANCH  15  17
ENDBRANCH   8  11
ENDBRANCH   3   7
BRANCH   1  23
HETATM   23  C   UNL     1      45.012 -10.175   8.928  1.00  0.00     0.085 C 
BRANCH  23  24
HETATM   24  C   UNL     1      44.566  -8.733   9.175  1.00  0.00     0.046 C 
BRANCH  24  25
HETATM   25  C   UNL     1      43.705  -8.653  10.415  1.00  0.00    -0.055 A 
HETATM   26  C   UNL     1      42.851  -7.560  10.620  1.00  0.00     0.046 A 
HETATM   27  C   UNL     1      41.998  -7.514  11.730  1.00  0.00     0.102 A 
HETATM   28  C   UNL     1      41.988  -8.587  12.641  1.00  0.00     0.101 A 
HETATM   29  C   UNL     1      42.857  -9.667  12.450  1.00  0.00     0.040 A 
HETATM   30  C   UNL     1      43.706  -9.700  11.342  1.00  0.00     0.010 A 
BRANCH  27  31
HETATM   31  O   UNL     1      41.121  -6.490  11.995  1.00  0.00    -0.353 OA
HETATM   32  C   UNL     1      41.620  -5.163  11.931  1.00  0.00     0.210 C 
ENDBRANCH  27  31
BRANCH  28  33
HETATM   33  O   UNL     1      41.120  -8.484  13.701  1.00  0.00    -0.353 OA
HETATM   34  C   UNL     1      41.703  -8.355  14.990  1.00  0.00     0.210 C 
ENDBRANCH  28  33
ENDBRANCH  24  25
ENDBRANCH  23  24
ENDBRANCH   1  23
TORSDOF 8
ENDMDL
MODEL 6
REMARK VINA RESULT:      -8.7      1.823      2.406
REMARK  8 active torsions:
REMARK  status: ('A' for Active; 'I' for Inactive)
REMARK    1  A    between atoms: O_2  and  C_3 
REMARK    2  A    between atoms: C_4  and  O_5 
REMARK    3  A    between atoms: C_8  and  C_9 
REMARK    4  A    between atoms: C_9  and  C_10 
REMARK    5  A    between atoms: C_10  and  C_11 
REMARK    6  A    between atoms: C_13  and  N_14 
REMARK       I    between atoms: N_14  and  C_15 
REMARK    7  A    between atoms: C_15  and  C_16 
REMARK    8  A    between atoms: C_20  and  C_21 
ROOT
HETATM    1  C   UNL     1      44.864 -10.094   8.155  1.00  0.00     0.140 A 
HETATM    2  N   UNL     1      44.409 -11.330   8.201  1.00  0.00    -0.046 NA
HETATM    3  C   UNL     1      44.967 -11.925   7.098  1.00  0.00     0.747 A 
HETATM    4  N   UNL     1      45.760 -11.122   6.391  1.00  0.00     0.020 NA
HETATM    5  N   UNL     1      45.683  -9.975   7.070  1.00  0.00    -0.248 N 
HETATM    6  H   UNL     1      46.191  -9.164   6.733  1.00  0.00     0.191 HD
ENDROOT
BRANCH   3   7
HETATM    7  N   UNL     1      44.643 -13.216   6.832  1.00  0.00    -0.149 N 
HETATM    8  C   UNL     1      43.400 -13.672   6.475  1.00  0.00     0.290 C 
HETATM    9  O   UNL     1      42.390 -13.009   6.272  1.00  0.00    -0.265 OA
HETATM   10  H   UNL     1      45.368 -13.904   6.985  1.00  0.00     0.188 HD
BRANCH   8  11
HETATM   11  C   UNL     1      43.371 -15.144   6.382  1.00  0.00     0.147 A 
HETATM   12  N   UNL     1      42.931 -15.924   7.391  1.00  0.00    -0.169 NA
HETATM   13  N   UNL     1      43.053 -17.174   6.905  1.00  0.00    -0.277 N 
HETATM   14  H   UNL     1      42.805 -17.946   7.513  1.00  0.00     0.189 HD
HETATM   15  C   UNL     1      43.504 -17.245   5.611  1.00  0.00     0.063 A 
HETATM   16  C   UNL     1      43.751 -15.931   5.265  1.00  0.00     0.071 A 
BRANCH  15  17
HETATM   17  C   UNL     1      43.658 -18.491   4.857  1.00  0.00    -0.008 A 
HETATM   18  C   UNL     1      43.794 -19.728   5.503  1.00  0.00     0.014 A 
HETATM   19  C   UNL     1      43.918 -20.911   4.767  1.00  0.00     0.001 A 
HETATM   20  C   UNL     1      43.906 -20.874   3.375  1.00  0.00     0.000 A 
HETATM   21  C   UNL     1      43.768 -19.655   2.718  1.00  0.00     0.001 A 
HETATM   22  C   UNL     1      43.646 -18.473   3.454  1.00  0.00     0.014 A 
ENDBRANCH  15  17
ENDBRANCH   8  11
ENDBRANCH   3   7
BRANCH   1  23
HETATM   23  C   UNL     1      44.547  -8.945   9.042  1.00  0.00     0.085 C 
BRANCH  23  24
HETATM   24  C   UNL     1      44.349  -9.359  10.501  1.00  0.00     0.046 C 
BRANCH  24  25
HETATM   25  C   UNL     1      43.525  -8.325  11.234  1.00  0.00    -0.055 A 
HETATM   26  C   UNL     1      43.391  -8.380  12.629  1.00  0.00     0.046 A 
HETATM   27  C   UNL     1      42.689  -7.385  13.321  1.00  0.00     0.102 A 
HETATM   28  C   UNL     1      42.125  -6.309  12.608  1.00  0.00     0.101 A 
HETATM   29  C   UNL     1      42.239  -6.268  11.214  1.00  0.00     0.040 A 
HETATM   30  C   UNL     1      42.938  -7.267  10.533  1.00  0.00     0.010 A 
BRANCH  27  31
HETATM   31  O   UNL     1      42.524  -7.355  14.685  1.00  0.00    -0.353 OA
HETATM   32  C   UNL     1      41.485  -8.146  15.241  1.00  0.00     0.210 C 
ENDBRANCH  27  31
BRANCH  28  33
HETATM   33  O   UNL     1      41.460  -5.363  13.348  1.00  0.00    -0.353 OA
HETATM   34  C   UNL     1      42.018  -4.057  13.361  1.00  0.00     0.210 C 
ENDBRANCH  28  33
ENDBRANCH  24  25
ENDBRANCH  23  24
ENDBRANCH   1  23
TORSDOF 8
ENDMDL
MODEL 7
REMARK VINA RESULT:      -8.6      3.726     10.590
REMARK  8 active torsions:
REMARK  status: ('A' for Active; 'I' for Inactive)
REMARK    1  A    between atoms: O_2  and  C_3 
REMARK    2  A    between atoms: C_4  and  O_5 
REMARK    3  A    between atoms: C_8  and  C_9 
REMARK    4  A    between atoms: C_9  and  C_10 
REMARK    5  A    between atoms: C_10  and  C_11 
REMARK    6  A    between atoms: C_13  and  N_14 
REMARK       I    between atoms: N_14  and  C_15 
REMARK    7  A    between atoms: C_15  and  C_16 
REMARK    8  A    between atoms: C_20  and  C_21 
ROOT
HETATM    1  C   UNL     1      40.172 -14.547   2.866  1.00  0.00     0.140 A 
HETATM    2  N   UNL     1      40.824 -13.870   3.788  1.00  0.00    -0.046 NA
HETATM    3  C   UNL     1      40.090 -12.720   3.930  1.00  0.00     0.747 A 
HETATM    4  N   UNL     1      39.007 -12.668   3.157  1.00  0.00     0.020 NA
HETATM    5  N   UNL     1      39.074 -13.826   2.494  1.00  0.00    -0.248 N 
HETATM    6  H   UNL     1      38.363 -14.046   1.806  1.00  0.00     0.191 HD
ENDROOT
BRANCH   3   7
HETATM    7  N   UNL     1      40.542 -11.772   4.790  1.00  0.00    -0.149 N 
HETATM    8  C   UNL     1      41.553 -10.881   4.540  1.00  0.00     0.290 C 
HETATM    9  O   UNL     1      42.181 -10.735   3.497  1.00  0.00    -0.265 OA
HETATM   10  H   UNL     1      40.143 -11.778   5.719  1.00  0.00     0.188 HD
BRANCH   8  11
HETATM   11  C   UNL     1      41.871 -10.075   5.734  1.00  0.00     0.147 A 
HETATM   12  N   UNL     1      41.699  -8.738   5.771  1.00  0.00    -0.169 NA
HETATM   13  N   UNL     1      42.083  -8.400   7.016  1.00  0.00    -0.277 N 
HETATM   14  H   UNL     1      42.068  -7.418   7.268  1.00  0.00     0.189 HD
HETATM   15  C   UNL     1      42.449  -9.457   7.809  1.00  0.00     0.063 A 
HETATM   16  C   UNL     1      42.351 -10.556   6.978  1.00  0.00     0.071 A 
BRANCH  15  17
HETATM   17  C   UNL     1      42.846  -9.338   9.215  1.00  0.00    -0.008 A 
HETATM   18  C   UNL     1      44.195  -9.326   9.597  1.00  0.00     0.014 A 
HETATM   19  C   UNL     1      44.556  -9.189  10.942  1.00  0.00     0.001 A 
HETATM   20  C   UNL     1      43.575  -9.060  11.921  1.00  0.00     0.000 A 
HETATM   21  C   UNL     1      42.232  -9.067  11.558  1.00  0.00     0.001 A 
HETATM   22  C   UNL     1      41.871  -9.206  10.215  1.00  0.00     0.014 A 
ENDBRANCH  15  17
ENDBRANCH   8  11
ENDBRANCH   3   7
BRANCH   1  23
HETATM   23  C   UNL     1      40.523 -15.844   2.231  1.00  0.00     0.085 C 
BRANCH  23  24
HETATM   24  C   UNL     1      41.978 -15.901   1.763  1.00  0.00     0.046 C 
BRANCH  24  25
HETATM   25  C   UNL     1      42.750 -16.924   2.566  1.00  0.00    -0.055 A 
HETATM   26  C   UNL     1      43.241 -16.605   3.841  1.00  0.00     0.046 A 
HETATM   27  C   UNL     1      43.893 -17.570   4.619  1.00  0.00     0.102 A 
HETATM   28  C   UNL     1      44.043 -18.878   4.121  1.00  0.00     0.101 A 
HETATM   29  C   UNL     1      43.574 -19.189   2.840  1.00  0.00     0.040 A 
HETATM   30  C   UNL     1      42.929 -18.219   2.070  1.00  0.00     0.010 A 
BRANCH  27  31
HETATM   31  O   UNL     1      44.389 -17.345   5.881  1.00  0.00    -0.353 OA
HETATM   32  C   UNL     1      43.489 -16.860   6.865  1.00  0.00     0.210 C 
ENDBRANCH  27  31
BRANCH  28  33
HETATM   33  O   UNL     1      44.682 -19.777   4.939  1.00  0.00    -0.353 OA
HETATM   34  C   UNL     1      43.963 -20.956   5.272  1.00  0.00     0.210 C 
ENDBRANCH  28  33
ENDBRANCH  24  25
ENDBRANCH  23  24
ENDBRANCH   1  23
TORSDOF 8
ENDMDL
MODEL 8
REMARK VINA RESULT:      -8.2      3.354     10.918
REMARK  8 active torsions:
REMARK  status: ('A' for Active; 'I' for Inactive)
REMARK    1  A    between atoms: O_2  and  C_3 
REMARK    2  A    between atoms: C_4  and  O_5 
REMARK    3  A    between atoms: C_8  and  C_9 
REMARK    4  A    between atoms: C_9  and  C_10 
REMARK    5  A    between atoms: C_10  and  C_11 
REMARK    6  A    between atoms: C_13  and  N_14 
REMARK       I    between atoms: N_14  and  C_15 
REMARK    7  A    between atoms: C_15  and  C_16 
REMARK    8  A    between atoms: C_20  and  C_21 
ROOT
HETATM    1  C   UNL     1      40.571 -13.203   4.340  1.00  0.00     0.140 A 
HETATM    2  N   UNL     1      40.165 -12.954   5.568  1.00  0.00    -0.046 NA
HETATM    3  C   UNL     1      40.598 -11.674   5.802  1.00  0.00     0.747 A 
HETATM    4  N   UNL     1      41.228 -11.116   4.771  1.00  0.00     0.020 NA
HETATM    5  N   UNL     1      41.202 -12.092   3.859  1.00  0.00    -0.248 N 
HETATM    6  H   UNL     1      41.640 -11.941   2.958  1.00  0.00     0.191 HD
ENDROOT
BRANCH   3   7
HETATM    7  N   UNL     1      40.374 -11.134   7.028  1.00  0.00    -0.149 N 
HETATM    8  C   UNL     1      39.534 -10.085   7.299  1.00  0.00     0.290 C 
HETATM    9  O   UNL     1      38.798  -9.494   6.517  1.00  0.00    -0.265 OA
HETATM   10  H   UNL     1      40.935 -11.493   7.789  1.00  0.00     0.188 HD
BRANCH   8  11
HETATM   11  C   UNL     1      39.624  -9.673   8.713  1.00  0.00     0.147 A 
HETATM   12  N   UNL     1      38.543  -9.608   9.517  1.00  0.00    -0.169 NA
HETATM   13  N   UNL     1      39.050  -9.214  10.701  1.00  0.00    -0.277 N 
HETATM   14  H   UNL     1      38.403  -9.065  11.468  1.00  0.00     0.189 HD
HETATM   15  C   UNL     1      40.413  -9.067  10.721  1.00  0.00     0.063 A 
HETATM   16  C   UNL     1      40.802  -9.328   9.422  1.00  0.00     0.071 A 
BRANCH  15  17
HETATM   17  C   UNL     1      41.188  -8.705  11.910  1.00  0.00    -0.008 A 
HETATM   18  C   UNL     1      42.504  -8.230  11.811  1.00  0.00     0.014 A 
HETATM   19  C   UNL     1      43.222  -7.867  12.956  1.00  0.00     0.001 A 
HETATM   20  C   UNL     1      42.635  -7.972  14.214  1.00  0.00     0.000 A 
HETATM   21  C   UNL     1      41.329  -8.439  14.329  1.00  0.00     0.001 A 
HETATM   22  C   UNL     1      40.612  -8.803  13.186  1.00  0.00     0.014 A 
ENDBRANCH  15  17
ENDBRANCH   8  11
ENDBRANCH   3   7
BRANCH   1  23
HETATM   23  C   UNL     1      40.465 -14.459   3.554  1.00  0.00     0.085 C 
BRANCH  23  24
HETATM   24  C   UNL     1      41.641 -14.661   2.596  1.00  0.00     0.046 C 
BRANCH  24  25
HETATM   25  C   UNL     1      42.508 -15.809   3.061  1.00  0.00    -0.055 A 
HETATM   26  C   UNL     1      43.135 -15.765   4.315  1.00  0.00     0.046 A 
HETATM   27  C   UNL     1      43.880 -16.855   4.782  1.00  0.00     0.102 A 
HETATM   28  C   UNL     1      43.988 -18.013   3.988  1.00  0.00     0.101 A 
HETATM   29  C   UNL     1      43.383 -18.047   2.727  1.00  0.00     0.040 A 
HETATM   30  C   UNL     1      42.645 -16.953   2.269  1.00  0.00     0.010 A 
BRANCH  27  31
HETATM   31  O   UNL     1      44.511 -16.900   6.002  1.00  0.00    -0.353 OA
HETATM   32  C   UNL     1      43.700 -17.033   7.158  1.00  0.00     0.210 C 
ENDBRANCH  27  31
BRANCH  28  33
HETATM   33  O   UNL     1      44.724 -19.048   4.510  1.00  0.00    -0.353 OA
HETATM   34  C   UNL     1      44.000 -20.198   4.924  1.00  0.00     0.210 C 
ENDBRANCH  28  33
ENDBRANCH  24  25
ENDBRANCH  23  24
ENDBRANCH   1  23
TORSDOF 8
ENDMDL
MODEL 9
REMARK VINA RESULT:      -8.0      1.872      2.476
REMARK  8 active torsions:
REMARK  status: ('A' for Active; 'I' for Inactive)
REMARK    1  A    between atoms: O_2  and  C_3 
REMARK    2  A    between atoms: C_4  and  O_5 
REMARK    3  A    between atoms: C_8  and  C_9 
REMARK    4  A    between atoms: C_9  and  C_10 
REMARK    5  A    between atoms: C_10  and  C_11 
REMARK    6  A    between atoms: C_13  and  N_14 
REMARK       I    between atoms: N_14  and  C_15 
REMARK    7  A    between atoms: C_15  and  C_16 
REMARK    8  A    between atoms: C_20  and  C_21 
ROOT
HETATM    1  C   UNL     1      42.181  -9.996   6.583  1.00  0.00     0.140 A 
HETATM    2  N   UNL     1      41.909 -10.993   5.766  1.00  0.00    -0.046 NA
HETATM    3  C   UNL     1      42.981 -11.836   5.911  1.00  0.00     0.747 A 
HETATM    4  N   UNL     1      43.886 -11.418   6.795  1.00  0.00     0.020 NA
HETATM    5  N   UNL     1      43.366 -10.259   7.207  1.00  0.00    -0.248 N 
HETATM    6  H   UNL     1      43.871  -9.703   7.888  1.00  0.00     0.191 HD
ENDROOT
BRANCH   3   7
HETATM    7  N   UNL     1      43.025 -12.957   5.147  1.00  0.00    -0.149 N 
HETATM    8  C   UNL     1      43.098 -12.990   3.778  1.00  0.00     0.290 C 
HETATM    9  O   UNL     1      43.197 -12.039   3.011  1.00  0.00    -0.265 OA
HETATM   10  H   UNL     1      42.920 -13.839   5.631  1.00  0.00     0.188 HD
BRANCH   8  11
HETATM   11  C   UNL     1      43.002 -14.370   3.265  1.00  0.00     0.147 A 
HETATM   12  N   UNL     1      42.557 -14.651   2.024  1.00  0.00    -0.169 NA
HETATM   13  N   UNL     1      42.641 -15.992   1.950  1.00  0.00    -0.277 N 
HETATM   14  H   UNL     1      42.322 -16.442   1.099  1.00  0.00     0.189 HD
HETATM   15  C   UNL     1      43.166 -16.596   3.064  1.00  0.00     0.063 A 
HETATM   16  C   UNL     1      43.375 -15.555   3.947  1.00  0.00     0.071 A 
BRANCH  15  17
HETATM   17  C   UNL     1      43.407 -18.036   3.188  1.00  0.00    -0.008 A 
HETATM   18  C   UNL     1      43.934 -18.592   4.363  1.00  0.00     0.014 A 
HETATM   19  C   UNL     1      44.136 -19.972   4.473  1.00  0.00     0.001 A 
HETATM   20  C   UNL     1      43.812 -20.814   3.413  1.00  0.00     0.000 A 
HETATM   21  C   UNL     1      43.285 -20.279   2.242  1.00  0.00     0.001 A 
HETATM   22  C   UNL     1      43.084 -18.900   2.131  1.00  0.00     0.014 A 
ENDBRANCH  15  17
ENDBRANCH   8  11
ENDBRANCH   3   7
BRANCH   1  23
HETATM   23  C   UNL     1      41.427  -8.736   6.807  1.00  0.00     0.085 C 
BRANCH  23  24
HETATM   24  C   UNL     1      40.433  -8.836   7.965  1.00  0.00     0.046 C 
BRANCH  24  25
HETATM   25  C   UNL     1      41.145  -8.655   9.287  1.00  0.00    -0.055 A 
HETATM   26  C   UNL     1      40.876  -9.512  10.364  1.00  0.00     0.046 A 
HETATM   27  C   UNL     1      41.583  -9.395  11.567  1.00  0.00     0.102 A 
HETATM   28  C   UNL     1      42.587  -8.415  11.689  1.00  0.00     0.101 A 
HETATM   29  C   UNL     1      42.838  -7.545  10.623  1.00  0.00     0.040 A 
HETATM   30  C   UNL     1      42.124  -7.667   9.429  1.00  0.00     0.010 A 
BRANCH  27  31
HETATM   31  O   UNL     1      41.393 -10.203  12.662  1.00  0.00    -0.353 OA
HETATM   32  C   UNL     1      40.115 -10.187  13.278  1.00  0.00     0.210 C 
ENDBRANCH  27  31
BRANCH  28  33
HETATM   33  O   UNL     1      43.249  -8.362  12.891  1.00  0.00    -0.353 OA
HETATM   34  C   UNL     1      42.982  -7.236  13.716  1.00  0.00     0.210 C 
ENDBRANCH  28  33
ENDBRANCH  24  25
ENDBRANCH  23  24
ENDBRANCH   1  23
TORSDOF 8
ENDMDL
MODEL 10
REMARK VINA RESULT:      -7.9      7.498     12.092
REMARK  8 active torsions:
REMARK  status: ('A' for Active; 'I' for Inactive)
REMARK    1  A    between atoms: O_2  and  C_3 
REMARK    2  A    between atoms: C_4  and  O_5 
REMARK    3  A    between atoms: C_8  and  C_9 
REMARK    4  A    between atoms: C_9  and  C_10 
REMARK    5  A    between atoms: C_10  and  C_11 
REMARK    6  A    between atoms: C_13  and  N_14 
REMARK       I    between atoms: N_14  and  C_15 
REMARK    7  A    between atoms: C_15  and  C_16 
REMARK    8  A    between atoms: C_20  and  C_21 
ROOT
HETATM    1  C   UNL     1      40.454 -14.589   0.572  1.00  0.00     0.140 A 
HETATM    2  N   UNL     1      40.807 -13.338   0.361  1.00  0.00    -0.046 NA
HETATM    3  C   UNL     1      40.072 -12.971  -0.737  1.00  0.00     0.747 A 
HETATM    4  N   UNL     1      39.266 -13.927  -1.196  1.00  0.00     0.020 NA
HETATM    5  N   UNL     1      39.520 -14.938  -0.361  1.00  0.00    -0.248 N 
HETATM    6  H   UNL     1      39.044 -15.823  -0.494  1.00  0.00     0.191 HD
ENDROOT
BRANCH   3   7
HETATM    7  N   UNL     1      40.253 -11.725  -1.245  1.00  0.00    -0.149 N 
HETATM    8  C   UNL     1      40.848 -11.428  -2.444  1.00  0.00     0.290 C 
HETATM    9  O   UNL     1      41.259 -12.214  -3.290  1.00  0.00    -0.265 OA
HETATM   10  H   UNL     1      39.992 -10.951  -0.648  1.00  0.00     0.188 HD
BRANCH   8  11
HETATM   11  C   UNL     1      40.993  -9.972  -2.629  1.00  0.00     0.147 A 
HETATM   12  N   UNL     1      40.179  -9.260  -3.434  1.00  0.00    -0.169 NA
HETATM   13  N   UNL     1      40.632  -7.998  -3.311  1.00  0.00    -0.277 N 
HETATM   14  H   UNL     1      40.181  -7.276  -3.862  1.00  0.00     0.189 HD
HETATM   15  C   UNL     1      41.669  -7.844  -2.427  1.00  0.00     0.063 A 
HETATM   16  C   UNL     1      41.943  -9.128  -1.999  1.00  0.00     0.071 A 
BRANCH  15  17
HETATM   17  C   UNL     1      42.283  -6.558  -2.088  1.00  0.00    -0.008 A 
HETATM   18  C   UNL     1      43.541  -6.486  -1.472  1.00  0.00     0.014 A 
HETATM   19  C   UNL     1      44.123  -5.249  -1.176  1.00  0.00     0.001 A 
HETATM   20  C   UNL     1      43.456  -4.067  -1.492  1.00  0.00     0.000 A 
HETATM   21  C   UNL     1      42.208  -4.122  -2.106  1.00  0.00     0.001 A 
HETATM   22  C   UNL     1      41.627  -5.358  -2.401  1.00  0.00     0.014 A 
ENDBRANCH  15  17
ENDBRANCH   8  11
ENDBRANCH   3   7
BRANCH   1  23
HETATM   23  C   UNL     1      40.970 -15.552   1.578  1.00  0.00     0.085 C 
BRANCH  23  24
HETATM   24  C   UNL     1      42.394 -15.229   2.034  1.00  0.00     0.046 C 
BRANCH  24  25
HETATM   25  C   UNL     1      43.005 -16.420   2.737  1.00  0.00    -0.055 A 
HETATM   26  C   UNL     1      43.354 -16.344   4.093  1.00  0.00     0.046 A 
HETATM   27  C   UNL     1      43.854 -17.465   4.768  1.00  0.00     0.102 A 
HETATM   28  C   UNL     1      43.993 -18.685   4.079  1.00  0.00     0.101 A 
HETATM   29  C   UNL     1      43.667 -18.754   2.720  1.00  0.00     0.040 A 
HETATM   30  C   UNL     1      43.174 -17.629   2.055  1.00  0.00     0.010 A 
BRANCH  27  31
HETATM   31  O   UNL     1      44.203 -17.481   6.096  1.00  0.00    -0.353 OA
HETATM   32  C   UNL     1      44.719 -16.283   6.656  1.00  0.00     0.210 C 
ENDBRANCH  27  31
BRANCH  28  33
HETATM   33  O   UNL     1      44.477 -19.747   4.802  1.00  0.00    -0.353 OA
HETATM   34  C   UNL     1      43.806 -20.988   4.639  1.00  0.00     0.210 C 
ENDBRANCH  28  33
ENDBRANCH  24  25
ENDBRANCH  23  24
ENDBRANCH   1  23
TORSDOF 8
ENDMDL
