MODEL 1
REMARK VINA RESULT:      -8.4      0.000      0.000
REMARK  5 active torsions:
REMARK  status: ('A' for Active; 'I' for Inactive)
REMARK    1  A    between atoms: C_5  and  O_6 
REMARK    2  A    between atoms: O_6  and  C_7 
REMARK    3  A    between atoms: C_7  and  C_8 
REMARK       I    between atoms: C_8  and  N_9 
REMARK    4  A    between atoms: N_9  and  N_10 
REMARK    5  A    between atoms: C_11  and  C_12 
ROOT
HETATM    1  C   UNL     1      44.452 -11.649   7.416  1.00  0.00     0.261 C 
HETATM    2  N   UNL     1      43.594 -12.737   7.501  1.00  0.00    -0.246 N 
HETATM    3  O   UNL     1      45.434 -11.575   6.679  1.00  0.00    -0.269 OA
HETATM    4  H   UNL     1      42.782 -12.691   8.110  1.00  0.00     0.192 HD
ENDROOT
BRANCH   2   5
HETATM    5  N   UNL     1      43.822 -13.832   6.722  1.00  0.00    -0.184 NA
HETATM    6  C   UNL     1      42.979 -14.807   6.826  1.00  0.00     0.152 C 
BRANCH   6   7
HETATM    7  C   UNL     1      43.185 -15.999   6.029  1.00  0.00     0.011 A 
HETATM    8  C   UNL     1      43.189 -16.115   4.600  1.00  0.00     0.004 A 
HETATM    9  C   UNL     1      43.410 -17.460   4.292  1.00  0.00     0.043 A 
HETATM   10  C   UNL     1      43.010 -15.207   3.535  1.00  0.00     0.014 A 
HETATM   11  C   UNL     1      43.463 -17.941   2.978  1.00  0.00     0.030 A 
HETATM   12  N   UNL     1      43.543 -18.134   5.483  1.00  0.00    -0.364 N 
HETATM   13  C   UNL     1      43.279 -17.020   1.943  1.00  0.00     0.002 A 
HETATM   14  C   UNL     1      43.056 -15.674   2.214  1.00  0.00     0.001 A 
HETATM   15  H   UNL     1      43.709 -19.128   5.567  1.00  0.00     0.165 HD
HETATM   16  C   UNL     1      43.403 -17.269   6.531  1.00  0.00     0.102 A 
ENDBRANCH   6   7
ENDBRANCH   2   5
BRANCH   1  17
HETATM   17  C   UNL     1      44.138 -10.554   8.429  1.00  0.00     0.280 C 
BRANCH  17  18
HETATM   18  O   UNL     1      44.859 -10.741   9.649  1.00  0.00    -0.342 OA
BRANCH  18  19
HETATM   19  C   UNL     1      44.169 -10.216  10.711  1.00  0.00     0.069 A 
HETATM   20  C   UNL     1      44.082  -8.828  10.799  1.00  0.00     0.037 A 
HETATM   21  C   UNL     1      43.401  -8.239  11.868  1.00  0.00     0.009 A 
HETATM   22  C   UNL     1      42.792  -9.036  12.847  1.00  0.00    -0.062 A 
HETATM   23  C   UNL     1      42.050  -8.416  13.993  1.00  0.00     0.048 C 
HETATM   24  C   UNL     1      42.849 -10.429  12.722  1.00  0.00     0.009 A 
HETATM   25  C   UNL     1      43.532 -11.019  11.655  1.00  0.00     0.037 A 
ENDBRANCH  18  19
ENDBRANCH  17  18
ENDBRANCH   1  17
TORSDOF 5
ENDMDL
MODEL 2
REMARK VINA RESULT:      -8.1      6.478      9.336
REMARK  5 active torsions:
REMARK  status: ('A' for Active; 'I' for Inactive)
REMARK    1  A    between atoms: C_5  and  O_6 
REMARK    2  A    between atoms: O_6  and  C_7 
REMARK    3  A    between atoms: C_7  and  C_8 
REMARK       I    between atoms: C_8  and  N_9 
REMARK    4  A    between atoms: N_9  and  N_10 
REMARK    5  A    between atoms: C_11  and  C_12 
ROOT
HETATM    1  C   UNL     1      41.016 -13.182   2.645  1.00  0.00     0.261 C 
HETATM    2  N   UNL     1      42.364 -13.505   2.579  1.00  0.00    -0.246 N 
HETATM    3  O   UNL     1      40.194 -13.711   3.391  1.00  0.00    -0.269 OA
HETATM    4  H   UNL     1      42.978 -12.983   1.960  1.00  0.00     0.192 HD
ENDROOT
BRANCH   2   5
HETATM    5  N   UNL     1      42.859 -14.482   3.391  1.00  0.00    -0.184 NA
HETATM    6  C   UNL     1      42.797 -15.695   2.947  1.00  0.00     0.152 C 
BRANCH   6   7
HETATM    7  C   UNL     1      43.297 -16.772   3.778  1.00  0.00     0.011 A 
HETATM    8  C   UNL     1      43.451 -18.154   3.431  1.00  0.00     0.004 A 
HETATM    9  C   UNL     1      43.952 -18.813   4.557  1.00  0.00     0.043 A 
HETATM   10  C   UNL     1      43.199 -18.916   2.271  1.00  0.00     0.014 A 
HETATM   11  C   UNL     1      44.213 -20.188   4.581  1.00  0.00     0.030 A 
HETATM   12  N   UNL     1      44.104 -17.870   5.547  1.00  0.00    -0.364 N 
HETATM   13  C   UNL     1      43.950 -20.918   3.419  1.00  0.00     0.002 A 
HETATM   14  C   UNL     1      43.451 -20.295   2.280  1.00  0.00     0.001 A 
HETATM   15  H   UNL     1      44.449 -18.061   6.477  1.00  0.00     0.165 HD
HETATM   16  C   UNL     1      43.708 -16.643   5.092  1.00  0.00     0.102 A 
ENDBRANCH   6   7
ENDBRANCH   2   5
BRANCH   1  17
HETATM   17  C   UNL     1      40.591 -12.157   1.600  1.00  0.00     0.280 C 
BRANCH  17  18
HETATM   18  O   UNL     1      41.338 -12.299   0.389  1.00  0.00    -0.342 OA
BRANCH  18  19
HETATM   19  C   UNL     1      40.579 -12.892  -0.587  1.00  0.00     0.069 A 
HETATM   20  C   UNL     1      40.605 -12.323  -1.858  1.00  0.00     0.037 A 
HETATM   21  C   UNL     1      39.840 -12.879  -2.887  1.00  0.00     0.009 A 
HETATM   22  C   UNL     1      39.056 -14.017  -2.652  1.00  0.00    -0.062 A 
HETATM   23  C   UNL     1      38.238 -14.630  -3.751  1.00  0.00     0.048 C 
HETATM   24  C   UNL     1      39.074 -14.606  -1.382  1.00  0.00     0.009 A 
HETATM   25  C   UNL     1      39.836 -14.048  -0.353  1.00  0.00     0.037 A 
ENDBRANCH  18  19
ENDBRANCH  17  18
ENDBRANCH   1  17
TORSDOF 5
ENDMDL
MODEL 3
REMARK VINA RESULT:      -8.1      1.389      1.909
REMARK  5 active torsions:
REMARK  status: ('A' for Active; 'I' for Inactive)
REMARK    1  A    between atoms: C_5  and  O_6 
REMARK    2  A    between atoms: O_6  and  C_7 
REMARK    3  A    between atoms: C_7  and  C_8 
REMARK       I    between atoms: C_8  and  N_9 
REMARK    4  A    between atoms: N_9  and  N_10 
REMARK    5  A    between atoms: C_11  and  C_12 
ROOT
HETATM    1  C   UNL     1      44.770 -11.473   6.632  1.00  0.00     0.261 C 
HETATM    2  N   UNL     1      43.870 -12.526   6.721  1.00  0.00    -0.246 N 
HETATM    3  O   UNL     1      45.356 -11.125   5.608  1.00  0.00    -0.269 OA
HETATM    4  H   UNL     1      43.401 -12.714   7.603  1.00  0.00     0.192 HD
ENDROOT
BRANCH   2   5
HETATM    5  N   UNL     1      43.585 -13.259   5.608  1.00  0.00    -0.184 NA
HETATM    6  C   UNL     1      42.898 -14.340   5.783  1.00  0.00     0.152 C 
BRANCH   6   7
HETATM    7  C   UNL     1      42.580 -15.162   4.632  1.00  0.00     0.011 A 
HETATM    8  C   UNL     1      43.132 -16.436   4.278  1.00  0.00     0.004 A 
HETATM    9  C   UNL     1      42.533 -16.833   3.080  1.00  0.00     0.043 A 
HETATM   10  C   UNL     1      44.100 -17.287   4.854  1.00  0.00     0.014 A 
HETATM   11  C   UNL     1      42.849 -18.033   2.432  1.00  0.00     0.030 A 
HETATM   12  N   UNL     1      41.646 -15.845   2.723  1.00  0.00    -0.364 N 
HETATM   13  C   UNL     1      43.812 -18.854   3.023  1.00  0.00     0.002 A 
HETATM   14  C   UNL     1      44.430 -18.490   4.215  1.00  0.00     0.001 A 
HETATM   15  H   UNL     1      41.069 -15.862   1.893  1.00  0.00     0.165 HD
HETATM   16  C   UNL     1      41.670 -14.835   3.643  1.00  0.00     0.102 A 
ENDBRANCH   6   7
ENDBRANCH   2   5
BRANCH   1  17
HETATM   17  C   UNL     1      45.074 -10.825   7.978  1.00  0.00     0.280 C 
BRANCH  17  18
HETATM   18  O   UNL     1      44.329 -11.432   9.036  1.00  0.00    -0.342 OA
BRANCH  18  19
HETATM   19  C   UNL     1      43.966 -10.502   9.975  1.00  0.00     0.069 A 
HETATM   20  C   UNL     1      43.937  -9.166   9.580  1.00  0.00     0.037 A 
HETATM   21  C   UNL     1      43.587  -8.175  10.501  1.00  0.00     0.009 A 
HETATM   22  C   UNL     1      43.250  -8.516  11.818  1.00  0.00    -0.062 A 
HETATM   23  C   UNL     1      42.862  -7.462  12.813  1.00  0.00     0.048 C 
HETATM   24  C   UNL     1      43.239  -9.866  12.189  1.00  0.00     0.009 A 
HETATM   25  C   UNL     1      43.592 -10.857  11.270  1.00  0.00     0.037 A 
ENDBRANCH  18  19
ENDBRANCH  17  18
ENDBRANCH   1  17
TORSDOF 5
ENDMDL
MODEL 4
REMARK VINA RESULT:      -8.0      2.898      9.564
REMARK  5 active torsions:
REMARK  status: ('A' for Active; 'I' for Inactive)
REMARK    1  A    between atoms: C_5  and  O_6 
REMARK    2  A    between atoms: O_6  and  C_7 
REMARK    3  A    between atoms: C_7  and  C_8 
REMARK       I    between atoms: C_8  and  N_9 
REMARK    4  A    between atoms: N_9  and  N_10 
REMARK    5  A    between atoms: C_11  and  C_12 
ROOT
HETATM    1  C   UNL     1      42.472 -14.185   6.084  1.00  0.00     0.261 C 
HETATM    2  N   UNL     1      43.721 -13.937   6.636  1.00  0.00    -0.246 N 
HETATM    3  O   UNL     1      41.501 -13.433   6.156  1.00  0.00    -0.269 OA
HETATM    4  H   UNL     1      44.477 -14.599   6.489  1.00  0.00     0.192 HD
ENDROOT
BRANCH   2   5
HETATM    5  N   UNL     1      43.932 -12.777   7.320  1.00  0.00    -0.184 NA
HETATM    6  C   UNL     1      44.711 -11.906   6.765  1.00  0.00     0.152 C 
BRANCH   6   7
HETATM    7  C   UNL     1      44.978 -10.662   7.459  1.00  0.00     0.011 A 
HETATM    8  C   UNL     1      44.034  -9.680   7.904  1.00  0.00     0.004 A 
HETATM    9  C   UNL     1      44.759  -8.647   8.504  1.00  0.00     0.043 A 
HETATM   10  C   UNL     1      42.630  -9.560   7.841  1.00  0.00     0.014 A 
HETATM   11  C   UNL     1      44.153  -7.506   9.044  1.00  0.00     0.030 A 
HETATM   12  N   UNL     1      46.089  -8.989   8.435  1.00  0.00    -0.364 N 
HETATM   13  C   UNL     1      42.761  -7.413   8.965  1.00  0.00     0.002 A 
HETATM   14  C   UNL     1      42.008  -8.422   8.374  1.00  0.00     0.001 A 
HETATM   15  H   UNL     1      46.848  -8.425   8.790  1.00  0.00     0.165 HD
HETATM   16  C   UNL     1      46.233 -10.193   7.804  1.00  0.00     0.102 A 
ENDBRANCH   6   7
ENDBRANCH   2   5
BRANCH   1  17
HETATM   17  C   UNL     1      42.356 -15.568   5.454  1.00  0.00     0.280 C 
BRANCH  17  18
HETATM   18  O   UNL     1      43.627 -16.217   5.369  1.00  0.00    -0.342 OA
BRANCH  18  19
HETATM   19  C   UNL     1      43.597 -17.232   4.448  1.00  0.00     0.069 A 
HETATM   20  C   UNL     1      44.149 -18.456   4.820  1.00  0.00     0.037 A 
HETATM   21  C   UNL     1      44.157 -19.521   3.916  1.00  0.00     0.009 A 
HETATM   22  C   UNL     1      43.599 -19.372   2.639  1.00  0.00    -0.062 A 
HETATM   23  C   UNL     1      43.591 -20.511   1.663  1.00  0.00     0.048 C 
HETATM   24  C   UNL     1      43.006 -18.151   2.294  1.00  0.00     0.009 A 
HETATM   25  C   UNL     1      43.001 -17.085   3.197  1.00  0.00     0.037 A 
ENDBRANCH  18  19
ENDBRANCH  17  18
ENDBRANCH   1  17
TORSDOF 5
ENDMDL
MODEL 5
REMARK VINA RESULT:      -7.7      7.248     10.159
REMARK  5 active torsions:
REMARK  status: ('A' for Active; 'I' for Inactive)
REMARK    1  A    between atoms: C_5  and  O_6 
REMARK    2  A    between atoms: O_6  and  C_7 
REMARK    3  A    between atoms: C_7  and  C_8 
REMARK       I    between atoms: C_8  and  N_9 
REMARK    4  A    between atoms: N_9  and  N_10 
REMARK    5  A    between atoms: C_11  and  C_12 
ROOT
HETATM    1  C   UNL     1      41.575 -14.395   2.052  1.00  0.00     0.261 C 
HETATM    2  N   UNL     1      41.519 -14.792   0.723  1.00  0.00    -0.246 N 
HETATM    3  O   UNL     1      40.968 -13.440   2.534  1.00  0.00    -0.269 OA
HETATM    4  H   UNL     1      42.024 -15.621   0.423  1.00  0.00     0.192 HD
ENDROOT
BRANCH   2   5
HETATM    5  N   UNL     1      40.740 -14.095  -0.151  1.00  0.00    -0.184 NA
HETATM    6  C   UNL     1      39.733 -14.723  -0.663  1.00  0.00     0.152 C 
BRANCH   6   7
HETATM    7  C   UNL     1      38.881 -14.030  -1.609  1.00  0.00     0.011 A 
HETATM    8  C   UNL     1      38.223 -12.768  -1.444  1.00  0.00     0.004 A 
HETATM    9  C   UNL     1      37.501 -12.517  -2.613  1.00  0.00     0.043 A 
HETATM   10  C   UNL     1      38.157 -11.818  -0.403  1.00  0.00     0.014 A 
HETATM   11  C   UNL     1      36.722 -11.368  -2.795  1.00  0.00     0.030 A 
HETATM   12  N   UNL     1      37.717 -13.579  -3.460  1.00  0.00    -0.364 N 
HETATM   13  C   UNL     1      36.673 -10.446  -1.747  1.00  0.00     0.002 A 
HETATM   14  C   UNL     1      37.378 -10.664  -0.568  1.00  0.00     0.001 A 
HETATM   15  H   UNL     1      37.316 -13.670  -4.384  1.00  0.00     0.165 HD
HETATM   16  C   UNL     1      38.538 -14.496  -2.866  1.00  0.00     0.102 A 
ENDBRANCH   6   7
ENDBRANCH   2   5
BRANCH   1  17
HETATM   17  C   UNL     1      42.576 -15.195   2.877  1.00  0.00     0.280 C 
BRANCH  17  18
HETATM   18  O   UNL     1      43.225 -16.199   2.092  1.00  0.00    -0.342 OA
BRANCH  18  19
HETATM   19  C   UNL     1      43.467 -17.323   2.839  1.00  0.00     0.069 A 
HETATM   20  C   UNL     1      43.664 -17.157   4.207  1.00  0.00     0.037 A 
HETATM   21  C   UNL     1      43.928 -18.268   5.014  1.00  0.00     0.009 A 
HETATM   22  C   UNL     1      43.982 -19.552   4.456  1.00  0.00    -0.062 A 
HETATM   23  C   UNL     1      44.254 -20.754   5.312  1.00  0.00     0.048 C 
HETATM   24  C   UNL     1      43.737 -19.710   3.087  1.00  0.00     0.009 A 
HETATM   25  C   UNL     1      43.476 -18.600   2.280  1.00  0.00     0.037 A 
ENDBRANCH  18  19
ENDBRANCH  17  18
ENDBRANCH   1  17
TORSDOF 5
ENDMDL
MODEL 6
REMARK VINA RESULT:      -7.7      2.193      2.421
REMARK  5 active torsions:
REMARK  status: ('A' for Active; 'I' for Inactive)
REMARK    1  A    between atoms: C_5  and  O_6 
REMARK    2  A    between atoms: O_6  and  C_7 
REMARK    3  A    between atoms: C_7  and  C_8 
REMARK       I    between atoms: C_8  and  N_9 
REMARK    4  A    between atoms: N_9  and  N_10 
REMARK    5  A    between atoms: C_11  and  C_12 
ROOT
HETATM    1  C   UNL     1      45.387 -11.334   6.533  1.00  0.00     0.261 C 
HETATM    2  N   UNL     1      44.582 -12.289   7.138  1.00  0.00    -0.246 N 
HETATM    3  O   UNL     1      45.537 -11.197   5.320  1.00  0.00    -0.269 OA
HETATM    4  H   UNL     1      44.487 -12.300   8.150  1.00  0.00     0.192 HD
ENDROOT
BRANCH   2   5
HETATM    5  N   UNL     1      43.883 -13.165   6.362  1.00  0.00    -0.184 NA
HETATM    6  C   UNL     1      42.648 -12.871   6.120  1.00  0.00     0.152 C 
BRANCH   6   7
HETATM    7  C   UNL     1      41.858 -13.777   5.310  1.00  0.00     0.011 A 
HETATM    8  C   UNL     1      42.154 -14.276   4.000  1.00  0.00     0.004 A 
HETATM    9  C   UNL     1      41.094 -15.103   3.619  1.00  0.00     0.043 A 
HETATM   10  C   UNL     1      43.216 -14.091   3.090  1.00  0.00     0.014 A 
HETATM   11  C   UNL     1      41.043 -15.754   2.380  1.00  0.00     0.030 A 
HETATM   12  N   UNL     1      40.193 -15.115   4.657  1.00  0.00    -0.364 N 
HETATM   13  C   UNL     1      42.107 -15.550   1.498  1.00  0.00     0.002 A 
HETATM   14  C   UNL     1      43.179 -14.732   1.843  1.00  0.00     0.001 A 
HETATM   15  H   UNL     1      39.324 -15.630   4.660  1.00  0.00     0.165 HD
HETATM   16  C   UNL     1      40.638 -14.318   5.675  1.00  0.00     0.102 A 
ENDBRANCH   6   7
ENDBRANCH   2   5
BRANCH   1  17
HETATM   17  C   UNL     1      46.193 -10.508   7.528  1.00  0.00     0.280 C 
BRANCH  17  18
HETATM   18  O   UNL     1      45.689  -9.174   7.637  1.00  0.00    -0.342 OA
BRANCH  18  19
HETATM   19  C   UNL     1      45.042  -8.993   8.832  1.00  0.00     0.069 A 
HETATM   20  C   UNL     1      44.104  -7.965   8.907  1.00  0.00     0.037 A 
HETATM   21  C   UNL     1      43.424  -7.727  10.105  1.00  0.00     0.009 A 
HETATM   22  C   UNL     1      43.670  -8.526  11.230  1.00  0.00    -0.062 A 
HETATM   23  C   UNL     1      42.939  -8.287  12.519  1.00  0.00     0.048 C 
HETATM   24  C   UNL     1      44.581  -9.584  11.129  1.00  0.00     0.009 A 
HETATM   25  C   UNL     1      45.263  -9.820   9.932  1.00  0.00     0.037 A 
ENDBRANCH  18  19
ENDBRANCH  17  18
ENDBRANCH   1  17
TORSDOF 5
ENDMDL
MODEL 7
REMARK VINA RESULT:      -7.6      6.110      9.107
REMARK  5 active torsions:
REMARK  status: ('A' for Active; 'I' for Inactive)
REMARK    1  A    between atoms: C_5  and  O_6 
REMARK    2  A    between atoms: O_6  and  C_7 
REMARK    3  A    between atoms: C_7  and  C_8 
REMARK       I    between atoms: C_8  and  N_9 
REMARK    4  A    between atoms: N_9  and  N_10 
REMARK    5  A    between atoms: C_11  and  C_12 
ROOT
HETATM    1  C   UNL     1      40.761 -14.997   3.739  1.00  0.00     0.261 C 
HETATM    2  N   UNL     1      40.307 -13.708   3.495  1.00  0.00    -0.246 N 
HETATM    3  O   UNL     1      40.467 -15.991   3.076  1.00  0.00    -0.269 OA
HETATM    4  H   UNL     1      40.638 -12.940   4.072  1.00  0.00     0.192 HD
ENDROOT
BRANCH   2   5
HETATM    5  N   UNL     1      39.467 -13.481   2.446  1.00  0.00    -0.184 NA
HETATM    6  C   UNL     1      39.935 -12.784   1.464  1.00  0.00     0.152 C 
BRANCH   6   7
HETATM    7  C   UNL     1      39.077 -12.503   0.330  1.00  0.00     0.011 A 
HETATM    8  C   UNL     1      38.874 -13.302  -0.842  1.00  0.00     0.004 A 
HETATM    9  C   UNL     1      37.973 -12.619  -1.662  1.00  0.00     0.043 A 
HETATM   10  C   UNL     1      39.383 -14.538  -1.295  1.00  0.00     0.014 A 
HETATM   11  C   UNL     1      37.555 -13.106  -2.906  1.00  0.00     0.030 A 
HETATM   12  N   UNL     1      37.634 -11.455  -1.013  1.00  0.00    -0.364 N 
HETATM   13  C   UNL     1      38.078 -14.330  -3.331  1.00  0.00     0.002 A 
HETATM   14  C   UNL     1      38.978 -15.038  -2.540  1.00  0.00     0.001 A 
HETATM   15  H   UNL     1      36.997 -10.758  -1.374  1.00  0.00     0.165 HD
HETATM   16  C   UNL     1      38.295 -11.372   0.180  1.00  0.00     0.102 A 
ENDBRANCH   6   7
ENDBRANCH   2   5
BRANCH   1  17
HETATM   17  C   UNL     1      41.595 -15.111   5.009  1.00  0.00     0.280 C 
BRANCH  17  18
HETATM   18  O   UNL     1      42.973 -15.352   4.716  1.00  0.00    -0.342 OA
BRANCH  18  19
HETATM   19  C   UNL     1      43.287 -16.675   4.892  1.00  0.00     0.069 A 
HETATM   20  C   UNL     1      43.766 -17.375   3.787  1.00  0.00     0.037 A 
HETATM   21  C   UNL     1      44.089 -18.730   3.907  1.00  0.00     0.009 A 
HETATM   22  C   UNL     1      43.947 -19.387   5.136  1.00  0.00    -0.062 A 
HETATM   23  C   UNL     1      44.300 -20.838   5.280  1.00  0.00     0.048 C 
HETATM   24  C   UNL     1      43.507 -18.660   6.249  1.00  0.00     0.009 A 
HETATM   25  C   UNL     1      43.181 -17.307   6.129  1.00  0.00     0.037 A 
ENDBRANCH  18  19
ENDBRANCH  17  18
ENDBRANCH   1  17
TORSDOF 5
ENDMDL
MODEL 8
REMARK VINA RESULT:      -7.5      2.621      9.756
REMARK  5 active torsions:
REMARK  status: ('A' for Active; 'I' for Inactive)
REMARK    1  A    between atoms: C_5  and  O_6 
REMARK    2  A    between atoms: O_6  and  C_7 
REMARK    3  A    between atoms: C_7  and  C_8 
REMARK       I    between atoms: C_8  and  N_9 
REMARK    4  A    between atoms: N_9  and  N_10 
REMARK    5  A    between atoms: C_11  and  C_12 
ROOT
HETATM    1  C   UNL     1      41.409 -13.779   5.445  1.00  0.00     0.261 C 
HETATM    2  N   UNL     1      42.290 -12.707   5.460  1.00  0.00    -0.246 N 
HETATM    3  O   UNL     1      40.428 -13.903   6.177  1.00  0.00    -0.269 OA
HETATM    4  H   UNL     1      43.051 -12.671   4.787  1.00  0.00     0.192 HD
ENDROOT
BRANCH   2   5
HETATM    5  N   UNL     1      42.089 -11.687   6.341  1.00  0.00    -0.184 NA
HETATM    6  C   UNL     1      43.024 -10.799   6.428  1.00  0.00     0.152 C 
BRANCH   6   7
HETATM    7  C   UNL     1      42.864  -9.701   7.361  1.00  0.00     0.011 A 
HETATM    8  C   UNL     1      43.345  -9.611   8.708  1.00  0.00     0.004 A 
HETATM    9  C   UNL     1      42.934  -8.376   9.216  1.00  0.00     0.043 A 
HETATM   10  C   UNL     1      44.078 -10.470   9.554  1.00  0.00     0.014 A 
HETATM   11  C   UNL     1      43.220  -7.957  10.521  1.00  0.00     0.030 A 
HETATM   12  N   UNL     1      42.239  -7.736   8.217  1.00  0.00    -0.364 N 
HETATM   13  C   UNL     1      43.945  -8.828  11.337  1.00  0.00     0.002 A 
HETATM   14  C   UNL     1      44.369 -10.066  10.865  1.00  0.00     0.001 A 
HETATM   15  H   UNL     1      41.820  -6.821   8.302  1.00  0.00     0.165 HD
HETATM   16  C   UNL     1      42.185  -8.524   7.102  1.00  0.00     0.102 A 
ENDBRANCH   6   7
ENDBRANCH   2   5
BRANCH   1  17
HETATM   17  C   UNL     1      41.829 -14.892   4.491  1.00  0.00     0.280 C 
BRANCH  17  18
HETATM   18  O   UNL     1      43.001 -15.567   4.954  1.00  0.00    -0.342 OA
BRANCH  18  19
HETATM   19  C   UNL     1      43.214 -16.720   4.242  1.00  0.00     0.069 A 
HETATM   20  C   UNL     1      42.517 -16.875   3.046  1.00  0.00     0.037 A 
HETATM   21  C   UNL     1      42.687 -18.036   2.286  1.00  0.00     0.009 A 
HETATM   22  C   UNL     1      43.565 -19.041   2.713  1.00  0.00    -0.062 A 
HETATM   23  C   UNL     1      43.764 -20.288   1.902  1.00  0.00     0.048 C 
HETATM   24  C   UNL     1      44.294 -18.852   3.894  1.00  0.00     0.009 A 
HETATM   25  C   UNL     1      44.122 -17.693   4.655  1.00  0.00     0.037 A 
ENDBRANCH  18  19
ENDBRANCH  17  18
ENDBRANCH   1  17
TORSDOF 5
ENDMDL
MODEL 9
REMARK VINA RESULT:      -7.5      6.690      9.359
REMARK  5 active torsions:
REMARK  status: ('A' for Active; 'I' for Inactive)
REMARK    1  A    between atoms: C_5  and  O_6 
REMARK    2  A    between atoms: O_6  and  C_7 
REMARK    3  A    between atoms: C_7  and  C_8 
REMARK       I    between atoms: C_8  and  N_9 
REMARK    4  A    between atoms: N_9  and  N_10 
REMARK    5  A    between atoms: C_11  and  C_12 
ROOT
HETATM    1  C   UNL     1      40.272 -13.904   2.144  1.00  0.00     0.261 C 
HETATM    2  N   UNL     1      41.555 -13.784   2.659  1.00  0.00    -0.246 N 
HETATM    3  O   UNL     1      39.509 -14.847   2.350  1.00  0.00    -0.269 OA
HETATM    4  H   UNL     1      42.098 -12.946   2.468  1.00  0.00     0.192 HD
ENDROOT
BRANCH   2   5
HETATM    5  N   UNL     1      42.048 -14.767   3.465  1.00  0.00    -0.184 NA
HETATM    6  C   UNL     1      42.784 -15.668   2.901  1.00  0.00     0.152 C 
BRANCH   6   7
HETATM    7  C   UNL     1      43.321 -16.742   3.712  1.00  0.00     0.011 A 
HETATM    8  C   UNL     1      43.433 -18.130   3.375  1.00  0.00     0.004 A 
HETATM    9  C   UNL     1      43.996 -18.783   4.475  1.00  0.00     0.043 A 
HETATM   10  C   UNL     1      43.095 -18.902   2.243  1.00  0.00     0.014 A 
HETATM   11  C   UNL     1      44.238 -20.162   4.500  1.00  0.00     0.030 A 
HETATM   12  N   UNL     1      44.225 -17.830   5.440  1.00  0.00    -0.364 N 
HETATM   13  C   UNL     1      43.890 -20.901   3.367  1.00  0.00     0.002 A 
HETATM   14  C   UNL     1      43.327 -20.285   2.254  1.00  0.00     0.001 A 
HETATM   15  H   UNL     1      44.626 -18.015   6.348  1.00  0.00     0.165 HD
HETATM   16  C   UNL     1      43.818 -16.603   4.995  1.00  0.00     0.102 A 
ENDBRANCH   6   7
ENDBRANCH   2   5
BRANCH   1  17
HETATM   17  C   UNL     1      39.907 -12.789   1.171  1.00  0.00     0.280 C 
BRANCH  17  18
HETATM   18  O   UNL     1      39.721 -13.287  -0.156  1.00  0.00    -0.342 OA
BRANCH  18  19
HETATM   19  C   UNL     1      40.046 -12.334  -1.086  1.00  0.00     0.069 A 
HETATM   20  C   UNL     1      39.847 -11.000  -0.738  1.00  0.00     0.037 A 
HETATM   21  C   UNL     1      40.149  -9.987  -1.653  1.00  0.00     0.009 A 
HETATM   22  C   UNL     1      40.665 -10.304  -2.916  1.00  0.00    -0.062 A 
HETATM   23  C   UNL     1      41.003  -9.226  -3.904  1.00  0.00     0.048 C 
HETATM   24  C   UNL     1      40.903 -11.646  -3.238  1.00  0.00     0.009 A 
HETATM   25  C   UNL     1      40.598 -12.659  -2.324  1.00  0.00     0.037 A 
ENDBRANCH  18  19
ENDBRANCH  17  18
ENDBRANCH   1  17
TORSDOF 5
ENDMDL
MODEL 10
REMARK VINA RESULT:      -7.1      2.457      3.170
REMARK  5 active torsions:
REMARK  status: ('A' for Active; 'I' for Inactive)
REMARK    1  A    between atoms: C_5  and  O_6 
REMARK    2  A    between atoms: O_6  and  C_7 
REMARK    3  A    between atoms: C_7  and  C_8 
REMARK       I    between atoms: C_8  and  N_9 
REMARK    4  A    between atoms: N_9  and  N_10 
REMARK    5  A    between atoms: C_11  and  C_12 
ROOT
HETATM    1  C   UNL     1      43.572 -10.992   6.856  1.00  0.00     0.261 C 
HETATM    2  N   UNL     1      42.198 -11.175   6.805  1.00  0.00    -0.246 N 
HETATM    3  O   UNL     1      44.356 -11.236   5.939  1.00  0.00    -0.269 OA
HETATM    4  H   UNL     1      41.624 -10.905   7.599  1.00  0.00     0.192 HD
ENDROOT
BRANCH   2   5
HETATM    5  N   UNL     1      41.628 -11.662   5.666  1.00  0.00    -0.184 NA
HETATM    6  C   UNL     1      41.107 -12.843   5.734  1.00  0.00     0.152 C 
BRANCH   6   7
HETATM    7  C   UNL     1      40.501 -13.411   4.546  1.00  0.00     0.011 A 
HETATM    8  C   UNL     1      40.919 -14.567   3.810  1.00  0.00     0.004 A 
HETATM    9  C   UNL     1      40.040 -14.717   2.734  1.00  0.00     0.043 A 
HETATM   10  C   UNL     1      41.973 -15.495   3.943  1.00  0.00     0.014 A 
HETATM   11  C   UNL     1      40.159 -15.744   1.790  1.00  0.00     0.030 A 
HETATM   12  N   UNL     1      39.119 -13.699   2.816  1.00  0.00    -0.364 N 
HETATM   13  C   UNL     1      41.214 -16.646   1.946  1.00  0.00     0.002 A 
HETATM   14  C   UNL     1      42.109 -16.527   3.004  1.00  0.00     0.001 A 
HETATM   15  H   UNL     1      38.359 -13.555   2.165  1.00  0.00     0.165 HD
HETATM   16  C   UNL     1      39.389 -12.906   3.896  1.00  0.00     0.102 A 
ENDBRANCH   6   7
ENDBRANCH   2   5
BRANCH   1  17
HETATM   17  C   UNL     1      44.072 -10.555   8.228  1.00  0.00     0.280 C 
BRANCH  17  18
HETATM   18  O   UNL     1      44.201  -9.134   8.314  1.00  0.00    -0.342 OA
BRANCH  18  19
HETATM   19  C   UNL     1      43.810  -8.681   9.548  1.00  0.00     0.069 A 
HETATM   20  C   UNL     1      44.099  -9.483  10.649  1.00  0.00     0.037 A 
HETATM   21  C   UNL     1      43.711  -9.076  11.929  1.00  0.00     0.009 A 
HETATM   22  C   UNL     1      43.044  -7.857  12.114  1.00  0.00    -0.062 A 
HETATM   23  C   UNL     1      42.632  -7.404  13.483  1.00  0.00     0.048 C 
HETATM   24  C   UNL     1      42.800  -7.039  11.004  1.00  0.00     0.009 A 
HETATM   25  C   UNL     1      43.185  -7.448   9.724  1.00  0.00     0.037 A 
ENDBRANCH  18  19
ENDBRANCH  17  18
ENDBRANCH   1  17
TORSDOF 5
ENDMDL
