MODEL 1
REMARK VINA RESULT:      -8.2      0.000      0.000
REMARK  7 active torsions:
REMARK  status: ('A' for Active; 'I' for Inactive)
REMARK    1  A    between atoms: C_3  and  C_4 
REMARK    2  A    between atoms: N_5  and  C_7 
REMARK    3  A    between atoms: N_10  and  C_11 
REMARK    4  A    between atoms: C_14  and  C_15 
REMARK       I    between atoms: C_15  and  N_16 
REMARK    5  A    between atoms: N_16  and  C_17 
REMARK    6  A    between atoms: C_17  and  C_18 
REMARK    7  A    between atoms: C_18  and  N_19 
ROOT
HETATM    1  C   UNL     1      41.247  -7.508  15.416  1.00  0.00     0.191 C 
HETATM    2  C   UNL     1      40.810  -8.738  14.620  1.00  0.00     0.048 C 
HETATM    3  C   UNL     1      41.311  -8.768  13.194  1.00  0.00     0.098 C 
HETATM    4  N   UNL     1      42.765  -8.563  13.191  1.00  0.00    -0.283 NA
HETATM    5  C   UNL     1      43.192  -7.265  13.706  1.00  0.00     0.098 C 
HETATM    6  C   UNL     1      42.713  -7.102  15.155  1.00  0.00     0.048 C 
ENDROOT
BRANCH   4   7
HETATM    7  C   UNL     1      43.310  -9.017  11.974  1.00  0.00     0.010 A 
HETATM    8  C   UNL     1      43.519  -8.201  10.853  1.00  0.00     0.024 A 
HETATM    9  C   UNL     1      43.851  -8.758   9.607  1.00  0.00     0.019 A 
HETATM   10  C   UNL     1      43.989 -10.144   9.482  1.00  0.00     0.032 A 
HETATM   11  C   UNL     1      43.872 -10.961  10.603  1.00  0.00     0.019 A 
HETATM   12  C   UNL     1      43.555 -10.395  11.837  1.00  0.00     0.024 A 
BRANCH  10  13
HETATM   13  C   UNL     1      44.077 -10.796   8.158  1.00  0.00     0.251 C 
HETATM   14  N   UNL     1      43.069 -10.558   7.257  1.00  0.00    -0.355 N 
HETATM   15  H   UNL     1      42.322  -9.933   7.548  1.00  0.00     0.162 HD
HETATM   16  O   UNL     1      45.029 -11.532   7.916  1.00  0.00    -0.268 OA
BRANCH  14  17
HETATM   17  C   UNL     1      42.838 -11.334   6.037  1.00  0.00     0.150 C 
BRANCH  17  18
HETATM   18  C   UNL     1      41.474 -12.053   5.882  1.00  0.00     0.254 C 
BRANCH  18  19
HETATM   19  N   UNL     1      41.441 -13.429   6.502  1.00  0.00    -0.066 N 
HETATM   20  H   UNL     1      41.111 -13.277   7.479  1.00  0.00     0.280 HD
HETATM   21  C   UNL     1      40.467 -14.411   5.879  1.00  0.00     0.261 C 
HETATM   22  C   UNL     1      40.468 -15.714   6.690  1.00  0.00     0.195 C 
HETATM   23  O   UNL     1      41.783 -16.276   6.757  1.00  0.00    -0.388 OA
HETATM   24  C   UNL     1      42.702 -15.384   7.401  1.00  0.00     0.195 C 
HETATM   25  C   UNL     1      42.816 -14.062   6.632  1.00  0.00     0.261 C 
ENDBRANCH  18  19
ENDBRANCH  17  18
ENDBRANCH  14  17
ENDBRANCH  10  13
ENDBRANCH   4   7
BRANCH   1  26
HETATM   26  N   UNL     1      40.270  -6.295  15.343  1.00  0.00    -0.056 N 
HETATM   27  C   UNL     1      39.547  -5.994  16.683  1.00  0.00     0.257 C 
HETATM   28  C   UNL     1      38.754  -4.685  16.573  1.00  0.00     0.041 C 
HETATM   29  C   UNL     1      37.777  -4.719  15.407  1.00  0.00     0.004 C 
HETATM   30  C   UNL     1      38.519  -5.005  14.113  1.00  0.00     0.028 C 
HETATM   31  C   UNL     1      39.297  -6.310  14.189  1.00  0.00     0.236 C 
HETATM   32  H   UNL     1      40.885  -5.489  15.192  1.00  0.00     0.281 HD
BRANCH  27  33
HETATM   33  C   UNL     1      40.417  -6.066  17.913  1.00  0.00     0.136 A 
HETATM   34  N   UNL     1      40.420  -7.023  18.907  1.00  0.00    -0.346 N 
HETATM   35  C   UNL     1      39.583  -8.190  19.051  1.00  0.00     0.157 C 
HETATM   36  C   UNL     1      41.391  -6.681  19.810  1.00  0.00     0.111 A 
HETATM   37  C   UNL     1      41.934  -5.511  19.347  1.00  0.00     0.136 A 
HETATM   38  N   UNL     1      41.308  -5.130  18.195  1.00  0.00    -0.244 NA
ENDBRANCH  27  33
ENDBRANCH   1  26
TORSDOF 7
ENDMDL
MODEL 2
REMARK VINA RESULT:      -7.9      4.224     12.858
REMARK  7 active torsions:
REMARK  status: ('A' for Active; 'I' for Inactive)
REMARK    1  A    between atoms: C_3  and  C_4 
REMARK    2  A    between atoms: N_5  and  C_7 
REMARK    3  A    between atoms: N_10  and  C_11 
REMARK    4  A    between atoms: C_14  and  C_15 
REMARK       I    between atoms: C_15  and  N_16 
REMARK    5  A    between atoms: N_16  and  C_17 
REMARK    6  A    between atoms: C_17  and  C_18 
REMARK    7  A    between atoms: C_18  and  N_19 
ROOT
HETATM    1  C   UNL     1      41.042 -11.782   2.411  1.00  0.00     0.191 C 
HETATM    2  C   UNL     1      40.282 -11.493   3.706  1.00  0.00     0.048 C 
HETATM    3  C   UNL     1      41.105 -11.662   4.962  1.00  0.00     0.098 C 
HETATM    4  N   UNL     1      42.346 -10.887   4.833  1.00  0.00    -0.283 NA
HETATM    5  C   UNL     1      43.224 -11.330   3.753  1.00  0.00     0.098 C 
HETATM    6  C   UNL     1      42.483 -11.229   2.412  1.00  0.00     0.048 C 
ENDROOT
BRANCH   4   7
HETATM    7  C   UNL     1      42.904 -10.662   6.107  1.00  0.00     0.010 A 
HETATM    8  C   UNL     1      44.029 -11.338   6.602  1.00  0.00     0.024 A 
HETATM    9  C   UNL     1      44.397 -11.231   7.953  1.00  0.00     0.019 A 
HETATM   10  C   UNL     1      43.642 -10.431   8.817  1.00  0.00     0.032 A 
HETATM   11  C   UNL     1      42.576  -9.685   8.322  1.00  0.00     0.019 A 
HETATM   12  C   UNL     1      42.228  -9.789   6.977  1.00  0.00     0.024 A 
BRANCH  10  13
HETATM   13  C   UNL     1      43.824 -10.490  10.282  1.00  0.00     0.251 C 
HETATM   14  N   UNL     1      42.704 -10.422  11.072  1.00  0.00    -0.355 N 
HETATM   15  H   UNL     1      41.805 -10.348  10.601  1.00  0.00     0.162 HD
HETATM   16  O   UNL     1      44.959 -10.580  10.741  1.00  0.00    -0.268 OA
BRANCH  14  17
HETATM   17  C   UNL     1      42.710 -10.170  12.514  1.00  0.00     0.150 C 
BRANCH  17  18
HETATM   18  C   UNL     1      42.799  -8.699  12.994  1.00  0.00     0.254 C 
BRANCH  18  19
HETATM   19  N   UNL     1      41.526  -7.916  12.786  1.00  0.00    -0.066 N 
HETATM   20  H   UNL     1      41.537  -7.181  13.526  1.00  0.00     0.280 HD
HETATM   21  C   UNL     1      41.412  -7.179  11.466  1.00  0.00     0.261 C 
HETATM   22  C   UNL     1      40.125  -6.343  11.458  1.00  0.00     0.195 C 
HETATM   23  O   UNL     1      38.976  -7.167  11.682  1.00  0.00    -0.388 OA
HETATM   24  C   UNL     1      39.040  -7.822  12.955  1.00  0.00     0.195 C 
HETATM   25  C   UNL     1      40.271  -8.732  13.045  1.00  0.00     0.261 C 
ENDBRANCH  18  19
ENDBRANCH  17  18
ENDBRANCH  14  17
ENDBRANCH  10  13
ENDBRANCH   4   7
BRANCH   1  26
HETATM   26  N   UNL     1      40.970 -13.261   1.922  1.00  0.00    -0.056 N 
HETATM   27  C   UNL     1      39.923 -13.499   0.803  1.00  0.00     0.257 C 
HETATM   28  C   UNL     1      40.048 -14.927   0.257  1.00  0.00     0.041 C 
HETATM   29  C   UNL     1      39.925 -15.963   1.365  1.00  0.00     0.004 C 
HETATM   30  C   UNL     1      40.971 -15.706   2.436  1.00  0.00     0.028 C 
HETATM   31  C   UNL     1      40.854 -14.302   3.010  1.00  0.00     0.236 C 
HETATM   32  H   UNL     1      41.877 -13.417   1.469  1.00  0.00     0.281 HD
BRANCH  27  33
HETATM   33  C   UNL     1      39.885 -12.445  -0.277  1.00  0.00     0.136 A 
HETATM   34  N   UNL     1      38.925 -11.480  -0.500  1.00  0.00    -0.346 N 
HETATM   35  C   UNL     1      37.697 -11.234   0.216  1.00  0.00     0.157 C 
HETATM   36  C   UNL     1      39.323 -10.741  -1.581  1.00  0.00     0.111 A 
HETATM   37  C   UNL     1      40.505 -11.296  -1.997  1.00  0.00     0.136 A 
HETATM   38  N   UNL     1      40.825 -12.360  -1.203  1.00  0.00    -0.244 NA
ENDBRANCH  27  33
ENDBRANCH   1  26
TORSDOF 7
ENDMDL
MODEL 3
REMARK VINA RESULT:      -7.9      3.663      6.419
REMARK  7 active torsions:
REMARK  status: ('A' for Active; 'I' for Inactive)
REMARK    1  A    between atoms: C_3  and  C_4 
REMARK    2  A    between atoms: N_5  and  C_7 
REMARK    3  A    between atoms: N_10  and  C_11 
REMARK    4  A    between atoms: C_14  and  C_15 
REMARK       I    between atoms: C_15  and  N_16 
REMARK    5  A    between atoms: N_16  and  C_17 
REMARK    6  A    between atoms: C_17  and  C_18 
REMARK    7  A    between atoms: C_18  and  N_19 
ROOT
HETATM    1  C   UNL     1      43.190  -7.413   9.585  1.00  0.00     0.191 C 
HETATM    2  C   UNL     1      44.406  -8.264   9.215  1.00  0.00     0.048 C 
HETATM    3  C   UNL     1      44.069  -9.659   8.741  1.00  0.00     0.098 C 
HETATM    4  N   UNL     1      43.073  -9.573   7.665  1.00  0.00    -0.283 NA
HETATM    5  C   UNL     1      41.793  -9.003   8.073  1.00  0.00     0.098 C 
HETATM    6  C   UNL     1      42.009  -7.579   8.606  1.00  0.00     0.048 C 
ENDROOT
BRANCH   4   7
HETATM    7  C   UNL     1      43.072 -10.769   6.919  1.00  0.00     0.010 A 
HETATM    8  C   UNL     1      42.086 -11.108   5.980  1.00  0.00     0.024 A 
HETATM    9  C   UNL     1      42.021 -12.403   5.440  1.00  0.00     0.019 A 
HETATM   10  C   UNL     1      42.957 -13.366   5.831  1.00  0.00     0.032 A 
HETATM   11  C   UNL     1      43.994 -13.021   6.693  1.00  0.00     0.019 A 
HETATM   12  C   UNL     1      44.056 -11.729   7.213  1.00  0.00     0.024 A 
BRANCH  10  13
HETATM   13  C   UNL     1      42.780 -14.796   5.501  1.00  0.00     0.251 C 
HETATM   14  N   UNL     1      43.059 -15.719   6.477  1.00  0.00    -0.355 N 
HETATM   15  H   UNL     1      43.360 -15.365   7.381  1.00  0.00     0.162 HD
HETATM   16  O   UNL     1      42.409 -15.107   4.373  1.00  0.00    -0.268 OA
BRANCH  14  17
HETATM   17  C   UNL     1      43.225 -17.156   6.246  1.00  0.00     0.150 C 
BRANCH  17  18
HETATM   18  C   UNL     1      44.251 -17.606   5.176  1.00  0.00     0.254 C 
BRANCH  18  19
HETATM   19  N   UNL     1      43.791 -18.785   4.354  1.00  0.00    -0.066 N 
HETATM   20  H   UNL     1      42.779 -18.894   4.580  1.00  0.00     0.280 HD
HETATM   21  C   UNL     1      43.867 -18.612   2.849  1.00  0.00     0.261 C 
HETATM   22  C   UNL     1      43.260 -19.842   2.162  1.00  0.00     0.195 C 
HETATM   23  O   UNL     1      43.927 -21.041   2.571  1.00  0.00    -0.388 OA
HETATM   24  C   UNL     1      43.810 -21.251   3.983  1.00  0.00     0.195 C 
HETATM   25  C   UNL     1      44.441 -20.095   4.767  1.00  0.00     0.261 C 
ENDBRANCH  18  19
ENDBRANCH  17  18
ENDBRANCH  14  17
ENDBRANCH  10  13
ENDBRANCH   4   7
BRANCH   1  26
HETATM   26  N   UNL     1      42.748  -7.512  11.077  1.00  0.00    -0.056 N 
HETATM   27  C   UNL     1      42.695  -6.142  11.805  1.00  0.00     0.257 C 
HETATM   28  C   UNL     1      42.077  -6.308  13.199  1.00  0.00     0.041 C 
HETATM   29  C   UNL     1      42.823  -7.349  14.022  1.00  0.00     0.004 C 
HETATM   30  C   UNL     1      42.845  -8.677  13.285  1.00  0.00     0.028 C 
HETATM   31  C   UNL     1      43.474  -8.543  11.906  1.00  0.00     0.236 C 
HETATM   32  H   UNL     1      41.770  -7.818  11.026  1.00  0.00     0.281 HD
BRANCH  27  33
HETATM   33  C   UNL     1      42.085  -5.015  11.009  1.00  0.00     0.136 A 
HETATM   34  N   UNL     1      40.776  -4.861  10.602  1.00  0.00    -0.346 N 
HETATM   35  C   UNL     1      39.651  -5.742  10.803  1.00  0.00     0.157 C 
HETATM   36  C   UNL     1      40.689  -3.677   9.920  1.00  0.00     0.111 A 
HETATM   37  C   UNL     1      41.957  -3.157   9.915  1.00  0.00     0.136 A 
HETATM   38  N   UNL     1      42.811  -4.002  10.564  1.00  0.00    -0.244 NA
ENDBRANCH  27  33
ENDBRANCH   1  26
TORSDOF 7
ENDMDL
MODEL 4
REMARK VINA RESULT:      -7.6      5.790     14.087
REMARK  7 active torsions:
REMARK  status: ('A' for Active; 'I' for Inactive)
REMARK    1  A    between atoms: C_3  and  C_4 
REMARK    2  A    between atoms: N_5  and  C_7 
REMARK    3  A    between atoms: N_10  and  C_11 
REMARK    4  A    between atoms: C_14  and  C_15 
REMARK       I    between atoms: C_15  and  N_16 
REMARK    5  A    between atoms: N_16  and  C_17 
REMARK    6  A    between atoms: C_17  and  C_18 
REMARK    7  A    between atoms: C_18  and  N_19 
ROOT
HETATM    1  C   UNL     1      39.918 -12.317   0.255  1.00  0.00     0.191 C 
HETATM    2  C   UNL     1      41.176 -13.145   0.521  1.00  0.00     0.048 C 
HETATM    3  C   UNL     1      42.025 -12.637   1.663  1.00  0.00     0.098 C 
HETATM    4  N   UNL     1      41.181 -12.467   2.852  1.00  0.00    -0.283 NA
HETATM    5  C   UNL     1      40.125 -11.469   2.705  1.00  0.00     0.098 C 
HETATM    6  C   UNL     1      39.201 -11.863   1.544  1.00  0.00     0.048 C 
ENDROOT
BRANCH   4   7
HETATM    7  C   UNL     1      41.985 -12.431   4.009  1.00  0.00     0.010 A 
HETATM    8  C   UNL     1      41.669 -13.088   5.207  1.00  0.00     0.024 A 
HETATM    9  C   UNL     1      42.392 -12.830   6.383  1.00  0.00     0.019 A 
HETATM   10  C   UNL     1      43.452 -11.917   6.360  1.00  0.00     0.032 A 
HETATM   11  C   UNL     1      43.835 -11.324   5.160  1.00  0.00     0.019 A 
HETATM   12  C   UNL     1      43.118 -11.597   3.997  1.00  0.00     0.024 A 
BRANCH  10  13
HETATM   13  C   UNL     1      44.070 -11.417   7.606  1.00  0.00     0.251 C 
HETATM   14  N   UNL     1      43.268 -10.750   8.497  1.00  0.00    -0.355 N 
HETATM   15  H   UNL     1      42.285 -10.648   8.255  1.00  0.00     0.162 HD
HETATM   16  O   UNL     1      45.269 -11.600   7.793  1.00  0.00    -0.268 OA
BRANCH  14  17
HETATM   17  C   UNL     1      43.754  -9.942   9.618  1.00  0.00     0.150 C 
BRANCH  17  18
HETATM   18  C   UNL     1      43.304 -10.339  11.047  1.00  0.00     0.254 C 
BRANCH  18  19
HETATM   19  N   UNL     1      41.830 -10.137  11.296  1.00  0.00    -0.066 N 
HETATM   20  H   UNL     1      41.360 -10.918  10.790  1.00  0.00     0.280 HD
HETATM   21  C   UNL     1      41.383 -10.246  12.741  1.00  0.00     0.261 C 
HETATM   22  C   UNL     1      39.854 -10.134  12.813  1.00  0.00     0.195 C 
HETATM   23  O   UNL     1      39.402  -8.906  12.233  1.00  0.00    -0.388 OA
HETATM   24  C   UNL     1      39.762  -8.816  10.849  1.00  0.00     0.195 C 
HETATM   25  C   UNL     1      41.284  -8.864  10.672  1.00  0.00     0.261 C 
ENDBRANCH  18  19
ENDBRANCH  17  18
ENDBRANCH  14  17
ENDBRANCH  10  13
ENDBRANCH   4   7
BRANCH   1  26
HETATM   26  N   UNL     1      40.100 -11.154  -0.768  1.00  0.00    -0.056 N 
HETATM   27  C   UNL     1      40.203 -11.628  -2.242  1.00  0.00     0.257 C 
HETATM   28  C   UNL     1      40.193 -10.421  -3.187  1.00  0.00     0.041 C 
HETATM   29  C   UNL     1      41.296  -9.430  -2.842  1.00  0.00     0.004 C 
HETATM   30  C   UNL     1      41.157  -8.980  -1.398  1.00  0.00     0.028 C 
HETATM   31  C   UNL     1      41.186 -10.159  -0.437  1.00  0.00     0.236 C 
HETATM   32  H   UNL     1      39.213 -10.640  -0.720  1.00  0.00     0.281 HD
BRANCH  27  33
HETATM   33  C   UNL     1      39.228 -12.709  -2.639  1.00  0.00     0.136 A 
HETATM   34  N   UNL     1      37.851 -12.644  -2.696  1.00  0.00    -0.346 N 
HETATM   35  C   UNL     1      36.977 -11.543  -2.370  1.00  0.00     0.157 C 
HETATM   36  C   UNL     1      37.395 -13.861  -3.124  1.00  0.00     0.111 A 
HETATM   37  C   UNL     1      38.511 -14.638  -3.293  1.00  0.00     0.136 A 
HETATM   38  N   UNL     1      39.629 -13.927  -2.965  1.00  0.00    -0.244 NA
ENDBRANCH  27  33
ENDBRANCH   1  26
TORSDOF 7
ENDMDL
MODEL 5
REMARK VINA RESULT:      -7.5     22.954     25.892
REMARK  7 active torsions:
REMARK  status: ('A' for Active; 'I' for Inactive)
REMARK    1  A    between atoms: C_3  and  C_4 
REMARK    2  A    between atoms: N_5  and  C_7 
REMARK    3  A    between atoms: N_10  and  C_11 
REMARK    4  A    between atoms: C_14  and  C_15 
REMARK       I    between atoms: C_15  and  N_16 
REMARK    5  A    between atoms: N_16  and  C_17 
REMARK    6  A    between atoms: C_17  and  C_18 
REMARK    7  A    between atoms: C_18  and  N_19 
ROOT
HETATM    1  C   UNL     1      44.229 -30.236  -0.156  1.00  0.00     0.191 C 
HETATM    2  C   UNL     1      43.921 -31.619   0.420  1.00  0.00     0.048 C 
HETATM    3  C   UNL     1      43.296 -31.596   1.796  1.00  0.00     0.098 C 
HETATM    4  N   UNL     1      42.131 -30.702   1.780  1.00  0.00    -0.283 NA
HETATM    5  C   UNL     1      42.446 -29.306   1.494  1.00  0.00     0.098 C 
HETATM    6  C   UNL     1      43.119 -29.200   0.118  1.00  0.00     0.048 C 
ENDROOT
BRANCH   4   7
HETATM    7  C   UNL     1      41.290 -30.994   2.873  1.00  0.00     0.010 A 
HETATM    8  C   UNL     1      41.461 -30.461   4.159  1.00  0.00     0.024 A 
HETATM    9  C   UNL     1      40.730 -30.962   5.249  1.00  0.00     0.019 A 
HETATM   10  C   UNL     1      39.810 -31.997   5.051  1.00  0.00     0.032 A 
HETATM   11  C   UNL     1      39.565 -32.476   3.767  1.00  0.00     0.019 A 
HETATM   12  C   UNL     1      40.287 -31.962   2.691  1.00  0.00     0.024 A 
BRANCH  10  13
HETATM   13  C   UNL     1      39.216 -32.731   6.187  1.00  0.00     0.251 C 
HETATM   14  N   UNL     1      40.066 -33.269   7.120  1.00  0.00    -0.355 N 
HETATM   15  H   UNL     1      41.063 -33.120   6.983  1.00  0.00     0.162 HD
HETATM   16  O   UNL     1      37.995 -32.848   6.251  1.00  0.00    -0.268 OA
BRANCH  14  17
HETATM   17  C   UNL     1      39.684 -34.260   8.128  1.00  0.00     0.150 C 
BRANCH  17  18
HETATM   18  C   UNL     1      40.047 -33.969   9.606  1.00  0.00     0.254 C 
BRANCH  18  19
HETATM   19  N   UNL     1      41.296 -33.138   9.771  1.00  0.00    -0.066 N 
HETATM   20  H   UNL     1      41.259 -32.439   8.998  1.00  0.00     0.280 HD
HETATM   21  C   UNL     1      41.391 -32.336  11.055  1.00  0.00     0.261 C 
HETATM   22  C   UNL     1      42.651 -31.461  11.019  1.00  0.00     0.195 C 
HETATM   23  O   UNL     1      43.824 -32.258  10.829  1.00  0.00    -0.388 OA
HETATM   24  C   UNL     1      43.777 -32.973   9.588  1.00  0.00     0.195 C 
HETATM   25  C   UNL     1      42.576 -33.925   9.545  1.00  0.00     0.261 C 
ENDBRANCH  18  19
ENDBRANCH  17  18
ENDBRANCH  14  17
ENDBRANCH  10  13
ENDBRANCH   4   7
BRANCH   1  26
HETATM   26  N   UNL     1      45.651 -29.688   0.174  1.00  0.00    -0.056 N 
HETATM   27  C   UNL     1      46.608 -29.656  -1.047  1.00  0.00     0.257 C 
HETATM   28  C   UNL     1      47.911 -28.936  -0.679  1.00  0.00     0.041 C 
HETATM   29  C   UNL     1      48.577 -29.571   0.533  1.00  0.00     0.004 C 
HETATM   30  C   UNL     1      47.618 -29.576   1.711  1.00  0.00     0.028 C 
HETATM   31  C   UNL     1      46.324 -30.303   1.378  1.00  0.00     0.236 C 
HETATM   32  H   UNL     1      45.490 -28.702   0.406  1.00  0.00     0.281 HD
BRANCH  27  33
HETATM   33  C   UNL     1      45.991 -29.160  -2.333  1.00  0.00     0.136 A 
HETATM   34  N   UNL     1      45.696 -29.875  -3.475  1.00  0.00    -0.346 N 
HETATM   35  C   UNL     1      45.918 -31.272  -3.757  1.00  0.00     0.157 C 
HETATM   36  C   UNL     1      45.134 -29.008  -4.373  1.00  0.00     0.111 A 
HETATM   37  C   UNL     1      45.125 -27.785  -3.756  1.00  0.00     0.136 A 
HETATM   38  N   UNL     1      45.680 -27.886  -2.512  1.00  0.00    -0.244 NA
ENDBRANCH  27  33
ENDBRANCH   1  26
TORSDOF 7
ENDMDL
MODEL 6
REMARK VINA RESULT:      -7.5      3.099     11.875
REMARK  7 active torsions:
REMARK  status: ('A' for Active; 'I' for Inactive)
REMARK    1  A    between atoms: C_3  and  C_4 
REMARK    2  A    between atoms: N_5  and  C_7 
REMARK    3  A    between atoms: N_10  and  C_11 
REMARK    4  A    between atoms: C_14  and  C_15 
REMARK       I    between atoms: C_15  and  N_16 
REMARK    5  A    between atoms: N_16  and  C_17 
REMARK    6  A    between atoms: C_17  and  C_18 
REMARK    7  A    between atoms: C_18  and  N_19 
ROOT
HETATM    1  C   UNL     1      42.894 -12.379   5.050  1.00  0.00     0.191 C 
HETATM    2  C   UNL     1      41.902 -11.289   5.460  1.00  0.00     0.048 C 
HETATM    3  C   UNL     1      42.036 -10.832   6.894  1.00  0.00     0.098 C 
HETATM    4  N   UNL     1      43.435 -10.470   7.155  1.00  0.00    -0.283 NA
HETATM    5  C   UNL     1      44.378 -11.578   7.031  1.00  0.00     0.098 C 
HETATM    6  C   UNL     1      44.315 -12.152   5.608  1.00  0.00     0.048 C 
ENDROOT
BRANCH   4   7
HETATM    7  C   UNL     1      43.511  -9.645   8.295  1.00  0.00     0.010 A 
HETATM    8  C   UNL     1      44.110 -10.027   9.503  1.00  0.00     0.024 A 
HETATM    9  C   UNL     1      43.954  -9.250  10.663  1.00  0.00     0.019 A 
HETATM   10  C   UNL     1      43.204  -8.071  10.612  1.00  0.00     0.032 A 
HETATM   11  C   UNL     1      42.676  -7.632   9.401  1.00  0.00     0.019 A 
HETATM   12  C   UNL     1      42.848  -8.405   8.254  1.00  0.00     0.024 A 
BRANCH  10  13
HETATM   13  C   UNL     1      42.792  -7.363  11.843  1.00  0.00     0.251 C 
HETATM   14  N   UNL     1      43.258  -7.837  13.043  1.00  0.00    -0.355 N 
HETATM   15  H   UNL     1      43.875  -8.645  13.017  1.00  0.00     0.162 HD
HETATM   16  O   UNL     1      42.043  -6.394  11.752  1.00  0.00    -0.268 OA
BRANCH  14  17
HETATM   17  C   UNL     1      42.731  -7.456  14.354  1.00  0.00     0.150 C 
BRANCH  17  18
HETATM   18  C   UNL     1      41.321  -7.968  14.746  1.00  0.00     0.254 C 
BRANCH  18  19
HETATM   19  N   UNL     1      40.217  -6.981  14.458  1.00  0.00    -0.066 N 
HETATM   20  H   UNL     1      40.691  -6.167  14.010  1.00  0.00     0.280 HD
HETATM   21  C   UNL     1      39.159  -7.442  13.473  1.00  0.00     0.261 C 
HETATM   22  C   UNL     1      38.181  -6.292  13.199  1.00  0.00     0.195 C 
HETATM   23  O   UNL     1      37.579  -5.830  14.413  1.00  0.00    -0.388 OA
HETATM   24  C   UNL     1      38.561  -5.332  15.330  1.00  0.00     0.195 C 
HETATM   25  C   UNL     1      39.563  -6.428  15.713  1.00  0.00     0.261 C 
ENDBRANCH  18  19
ENDBRANCH  17  18
ENDBRANCH  14  17
ENDBRANCH  10  13
ENDBRANCH   4   7
BRANCH   1  26
HETATM   26  N   UNL     1      42.394 -13.840   5.269  1.00  0.00    -0.056 N 
HETATM   27  C   UNL     1      41.086 -14.173   4.503  1.00  0.00     0.257 C 
HETATM   28  C   UNL     1      40.770 -15.669   4.623  1.00  0.00     0.041 C 
HETATM   29  C   UNL     1      40.692 -16.110   6.077  1.00  0.00     0.004 C 
HETATM   30  C   UNL     1      41.990 -15.778   6.792  1.00  0.00     0.028 C 
HETATM   31  C   UNL     1      42.315 -14.295   6.706  1.00  0.00     0.236 C 
HETATM   32  H   UNL     1      43.113 -14.418   4.821  1.00  0.00     0.281 HD
BRANCH  27  33
HETATM   33  C   UNL     1      41.023 -13.659   3.085  1.00  0.00     0.136 A 
HETATM   34  N   UNL     1      41.895 -13.901   2.045  1.00  0.00    -0.346 N 
HETATM   35  C   UNL     1      43.107 -14.683   2.036  1.00  0.00     0.157 C 
HETATM   36  C   UNL     1      41.423 -13.237   0.944  1.00  0.00     0.111 A 
HETATM   37  C   UNL     1      40.287 -12.592   1.357  1.00  0.00     0.136 A 
HETATM   38  N   UNL     1      40.067 -12.837   2.683  1.00  0.00    -0.244 NA
ENDBRANCH  27  33
ENDBRANCH   1  26
TORSDOF 7
ENDMDL
MODEL 7
REMARK VINA RESULT:      -7.3      1.787      3.385
REMARK  7 active torsions:
REMARK  status: ('A' for Active; 'I' for Inactive)
REMARK    1  A    between atoms: C_3  and  C_4 
REMARK    2  A    between atoms: N_5  and  C_7 
REMARK    3  A    between atoms: N_10  and  C_11 
REMARK    4  A    between atoms: C_14  and  C_15 
REMARK       I    between atoms: C_15  and  N_16 
REMARK    5  A    between atoms: N_16  and  C_17 
REMARK    6  A    between atoms: C_17  and  C_18 
REMARK    7  A    between atoms: C_18  and  N_19 
ROOT
HETATM    1  C   UNL     1      39.976  -6.451  13.720  1.00  0.00     0.191 C 
HETATM    2  C   UNL     1      41.203  -5.792  13.090  1.00  0.00     0.048 C 
HETATM    3  C   UNL     1      42.250  -6.765  12.598  1.00  0.00     0.098 C 
HETATM    4  N   UNL     1      41.611  -7.756  11.722  1.00  0.00    -0.283 NA
HETATM    5  C   UNL     1      40.613  -8.591  12.385  1.00  0.00     0.098 C 
HETATM    6  C   UNL     1      39.498  -7.705  12.957  1.00  0.00     0.048 C 
ENDROOT
BRANCH   4   7
HETATM    7  C   UNL     1      42.585  -8.380  10.917  1.00  0.00     0.010 A 
HETATM    8  C   UNL     1      43.133  -7.806   9.761  1.00  0.00     0.024 A 
HETATM    9  C   UNL     1      43.926  -8.567   8.885  1.00  0.00     0.019 A 
HETATM   10  C   UNL     1      44.185  -9.910   9.174  1.00  0.00     0.032 A 
HETATM   11  C   UNL     1      43.722 -10.470  10.361  1.00  0.00     0.019 A 
HETATM   12  C   UNL     1      42.947  -9.702  11.228  1.00  0.00     0.024 A 
BRANCH  10  13
HETATM   13  C   UNL     1      44.784 -10.815   8.170  1.00  0.00     0.251 C 
HETATM   14  N   UNL     1      43.935 -11.558   7.388  1.00  0.00    -0.355 N 
HETATM   15  H   UNL     1      42.937 -11.433   7.535  1.00  0.00     0.162 HD
HETATM   16  O   UNL     1      46.006 -10.884   8.081  1.00  0.00    -0.268 OA
BRANCH  14  17
HETATM   17  C   UNL     1      44.340 -12.701   6.567  1.00  0.00     0.150 C 
BRANCH  17  18
HETATM   18  C   UNL     1      43.556 -14.028   6.733  1.00  0.00     0.254 C 
BRANCH  18  19
HETATM   19  N   UNL     1      42.942 -14.533   5.451  1.00  0.00    -0.066 N 
HETATM   20  H   UNL     1      43.397 -13.978   4.695  1.00  0.00     0.280 HD
HETATM   21  C   UNL     1      43.209 -15.988   5.119  1.00  0.00     0.261 C 
HETATM   22  C   UNL     1      42.621 -16.313   3.739  1.00  0.00     0.195 C 
HETATM   23  O   UNL     1      41.219 -16.032   3.699  1.00  0.00    -0.388 OA
HETATM   24  C   UNL     1      40.954 -14.646   3.949  1.00  0.00     0.195 C 
HETATM   25  C   UNL     1      41.457 -14.230   5.336  1.00  0.00     0.261 C 
ENDBRANCH  18  19
ENDBRANCH  17  18
ENDBRANCH  14  17
ENDBRANCH  10  13
ENDBRANCH   4   7
BRANCH   1  26
HETATM   26  N   UNL     1      40.074  -6.690  15.258  1.00  0.00    -0.056 N 
HETATM   27  C   UNL     1      39.932  -5.395  16.101  1.00  0.00     0.257 C 
HETATM   28  C   UNL     1      39.854  -5.742  17.593  1.00  0.00     0.041 C 
HETATM   29  C   UNL     1      41.052  -6.569  18.039  1.00  0.00     0.004 C 
HETATM   30  C   UNL     1      41.154  -7.831  17.201  1.00  0.00     0.028 C 
HETATM   31  C   UNL     1      41.254  -7.513  15.716  1.00  0.00     0.236 C 
HETATM   32  H   UNL     1      39.236  -7.239  15.478  1.00  0.00     0.281 HD
BRANCH  27  33
HETATM   33  C   UNL     1      38.846  -4.449  15.648  1.00  0.00     0.136 A 
HETATM   34  N   UNL     1      38.962  -3.127  15.273  1.00  0.00    -0.346 N 
HETATM   35  C   UNL     1      40.137  -2.290  15.236  1.00  0.00     0.157 C 
HETATM   36  C   UNL     1      37.715  -2.683  14.926  1.00  0.00     0.111 A 
HETATM   37  C   UNL     1      36.873  -3.746  15.124  1.00  0.00     0.136 A 
HETATM   38  N   UNL     1      37.577  -4.818  15.594  1.00  0.00    -0.244 NA
ENDBRANCH  27  33
ENDBRANCH   1  26
TORSDOF 7
ENDMDL
MODEL 8
REMARK VINA RESULT:      -7.2     10.555     15.035
REMARK  7 active torsions:
REMARK  status: ('A' for Active; 'I' for Inactive)
REMARK    1  A    between atoms: C_3  and  C_4 
REMARK    2  A    between atoms: N_5  and  C_7 
REMARK    3  A    between atoms: N_10  and  C_11 
REMARK    4  A    between atoms: C_14  and  C_15 
REMARK       I    between atoms: C_15  and  N_16 
REMARK    5  A    between atoms: N_16  and  C_17 
REMARK    6  A    between atoms: C_17  and  C_18 
REMARK    7  A    between atoms: C_18  and  N_19 
ROOT
HETATM    1  C   UNL     1      41.909 -16.366   3.284  1.00  0.00     0.191 C 
HETATM    2  C   UNL     1      40.428 -15.982   3.274  1.00  0.00     0.048 C 
HETATM    3  C   UNL     1      40.100 -14.784   2.414  1.00  0.00     0.098 C 
HETATM    4  N   UNL     1      40.654 -14.991   1.070  1.00  0.00    -0.283 NA
HETATM    5  C   UNL     1      42.110 -15.090   1.026  1.00  0.00     0.098 C 
HETATM    6  C   UNL     1      42.573 -16.268   1.894  1.00  0.00     0.048 C 
ENDROOT
BRANCH   4   7
HETATM    7  C   UNL     1      40.008 -14.140   0.151  1.00  0.00     0.010 A 
HETATM    8  C   UNL     1      39.665 -12.807   0.421  1.00  0.00     0.024 A 
HETATM    9  C   UNL     1      38.828 -12.087  -0.448  1.00  0.00     0.019 A 
HETATM   10  C   UNL     1      38.340 -12.701  -1.606  1.00  0.00     0.032 A 
HETATM   11  C   UNL     1      38.741 -13.993  -1.934  1.00  0.00     0.019 A 
HETATM   12  C   UNL     1      39.582 -14.692  -1.070  1.00  0.00     0.024 A 
BRANCH  10  13
HETATM   13  C   UNL     1      37.260 -12.088  -2.409  1.00  0.00     0.251 C 
HETATM   14  N   UNL     1      37.177 -10.719  -2.435  1.00  0.00    -0.355 N 
HETATM   15  H   UNL     1      37.876 -10.199  -1.909  1.00  0.00     0.162 HD
HETATM   16  O   UNL     1      36.472 -12.817  -3.005  1.00  0.00    -0.268 OA
BRANCH  14  17
HETATM   17  C   UNL     1      36.023  -9.960  -2.920  1.00  0.00     0.150 C 
BRANCH  17  18
HETATM   18  C   UNL     1      35.949  -9.640  -4.435  1.00  0.00     0.254 C 
BRANCH  18  19
HETATM   19  N   UNL     1      34.540  -9.516  -4.960  1.00  0.00    -0.066 N 
HETATM   20  H   UNL     1      34.250  -8.542  -4.727  1.00  0.00     0.280 HD
HETATM   21  C   UNL     1      34.380  -9.651  -6.462  1.00  0.00     0.261 C 
HETATM   22  C   UNL     1      32.918  -9.385  -6.846  1.00  0.00     0.195 C 
HETATM   23  O   UNL     1      32.036 -10.278  -6.158  1.00  0.00    -0.388 OA
HETATM   24  C   UNL     1      32.130 -10.117  -4.737  1.00  0.00     0.195 C 
HETATM   25  C   UNL     1      33.550 -10.416  -4.241  1.00  0.00     0.261 C 
ENDBRANCH  18  19
ENDBRANCH  17  18
ENDBRANCH  14  17
ENDBRANCH  10  13
ENDBRANCH   4   7
BRANCH   1  26
HETATM   26  N   UNL     1      42.758 -15.684   4.400  1.00  0.00    -0.056 N 
HETATM   27  C   UNL     1      43.182 -16.649   5.539  1.00  0.00     0.257 C 
HETATM   28  C   UNL     1      44.161 -15.947   6.489  1.00  0.00     0.041 C 
HETATM   29  C   UNL     1      43.575 -14.656   7.042  1.00  0.00     0.004 C 
HETATM   30  C   UNL     1      43.182 -13.733   5.902  1.00  0.00     0.028 C 
HETATM   31  C   UNL     1      42.193 -14.398   4.956  1.00  0.00     0.236 C 
HETATM   32  H   UNL     1      43.634 -15.435   3.929  1.00  0.00     0.281 HD
BRANCH  27  33
HETATM   33  C   UNL     1      43.656 -18.008   5.086  1.00  0.00     0.136 A 
HETATM   34  N   UNL     1      43.653 -19.196   5.788  1.00  0.00    -0.346 N 
HETATM   35  C   UNL     1      43.223 -19.453   7.141  1.00  0.00     0.157 C 
HETATM   36  C   UNL     1      44.163 -20.165   4.967  1.00  0.00     0.111 A 
HETATM   37  C   UNL     1      44.483 -19.530   3.795  1.00  0.00     0.136 A 
HETATM   38  N   UNL     1      44.191 -18.199   3.891  1.00  0.00    -0.244 NA
ENDBRANCH  27  33
ENDBRANCH   1  26
TORSDOF 7
ENDMDL
MODEL 9
REMARK VINA RESULT:      -7.2      3.274     11.937
REMARK  7 active torsions:
REMARK  status: ('A' for Active; 'I' for Inactive)
REMARK    1  A    between atoms: C_3  and  C_4 
REMARK    2  A    between atoms: N_5  and  C_7 
REMARK    3  A    between atoms: N_10  and  C_11 
REMARK    4  A    between atoms: C_14  and  C_15 
REMARK       I    between atoms: C_15  and  N_16 
REMARK    5  A    between atoms: N_16  and  C_17 
REMARK    6  A    between atoms: C_17  and  C_18 
REMARK    7  A    between atoms: C_18  and  N_19 
ROOT
HETATM    1  C   UNL     1      43.929 -11.427   5.601  1.00  0.00     0.191 C 
HETATM    2  C   UNL     1      42.818 -10.461   6.019  1.00  0.00     0.048 C 
HETATM    3  C   UNL     1      42.718 -10.234   7.509  1.00  0.00     0.098 C 
HETATM    4  N   UNL     1      44.039  -9.856   8.028  1.00  0.00    -0.283 NA
HETATM    5  C   UNL     1      45.062 -10.887   7.879  1.00  0.00     0.098 C 
HETATM    6  C   UNL     1      45.238 -11.229   6.393  1.00  0.00     0.048 C 
ENDROOT
BRANCH   4   7
HETATM    7  C   UNL     1      43.898  -9.222   9.278  1.00  0.00     0.010 A 
HETATM    8  C   UNL     1      44.126  -9.852  10.510  1.00  0.00     0.024 A 
HETATM    9  C   UNL     1      43.752  -9.235  11.715  1.00  0.00     0.019 A 
HETATM   10  C   UNL     1      43.158  -7.970  11.692  1.00  0.00     0.032 A 
HETATM   11  C   UNL     1      43.006  -7.293  10.485  1.00  0.00     0.019 A 
HETATM   12  C   UNL     1      43.391  -7.910   9.296  1.00  0.00     0.024 A 
BRANCH  10  13
HETATM   13  C   UNL     1      42.514  -7.395  12.892  1.00  0.00     0.251 C 
HETATM   14  N   UNL     1      42.558  -8.123  14.054  1.00  0.00    -0.355 N 
HETATM   15  H   UNL     1      43.045  -9.015  14.028  1.00  0.00     0.162 HD
HETATM   16  O   UNL     1      41.954  -6.306  12.806  1.00  0.00    -0.268 OA
BRANCH  14  17
HETATM   17  C   UNL     1      41.737  -7.859  15.238  1.00  0.00     0.150 C 
BRANCH  17  18
HETATM   18  C   UNL     1      42.191  -6.730  16.198  1.00  0.00     0.254 C 
BRANCH  18  19
HETATM   19  N   UNL     1      41.322  -6.592  17.424  1.00  0.00    -0.066 N 
HETATM   20  H   UNL     1      40.393  -6.284  17.065  1.00  0.00     0.280 HD
HETATM   21  C   UNL     1      41.066  -7.871  18.199  1.00  0.00     0.261 C 
HETATM   22  C   UNL     1      40.079  -7.588  19.340  1.00  0.00     0.195 C 
HETATM   23  O   UNL     1      40.574  -6.560  20.204  1.00  0.00    -0.388 OA
HETATM   24  C   UNL     1      40.761  -5.326  19.499  1.00  0.00     0.195 C 
HETATM   25  C   UNL     1      41.780  -5.490  18.364  1.00  0.00     0.261 C 
ENDBRANCH  18  19
ENDBRANCH  17  18
ENDBRANCH  14  17
ENDBRANCH  10  13
ENDBRANCH   4   7
BRANCH   1  26
HETATM   26  N   UNL     1      43.502 -12.924   5.518  1.00  0.00    -0.056 N 
HETATM   27  C   UNL     1      42.071 -13.136   4.955  1.00  0.00     0.257 C 
HETATM   28  C   UNL     1      41.806 -14.630   4.735  1.00  0.00     0.041 C 
HETATM   29  C   UNL     1      42.028 -15.432   6.009  1.00  0.00     0.004 C 
HETATM   30  C   UNL     1      43.439 -15.210   6.525  1.00  0.00     0.028 C 
HETATM   31  C   UNL     1      43.721 -13.736   6.772  1.00  0.00     0.236 C 
HETATM   32  H   UNL     1      44.124 -13.321   4.805  1.00  0.00     0.281 HD
BRANCH  27  33
HETATM   33  C   UNL     1      41.717 -12.281   3.763  1.00  0.00     0.136 A 
HETATM   34  N   UNL     1      40.586 -11.517   3.561  1.00  0.00    -0.346 N 
HETATM   35  C   UNL     1      39.435 -11.349   4.415  1.00  0.00     0.157 C 
HETATM   36  C   UNL     1      40.711 -10.905   2.342  1.00  0.00     0.111 A 
HETATM   37  C   UNL     1      41.907 -11.335   1.831  1.00  0.00     0.136 A 
HETATM   38  N   UNL     1      42.503 -12.202   2.702  1.00  0.00    -0.244 NA
ENDBRANCH  27  33
ENDBRANCH   1  26
TORSDOF 7
ENDMDL
MODEL 10
REMARK VINA RESULT:      -7.0     23.798     26.434
REMARK  7 active torsions:
REMARK  status: ('A' for Active; 'I' for Inactive)
REMARK    1  A    between atoms: C_3  and  C_4 
REMARK    2  A    between atoms: N_5  and  C_7 
REMARK    3  A    between atoms: N_10  and  C_11 
REMARK    4  A    between atoms: C_14  and  C_15 
REMARK       I    between atoms: C_15  and  N_16 
REMARK    5  A    between atoms: N_16  and  C_17 
REMARK    6  A    between atoms: C_17  and  C_18 
REMARK    7  A    between atoms: C_18  and  N_19 
ROOT
HETATM    1  C   UNL     1      46.728 -29.991   0.058  1.00  0.00     0.191 C 
HETATM    2  C   UNL     1      47.596 -29.004   0.840  1.00  0.00     0.048 C 
HETATM    3  C   UNL     1      48.234 -29.582   2.082  1.00  0.00     0.098 C 
HETATM    4  N   UNL     1      48.941 -30.820   1.727  1.00  0.00    -0.283 NA
HETATM    5  C   UNL     1      48.077 -31.885   1.225  1.00  0.00     0.098 C 
HETATM    6  C   UNL     1      47.344 -31.403  -0.035  1.00  0.00     0.048 C 
ENDROOT
BRANCH   4   7
HETATM    7  C   UNL     1      49.886 -31.132   2.724  1.00  0.00     0.010 A 
HETATM    8  C   UNL     1      50.327 -32.432   3.010  1.00  0.00     0.024 A 
HETATM    9  C   UNL     1      51.094 -32.698   4.156  1.00  0.00     0.019 A 
HETATM   10  C   UNL     1      51.437 -31.653   5.019  1.00  0.00     0.032 A 
HETATM   11  C   UNL     1      51.083 -30.343   4.704  1.00  0.00     0.019 A 
HETATM   12  C   UNL     1      50.333 -30.090   3.557  1.00  0.00     0.024 A 
BRANCH  10  13
HETATM   13  C   UNL     1      52.010 -31.911   6.357  1.00  0.00     0.251 C 
HETATM   14  N   UNL     1      51.498 -32.956   7.084  1.00  0.00    -0.355 N 
HETATM   15  H   UNL     1      50.760 -33.506   6.652  1.00  0.00     0.162 HD
HETATM   16  O   UNL     1      52.903 -31.179   6.776  1.00  0.00    -0.268 OA
BRANCH  14  17
HETATM   17  C   UNL     1      51.728 -33.173   8.513  1.00  0.00     0.150 C 
BRANCH  17  18
HETATM   18  C   UNL     1      52.934 -34.053   8.930  1.00  0.00     0.254 C 
BRANCH  18  19
HETATM   19  N   UNL     1      54.122 -33.261   9.418  1.00  0.00    -0.066 N 
HETATM   20  H   UNL     1      54.476 -33.787  10.245  1.00  0.00     0.280 HD
HETATM   21  C   UNL     1      55.289 -33.159   8.456  1.00  0.00     0.261 C 
HETATM   22  C   UNL     1      56.453 -32.429   9.140  1.00  0.00     0.195 C 
HETATM   23  O   UNL     1      56.051 -31.132   9.591  1.00  0.00    -0.388 OA
HETATM   24  C   UNL     1      54.990 -31.215  10.550  1.00  0.00     0.195 C 
HETATM   25  C   UNL     1      53.750 -31.884   9.944  1.00  0.00     0.261 C 
ENDBRANCH  18  19
ENDBRANCH  17  18
ENDBRANCH  14  17
ENDBRANCH  10  13
ENDBRANCH   4   7
BRANCH   1  26
HETATM   26  N   UNL     1      45.226 -30.022   0.476  1.00  0.00    -0.056 N 
HETATM   27  C   UNL     1      44.334 -29.037  -0.325  1.00  0.00     0.257 C 
HETATM   28  C   UNL     1      42.857 -29.264   0.017  1.00  0.00     0.041 C 
HETATM   29  C   UNL     1      42.605 -29.152   1.514  1.00  0.00     0.004 C 
HETATM   30  C   UNL     1      43.485 -30.136   2.265  1.00  0.00     0.028 C 
HETATM   31  C   UNL     1      44.959 -29.918   1.959  1.00  0.00     0.236 C 
HETATM   32  H   UNL     1      44.908 -30.954   0.191  1.00  0.00     0.281 HD
BRANCH  27  33
HETATM   33  C   UNL     1      44.606 -28.986  -1.809  1.00  0.00     0.136 A 
HETATM   34  N   UNL     1      44.498 -30.002  -2.736  1.00  0.00    -0.346 N 
HETATM   35  C   UNL     1      44.125 -31.381  -2.536  1.00  0.00     0.157 C 
HETATM   36  C   UNL     1      44.830 -29.484  -3.959  1.00  0.00     0.111 A 
HETATM   37  C   UNL     1      45.152 -28.172  -3.733  1.00  0.00     0.136 A 
HETATM   38  N   UNL     1      45.036 -27.885  -2.403  1.00  0.00    -0.244 NA
ENDBRANCH  27  33
ENDBRANCH   1  26
TORSDOF 7
ENDMDL
