MODEL 1
REMARK VINA RESULT:      -7.8      0.000      0.000
REMARK  5 active torsions:
REMARK  status: ('A' for Active; 'I' for Inactive)
REMARK    1  A    between atoms: C_2  and  O_3 
REMARK    2  A    between atoms: C_4  and  C_5 
REMARK    3  A    between atoms: C_5  and  O_6 
REMARK    4  A    between atoms: C_9  and  C_10 
REMARK    5  A    between atoms: C_22  and  O_23 
ROOT
HETATM    1  C   UNL     1      41.807 -11.516   1.971  1.00  0.00     0.047 C 
HETATM    2  C   UNL     1      41.573 -12.780   2.816  1.00  0.00     0.073 C 
HETATM    3  C   UNL     1      42.911 -13.359   3.387  1.00  0.00     0.133 C 
HETATM    4  C   UNL     1      42.791 -14.488   4.455  1.00  0.00     0.074 C 
HETATM    5  C   UNL     1      41.511 -14.421   5.208  1.00  0.00     0.030 A 
HETATM    6  C   UNL     1      40.494 -13.533   4.933  1.00  0.00     0.042 A 
HETATM    7  N   UNL     1      39.515 -13.747   5.863  1.00  0.00    -0.279 N 
HETATM    8  H   UNL     1      38.629 -13.264   5.976  1.00  0.00     0.189 HD
HETATM    9  N   UNL     1      39.833 -14.724   6.739  1.00  0.00    -0.149 NA
HETATM   10  C   UNL     1      41.044 -15.090   6.342  1.00  0.00     0.190 A 
HETATM   11  C   UNL     1      40.482 -12.482   3.885  1.00  0.00     0.097 C 
ENDROOT
BRANCH   4  12
HETATM   12  C   UNL     1      42.935 -15.890   3.865  1.00  0.00    -0.048 A 
HETATM   13  C   UNL     1      43.795 -16.793   4.523  1.00  0.00     0.009 A 
HETATM   14  C   UNL     1      43.989 -18.091   4.042  1.00  0.00     0.019 A 
HETATM   15  C   UNL     1      43.335 -18.504   2.887  1.00  0.00     0.011 A 
HETATM   16 BR   UNL     1      43.592 -20.259   2.235  1.00  0.00    -0.051 Br
HETATM   17  C   UNL     1      42.486 -17.631   2.212  1.00  0.00     0.019 A 
HETATM   18  C   UNL     1      42.287 -16.336   2.699  1.00  0.00     0.009 A 
ENDBRANCH   4  12
BRANCH   3  19
HETATM   19  C   UNL     1      43.732 -12.251   4.014  1.00  0.00     0.266 C 
HETATM   20  O   UNL     1      44.412 -11.447   3.392  1.00  0.00    -0.265 OA
BRANCH  19  21
HETATM   21  O   UNL     1      43.607 -12.282   5.370  1.00  0.00    -0.326 OA
HETATM   22  C   UNL     1      43.252 -11.029   5.957  1.00  0.00     0.213 C 
ENDBRANCH  19  21
ENDBRANCH   3  19
BRANCH   2  23
HETATM   23  O   UNL     1      41.040 -13.731   1.871  1.00  0.00    -0.389 OA
HETATM   24  H   UNL     1      40.089 -13.826   2.044  1.00  0.00     0.210 HD
ENDBRANCH   2  23
BRANCH  10  25
HETATM   25  O   UNL     1      41.627 -16.028   7.080  1.00  0.00    -0.343 OA
HETATM   26  H   UNL     1      41.764 -15.608   7.945  1.00  0.00     0.219 HD
ENDBRANCH  10  25
TORSDOF 5
ENDMDL
MODEL 2
REMARK VINA RESULT:      -7.3      3.819      6.167
REMARK  5 active torsions:
REMARK  status: ('A' for Active; 'I' for Inactive)
REMARK    1  A    between atoms: C_2  and  O_3 
REMARK    2  A    between atoms: C_4  and  C_5 
REMARK    3  A    between atoms: C_5  and  O_6 
REMARK    4  A    between atoms: C_9  and  C_10 
REMARK    5  A    between atoms: C_22  and  O_23 
ROOT
HETATM    1  C   UNL     1      40.183 -15.681   6.562  1.00  0.00     0.047 C 
HETATM    2  C   UNL     1      40.874 -14.429   5.996  1.00  0.00     0.073 C 
HETATM    3  C   UNL     1      42.400 -14.393   6.345  1.00  0.00     0.133 C 
HETATM    4  C   UNL     1      43.263 -13.311   5.628  1.00  0.00     0.074 C 
HETATM    5  C   UNL     1      42.687 -12.907   4.318  1.00  0.00     0.030 A 
HETATM    6  C   UNL     1      41.477 -13.352   3.831  1.00  0.00     0.042 A 
HETATM    7  N   UNL     1      41.320 -12.799   2.590  1.00  0.00    -0.279 N 
HETATM    8  H   UNL     1      40.555 -12.920   1.933  1.00  0.00     0.189 HD
HETATM    9  N   UNL     1      42.361 -12.019   2.231  1.00  0.00    -0.149 NA
HETATM   10  C   UNL     1      43.177 -12.124   3.271  1.00  0.00     0.190 A 
HETATM   11  C   UNL     1      40.550 -14.312   4.478  1.00  0.00     0.097 C 
ENDROOT
BRANCH   4  12
HETATM   12  C   UNL     1      43.476 -12.056   6.473  1.00  0.00    -0.048 A 
HETATM   13  C   UNL     1      44.696 -11.936   7.169  1.00  0.00     0.009 A 
HETATM   14  C   UNL     1      44.966 -10.824   7.972  1.00  0.00     0.019 A 
HETATM   15  C   UNL     1      44.014  -9.819   8.102  1.00  0.00     0.011 A 
HETATM   16 BR   UNL     1      44.377  -8.312   9.183  1.00  0.00    -0.051 Br
HETATM   17  C   UNL     1      42.798  -9.915   7.432  1.00  0.00     0.019 A 
HETATM   18  C   UNL     1      42.533 -11.024   6.623  1.00  0.00     0.009 A 
ENDBRANCH   4  12
BRANCH   3  19
HETATM   19  C   UNL     1      43.036 -15.733   6.038  1.00  0.00     0.266 C 
HETATM   20  O   UNL     1      43.302 -16.139   4.915  1.00  0.00    -0.265 OA
BRANCH  19  21
HETATM   21  O   UNL     1      43.265 -16.421   7.190  1.00  0.00    -0.326 OA
HETATM   22  C   UNL     1      43.419 -17.830   7.014  1.00  0.00     0.213 C 
ENDBRANCH  19  21
ENDBRANCH   3  19
BRANCH   2  23
HETATM   23  O   UNL     1      40.230 -13.339   6.687  1.00  0.00    -0.389 OA
HETATM   24  H   UNL     1      40.878 -12.624   6.793  1.00  0.00     0.210 HD
ENDBRANCH   2  23
BRANCH  10  25
HETATM   25  O   UNL     1      44.332 -11.476   3.157  1.00  0.00    -0.343 OA
HETATM   26  H   UNL     1      45.009 -12.170   3.230  1.00  0.00     0.219 HD
ENDBRANCH  10  25
TORSDOF 5
ENDMDL
MODEL 3
REMARK VINA RESULT:      -7.2      3.008      4.933
REMARK  5 active torsions:
REMARK  status: ('A' for Active; 'I' for Inactive)
REMARK    1  A    between atoms: C_2  and  O_3 
REMARK    2  A    between atoms: C_4  and  C_5 
REMARK    3  A    between atoms: C_5  and  O_6 
REMARK    4  A    between atoms: C_9  and  C_10 
REMARK    5  A    between atoms: C_22  and  O_23 
ROOT
HETATM    1  C   UNL     1      42.994 -16.869   2.097  1.00  0.00     0.047 C 
HETATM    2  C   UNL     1      42.648 -16.103   3.385  1.00  0.00     0.073 C 
HETATM    3  C   UNL     1      42.453 -14.572   3.122  1.00  0.00     0.133 C 
HETATM    4  C   UNL     1      41.861 -13.725   4.290  1.00  0.00     0.074 C 
HETATM    5  C   UNL     1      41.020 -14.539   5.208  1.00  0.00     0.030 A 
HETATM    6  C   UNL     1      40.859 -15.903   5.108  1.00  0.00     0.042 A 
HETATM    7  N   UNL     1      39.983 -16.273   6.092  1.00  0.00    -0.279 N 
HETATM    8  H   UNL     1      39.621 -17.198   6.305  1.00  0.00     0.189 HD
HETATM    9  N   UNL     1      39.555 -15.227   6.829  1.00  0.00    -0.149 NA
HETATM   10  C   UNL     1      40.169 -14.198   6.261  1.00  0.00     0.190 A 
HETATM   11  C   UNL     1      41.447 -16.802   4.086  1.00  0.00     0.097 C 
ENDROOT
BRANCH   4  12
HETATM   12  C   UNL     1      42.931 -13.011   5.115  1.00  0.00    -0.048 A 
HETATM   13  C   UNL     1      43.582 -11.907   4.529  1.00  0.00     0.009 A 
HETATM   14  C   UNL     1      44.578 -11.205   5.212  1.00  0.00     0.019 A 
HETATM   15  C   UNL     1      44.950 -11.605   6.491  1.00  0.00     0.011 A 
HETATM   16 BR   UNL     1      46.294 -10.657   7.421  1.00  0.00    -0.051 Br
HETATM   17  C   UNL     1      44.329 -12.696   7.092  1.00  0.00     0.019 A 
HETATM   18  C   UNL     1      43.327 -13.392   6.410  1.00  0.00     0.009 A 
ENDBRANCH   4  12
BRANCH   3  19
HETATM   19  C   UNL     1      41.546 -14.361   1.928  1.00  0.00     0.266 C 
HETATM   20  O   UNL     1      40.519 -14.989   1.709  1.00  0.00    -0.265 OA
BRANCH  19  21
HETATM   21  O   UNL     1      42.040 -13.374   1.130  1.00  0.00    -0.326 OA
HETATM   22  C   UNL     1      41.065 -12.425   0.694  1.00  0.00     0.213 C 
ENDBRANCH  19  21
ENDBRANCH   3  19
BRANCH   2  23
HETATM   23  O   UNL     1      43.820 -16.270   4.210  1.00  0.00    -0.389 OA
HETATM   24  H   UNL     1      43.815 -15.573   4.885  1.00  0.00     0.210 HD
ENDBRANCH   2  23
BRANCH  10  25
HETATM   25  O   UNL     1      39.879 -13.007   6.773  1.00  0.00    -0.343 OA
HETATM   26  H   UNL     1      39.884 -12.405   6.010  1.00  0.00     0.219 HD
ENDBRANCH  10  25
TORSDOF 5
ENDMDL
MODEL 4
REMARK VINA RESULT:      -7.2      2.667      3.690
REMARK  5 active torsions:
REMARK  status: ('A' for Active; 'I' for Inactive)
REMARK    1  A    between atoms: C_2  and  O_3 
REMARK    2  A    between atoms: C_4  and  C_5 
REMARK    3  A    between atoms: C_5  and  O_6 
REMARK    4  A    between atoms: C_9  and  C_10 
REMARK    5  A    between atoms: C_22  and  O_23 
ROOT
HETATM    1  C   UNL     1      42.520 -10.676   3.866  1.00  0.00     0.047 C 
HETATM    2  C   UNL     1      42.282 -11.990   3.102  1.00  0.00     0.073 C 
HETATM    3  C   UNL     1      41.409 -12.997   3.923  1.00  0.00     0.133 C 
HETATM    4  C   UNL     1      40.892 -14.259   3.169  1.00  0.00     0.074 C 
HETATM    5  C   UNL     1      40.766 -14.032   1.705  1.00  0.00     0.030 A 
HETATM    6  C   UNL     1      41.157 -12.878   1.063  1.00  0.00     0.042 A 
HETATM    7  N   UNL     1      40.839 -13.031  -0.259  1.00  0.00    -0.279 N 
HETATM    8  H   UNL     1      40.968 -12.374  -1.023  1.00  0.00     0.189 HD
HETATM    9  N   UNL     1      40.256 -14.219  -0.521  1.00  0.00    -0.149 NA
HETATM   10  C   UNL     1      40.198 -14.787   0.676  1.00  0.00     0.190 A 
HETATM   11  C   UNL     1      41.736 -11.661   1.682  1.00  0.00     0.097 C 
ENDROOT
BRANCH   4  12
HETATM   12  C   UNL     1      41.764 -15.493   3.397  1.00  0.00    -0.048 A 
HETATM   13  C   UNL     1      41.819 -16.025   4.701  1.00  0.00     0.009 A 
HETATM   14  C   UNL     1      42.601 -17.145   4.995  1.00  0.00     0.019 A 
HETATM   15  C   UNL     1      43.351 -17.747   3.990  1.00  0.00     0.011 A 
HETATM   16 BR   UNL     1      44.406 -19.265   4.382  1.00  0.00    -0.051 Br
HETATM   17  C   UNL     1      43.321 -17.239   2.695  1.00  0.00     0.019 A 
HETATM   18  C   UNL     1      42.533 -16.122   2.401  1.00  0.00     0.009 A 
ENDBRANCH   4  12
BRANCH   3  19
HETATM   19  C   UNL     1      40.190 -12.293   4.482  1.00  0.00     0.266 C 
HETATM   20  O   UNL     1      39.292 -11.808   3.807  1.00  0.00    -0.265 OA
BRANCH  19  21
HETATM   21  O   UNL     1      40.240 -12.273   5.842  1.00  0.00    -0.326 OA
HETATM   22  C   UNL     1      39.600 -11.144   6.439  1.00  0.00     0.213 C 
ENDBRANCH  19  21
ENDBRANCH   3  19
BRANCH   2  23
HETATM   23  O   UNL     1      43.604 -12.551   2.964  1.00  0.00    -0.389 OA
HETATM   24  H   UNL     1      44.236 -11.818   2.881  1.00  0.00     0.210 HD
ENDBRANCH   2  23
BRANCH  10  25
HETATM   25  O   UNL     1      39.609 -15.977   0.716  1.00  0.00    -0.343 OA
HETATM   26  H   UNL     1      38.740 -15.832   0.306  1.00  0.00     0.219 HD
ENDBRANCH  10  25
TORSDOF 5
ENDMDL
MODEL 5
REMARK VINA RESULT:      -7.0      2.412      4.159
REMARK  5 active torsions:
REMARK  status: ('A' for Active; 'I' for Inactive)
REMARK    1  A    between atoms: C_2  and  O_3 
REMARK    2  A    between atoms: C_4  and  C_5 
REMARK    3  A    between atoms: C_5  and  O_6 
REMARK    4  A    between atoms: C_9  and  C_10 
REMARK    5  A    between atoms: C_22  and  O_23 
ROOT
HETATM    1  C   UNL     1      38.052 -12.199   1.886  1.00  0.00     0.047 C 
HETATM    2  C   UNL     1      39.432 -12.384   2.539  1.00  0.00     0.073 C 
HETATM    3  C   UNL     1      40.509 -12.865   1.510  1.00  0.00     0.133 C 
HETATM    4  C   UNL     1      41.994 -12.854   1.984  1.00  0.00     0.074 C 
HETATM    5  C   UNL     1      42.238 -11.850   3.054  1.00  0.00     0.030 A 
HETATM    6  C   UNL     1      41.253 -11.085   3.639  1.00  0.00     0.042 A 
HETATM    7  N   UNL     1      41.872 -10.256   4.534  1.00  0.00    -0.279 N 
HETATM    8  H   UNL     1      41.460  -9.546   5.132  1.00  0.00     0.189 HD
HETATM    9  N   UNL     1      43.210 -10.429   4.566  1.00  0.00    -0.149 NA
HETATM   10  C   UNL     1      43.405 -11.369   3.650  1.00  0.00     0.190 A 
HETATM   11  C   UNL     1      39.806 -11.087   3.314  1.00  0.00     0.097 C 
ENDROOT
BRANCH   4  12
HETATM   12  C   UNL     1      42.476 -14.217   2.478  1.00  0.00    -0.048 A 
HETATM   13  C   UNL     1      42.914 -15.146   1.513  1.00  0.00     0.009 A 
HETATM   14  C   UNL     1      43.361 -16.418   1.881  1.00  0.00     0.019 A 
HETATM   15  C   UNL     1      43.366 -16.787   3.222  1.00  0.00     0.011 A 
HETATM   16 BR   UNL     1      43.974 -18.504   3.724  1.00  0.00    -0.051 Br
HETATM   17  C   UNL     1      42.933 -15.893   4.196  1.00  0.00     0.019 A 
HETATM   18  C   UNL     1      42.493 -14.618   3.826  1.00  0.00     0.009 A 
ENDBRANCH   4  12
BRANCH   3  19
HETATM   19  C   UNL     1      40.446 -12.018   0.256  1.00  0.00     0.266 C 
HETATM   20  O   UNL     1      40.795 -10.848   0.184  1.00  0.00    -0.265 OA
BRANCH  19  21
HETATM   21  O   UNL     1      39.940 -12.745  -0.779  1.00  0.00    -0.326 OA
HETATM   22  C   UNL     1      39.970 -14.158  -0.576  1.00  0.00     0.213 C 
ENDBRANCH  19  21
ENDBRANCH   3  19
BRANCH   2  23
HETATM   23  O   UNL     1      39.221 -13.443   3.495  1.00  0.00    -0.389 OA
HETATM   24  H   UNL     1      40.041 -13.561   4.001  1.00  0.00     0.210 HD
ENDBRANCH   2  23
BRANCH  10  25
HETATM   25  O   UNL     1      44.673 -11.704   3.438  1.00  0.00    -0.343 OA
HETATM   26  H   UNL     1      44.700 -11.974   2.505  1.00  0.00     0.219 HD
ENDBRANCH  10  25
TORSDOF 5
ENDMDL
MODEL 6
REMARK VINA RESULT:      -6.9      3.286      4.641
REMARK  5 active torsions:
REMARK  status: ('A' for Active; 'I' for Inactive)
REMARK    1  A    between atoms: C_2  and  O_3 
REMARK    2  A    between atoms: C_4  and  C_5 
REMARK    3  A    between atoms: C_5  and  O_6 
REMARK    4  A    between atoms: C_9  and  C_10 
REMARK    5  A    between atoms: C_22  and  O_23 
ROOT
HETATM    1  C   UNL     1      39.727 -11.746   5.370  1.00  0.00     0.047 C 
HETATM    2  C   UNL     1      40.294 -12.736   4.339  1.00  0.00     0.073 C 
HETATM    3  C   UNL     1      41.019 -12.004   3.160  1.00  0.00     0.133 C 
HETATM    4  C   UNL     1      41.846 -12.892   2.181  1.00  0.00     0.074 C 
HETATM    5  C   UNL     1      42.330 -14.143   2.824  1.00  0.00     0.030 A 
HETATM    6  C   UNL     1      42.003 -14.534   4.104  1.00  0.00     0.042 A 
HETATM    7  N   UNL     1      42.673 -15.701   4.346  1.00  0.00    -0.279 N 
HETATM    8  H   UNL     1      42.683 -16.265   5.191  1.00  0.00     0.189 HD
HETATM    9  N   UNL     1      43.426 -16.098   3.298  1.00  0.00    -0.149 NA
HETATM   10  C   UNL     1      43.224 -15.133   2.411  1.00  0.00     0.190 A 
HETATM   11  C   UNL     1      41.158 -13.800   5.076  1.00  0.00     0.097 C 
ENDROOT
BRANCH   4  12
HETATM   12  C   UNL     1      41.078 -13.262   0.913  1.00  0.00    -0.048 A 
HETATM   13  C   UNL     1      40.424 -14.510   0.884  1.00  0.00     0.009 A 
HETATM   14  C   UNL     1      39.708 -14.928  -0.241  1.00  0.00     0.019 A 
HETATM   15  C   UNL     1      39.645 -14.108  -1.363  1.00  0.00     0.011 A 
HETATM   16 BR   UNL     1      38.675 -14.668  -2.885  1.00  0.00    -0.051 Br
HETATM   17  C   UNL     1      40.287 -12.874  -1.365  1.00  0.00     0.019 A 
HETATM   18  C   UNL     1      40.996 -12.454  -0.236  1.00  0.00     0.009 A 
ENDBRANCH   4  12
BRANCH   3  19
HETATM   19  C   UNL     1      41.967 -10.955   3.703  1.00  0.00     0.266 C 
HETATM   20  O   UNL     1      43.069 -11.188   4.181  1.00  0.00    -0.265 OA
BRANCH  19  21
HETATM   21  O   UNL     1      41.414  -9.716   3.588  1.00  0.00    -0.326 OA
HETATM   22  C   UNL     1      40.799  -9.461   2.324  1.00  0.00     0.213 C 
ENDBRANCH  19  21
ENDBRANCH   3  19
BRANCH   2  23
HETATM   23  O   UNL     1      39.121 -13.387   3.808  1.00  0.00    -0.389 OA
HETATM   24  H   UNL     1      39.082 -14.285   4.177  1.00  0.00     0.210 HD
ENDBRANCH   2  23
BRANCH  10  25
HETATM   25  O   UNL     1      43.903 -15.251   1.275  1.00  0.00    -0.343 OA
HETATM   26  H   UNL     1      44.441 -14.442   1.227  1.00  0.00     0.219 HD
ENDBRANCH  10  25
TORSDOF 5
ENDMDL
MODEL 7
REMARK VINA RESULT:      -6.9      2.205      3.369
REMARK  5 active torsions:
REMARK  status: ('A' for Active; 'I' for Inactive)
REMARK    1  A    between atoms: C_2  and  O_3 
REMARK    2  A    between atoms: C_4  and  C_5 
REMARK    3  A    between atoms: C_5  and  O_6 
REMARK    4  A    between atoms: C_9  and  C_10 
REMARK    5  A    between atoms: C_22  and  O_23 
ROOT
HETATM    1  C   UNL     1      39.106 -12.607   3.128  1.00  0.00     0.047 C 
HETATM    2  C   UNL     1      40.192 -12.910   4.173  1.00  0.00     0.073 C 
HETATM    3  C   UNL     1      41.484 -13.507   3.521  1.00  0.00     0.133 C 
HETATM    4  C   UNL     1      42.743 -13.628   4.432  1.00  0.00     0.074 C 
HETATM    5  C   UNL     1      42.738 -12.634   5.538  1.00  0.00     0.030 A 
HETATM    6  C   UNL     1      41.697 -11.770   5.801  1.00  0.00     0.042 A 
HETATM    7  N   UNL     1      42.084 -10.989   6.854  1.00  0.00    -0.279 N 
HETATM    8  H   UNL     1      41.577 -10.234   7.306  1.00  0.00     0.189 HD
HETATM    9  N   UNL     1      43.324 -11.287   7.297  1.00  0.00    -0.149 NA
HETATM   10  C   UNL     1      43.703 -12.255   6.474  1.00  0.00     0.190 A 
HETATM   11  C   UNL     1      40.428 -11.641   5.044  1.00  0.00     0.097 C 
ENDROOT
BRANCH   4  12
HETATM   12  C   UNL     1      42.917 -15.022   5.032  1.00  0.00    -0.048 A 
HETATM   13  C   UNL     1      43.450 -16.030   4.204  1.00  0.00     0.009 A 
HETATM   14  C   UNL     1      43.633 -17.334   4.672  1.00  0.00     0.019 A 
HETATM   15  C   UNL     1      43.273 -17.655   5.977  1.00  0.00     0.011 A 
HETATM   16 BR   UNL     1      43.522 -19.416   6.616  1.00  0.00    -0.051 Br
HETATM   17  C   UNL     1      42.738 -16.682   6.815  1.00  0.00     0.019 A 
HETATM   18  C   UNL     1      42.564 -15.377   6.347  1.00  0.00     0.009 A 
ENDBRANCH   4  12
BRANCH   3  19
HETATM   19  C   UNL     1      41.892 -12.678   2.321  1.00  0.00     0.266 C 
HETATM   20  O   UNL     1      42.478 -11.605   2.379  1.00  0.00    -0.265 OA
BRANCH  19  21
HETATM   21  O   UNL     1      41.510 -13.296   1.170  1.00  0.00    -0.326 OA
HETATM   22  C   UNL     1      41.593 -14.721   1.210  1.00  0.00     0.213 C 
ENDBRANCH  19  21
ENDBRANCH   3  19
BRANCH   2  23
HETATM   23  O   UNL     1      39.596 -13.929   5.003  1.00  0.00    -0.389 OA
HETATM   24  H   UNL     1      39.084 -14.522   4.430  1.00  0.00     0.210 HD
ENDBRANCH   2  23
BRANCH  10  25
HETATM   25  O   UNL     1      44.937 -12.712   6.659  1.00  0.00    -0.343 OA
HETATM   26  H   UNL     1      45.511 -11.957   6.446  1.00  0.00     0.219 HD
ENDBRANCH  10  25
TORSDOF 5
ENDMDL
MODEL 8
REMARK VINA RESULT:      -6.8     15.387     17.015
REMARK  5 active torsions:
REMARK  status: ('A' for Active; 'I' for Inactive)
REMARK    1  A    between atoms: C_2  and  O_3 
REMARK    2  A    between atoms: C_4  and  C_5 
REMARK    3  A    between atoms: C_5  and  O_6 
REMARK    4  A    between atoms: C_9  and  C_10 
REMARK    5  A    between atoms: C_22  and  O_23 
ROOT
HETATM    1  C   UNL     1      45.204 -27.753  -3.379  1.00  0.00     0.047 C 
HETATM    2  C   UNL     1      45.559 -28.332  -2.000  1.00  0.00     0.073 C 
HETATM    3  C   UNL     1      45.006 -29.784  -1.812  1.00  0.00     0.133 C 
HETATM    4  C   UNL     1      45.502 -30.573  -0.563  1.00  0.00     0.074 C 
HETATM    5  C   UNL     1      46.837 -30.112  -0.098  1.00  0.00     0.030 A 
HETATM    6  C   UNL     1      47.520 -29.043  -0.634  1.00  0.00     0.042 A 
HETATM    7  N   UNL     1      48.717 -28.965   0.022  1.00  0.00    -0.279 N 
HETATM    8  H   UNL     1      49.479 -28.309  -0.122  1.00  0.00     0.189 HD
HETATM    9  N   UNL     1      48.862 -29.926   0.958  1.00  0.00    -0.149 NA
HETATM   10  C   UNL     1      47.735 -30.616   0.846  1.00  0.00     0.190 A 
HETATM   11  C   UNL     1      47.091 -28.183  -1.764  1.00  0.00     0.097 C 
ENDROOT
BRANCH   4  12
HETATM   12  C   UNL     1      44.528 -30.510   0.612  1.00  0.00    -0.048 A 
HETATM   13  C   UNL     1      43.519 -31.492   0.680  1.00  0.00     0.009 A 
HETATM   14  C   UNL     1      42.583 -31.499   1.717  1.00  0.00     0.019 A 
HETATM   15  C   UNL     1      42.633 -30.515   2.699  1.00  0.00     0.011 A 
HETATM   16 BR   UNL     1      41.371 -30.523   4.106  1.00  0.00    -0.051 Br
HETATM   17  C   UNL     1      43.614 -29.530   2.654  1.00  0.00     0.019 A 
HETATM   18  C   UNL     1      44.555 -29.529   1.620  1.00  0.00     0.009 A 
ENDBRANCH   4  12
BRANCH   3  19
HETATM   19  C   UNL     1      45.342 -30.629  -3.024  1.00  0.00     0.266 C 
HETATM   20  O   UNL     1      46.475 -30.931  -3.374  1.00  0.00    -0.265 OA
BRANCH  19  21
HETATM   21  O   UNL     1      44.203 -31.001  -3.670  1.00  0.00    -0.326 OA
HETATM   22  C   UNL     1      44.303 -30.990  -5.095  1.00  0.00     0.213 C 
ENDBRANCH  19  21
ENDBRANCH   3  19
BRANCH   2  23
HETATM   23  O   UNL     1      44.868 -27.466  -1.075  1.00  0.00    -0.389 OA
HETATM   24  H   UNL     1      45.191 -26.561  -1.212  1.00  0.00     0.210 HD
ENDBRANCH   2  23
BRANCH  10  25
HETATM   25  O   UNL     1      47.634 -31.677   1.639  1.00  0.00    -0.343 OA
HETATM   26  H   UNL     1      47.968 -32.416   1.101  1.00  0.00     0.219 HD
ENDBRANCH  10  25
TORSDOF 5
ENDMDL
MODEL 9
REMARK VINA RESULT:      -6.8      3.592      4.878
REMARK  5 active torsions:
REMARK  status: ('A' for Active; 'I' for Inactive)
REMARK    1  A    between atoms: C_2  and  O_3 
REMARK    2  A    between atoms: C_4  and  C_5 
REMARK    3  A    between atoms: C_5  and  O_6 
REMARK    4  A    between atoms: C_9  and  C_10 
REMARK    5  A    between atoms: C_22  and  O_23 
ROOT
HETATM    1  C   UNL     1      41.100  -9.663   2.716  1.00  0.00     0.047 C 
HETATM    2  C   UNL     1      41.084 -10.957   1.884  1.00  0.00     0.073 C 
HETATM    3  C   UNL     1      40.216 -12.075   2.554  1.00  0.00     0.133 C 
HETATM    4  C   UNL     1      39.917 -13.343   1.700  1.00  0.00     0.074 C 
HETATM    5  C   UNL     1      39.950 -13.062   0.240  1.00  0.00     0.030 A 
HETATM    6  C   UNL     1      40.306 -11.849  -0.309  1.00  0.00     0.042 A 
HETATM    7  N   UNL     1      40.168 -11.970  -1.664  1.00  0.00    -0.279 N 
HETATM    8  H   UNL     1      40.326 -11.271  -2.384  1.00  0.00     0.189 HD
HETATM    9  N   UNL     1      39.736 -13.193  -2.038  1.00  0.00    -0.149 NA
HETATM   10  C   UNL     1      39.587 -13.818  -0.877  1.00  0.00     0.190 A 
HETATM   11  C   UNL     1      40.687 -10.614   0.419  1.00  0.00     0.097 C 
ENDROOT
BRANCH   4  12
HETATM   12  C   UNL     1      40.869 -14.502   1.993  1.00  0.00    -0.048 A 
HETATM   13  C   UNL     1      40.507 -15.404   3.015  1.00  0.00     0.009 A 
HETATM   14  C   UNL     1      41.326 -16.484   3.352  1.00  0.00     0.019 A 
HETATM   15  C   UNL     1      42.529 -16.675   2.680  1.00  0.00     0.011 A 
HETATM   16 BR   UNL     1      43.638 -18.137   3.130  1.00  0.00    -0.051 Br
HETATM   17  C   UNL     1      42.914 -15.797   1.672  1.00  0.00     0.019 A 
HETATM   18  C   UNL     1      42.090 -14.721   1.331  1.00  0.00     0.009 A 
ENDBRANCH   4  12
BRANCH   3  19
HETATM   19  C   UNL     1      38.877 -11.509   2.979  1.00  0.00     0.266 C 
HETATM   20  O   UNL     1      37.957 -11.242   2.217  1.00  0.00    -0.265 OA
BRANCH  19  21
HETATM   21  O   UNL     1      38.845 -11.336   4.329  1.00  0.00    -0.326 OA
HETATM   22  C   UNL     1      39.511 -12.360   5.070  1.00  0.00     0.213 C 
ENDBRANCH  19  21
ENDBRANCH   3  19
BRANCH   2  23
HETATM   23  O   UNL     1      42.460 -11.390   1.895  1.00  0.00    -0.389 OA
HETATM   24  H   UNL     1      42.603 -11.918   2.697  1.00  0.00     0.210 HD
ENDBRANCH   2  23
BRANCH  10  25
HETATM   25  O   UNL     1      39.114 -15.056  -0.952  1.00  0.00    -0.343 OA
HETATM   26  H   UNL     1      38.366 -14.995  -1.571  1.00  0.00     0.219 HD
ENDBRANCH  10  25
TORSDOF 5
ENDMDL
MODEL 10
REMARK VINA RESULT:      -6.7     16.419     18.653
REMARK  5 active torsions:
REMARK  status: ('A' for Active; 'I' for Inactive)
REMARK    1  A    between atoms: C_2  and  O_3 
REMARK    2  A    between atoms: C_4  and  C_5 
REMARK    3  A    between atoms: C_5  and  O_6 
REMARK    4  A    between atoms: C_9  and  C_10 
REMARK    5  A    between atoms: C_22  and  O_23 
ROOT
HETATM    1  C   UNL     1      48.966 -32.449   3.271  1.00  0.00     0.047 C 
HETATM    2  C   UNL     1      49.252 -32.099   1.801  1.00  0.00     0.073 C 
HETATM    3  C   UNL     1      49.301 -30.553   1.564  1.00  0.00     0.133 C 
HETATM    4  C   UNL     1      49.822 -30.068   0.177  1.00  0.00     0.074 C 
HETATM    5  C   UNL     1      50.745 -31.048  -0.454  1.00  0.00     0.030 A 
HETATM    6  C   UNL     1      51.032 -32.290   0.067  1.00  0.00     0.042 A 
HETATM    7  N   UNL     1      51.948 -32.869  -0.767  1.00  0.00    -0.279 N 
HETATM    8  H   UNL     1      52.398 -33.777  -0.685  1.00  0.00     0.189 HD
HETATM    9  N   UNL     1      52.284 -32.075  -1.805  1.00  0.00    -0.149 NA
HETATM   10  C   UNL     1      51.571 -30.980  -1.578  1.00  0.00     0.190 A 
HETATM   11  C   UNL     1      50.520 -32.871   1.332  1.00  0.00     0.097 C 
ENDROOT
BRANCH   4  12
HETATM   12  C   UNL     1      48.698 -29.752  -0.809  1.00  0.00    -0.048 A 
HETATM   13  C   UNL     1      48.137 -28.460  -0.772  1.00  0.00     0.009 A 
HETATM   14  C   UNL     1      47.100 -28.094  -1.634  1.00  0.00     0.019 A 
HETATM   15  C   UNL     1      46.597 -29.021  -2.541  1.00  0.00     0.011 A 
HETATM   16 BR   UNL     1      45.197 -28.529  -3.711  1.00  0.00    -0.051 Br
HETATM   17  C   UNL     1      47.127 -30.306  -2.595  1.00  0.00     0.019 A 
HETATM   18  C   UNL     1      48.170 -30.668  -1.737  1.00  0.00     0.009 A 
ENDBRANCH   4  12
BRANCH   3  19
HETATM   19  C   UNL     1      50.172 -29.893   2.612  1.00  0.00     0.266 C 
HETATM   20  O   UNL     1      51.395 -29.900   2.612  1.00  0.00    -0.265 OA
BRANCH  19  21
HETATM   21  O   UNL     1      49.397 -29.293   3.559  1.00  0.00    -0.326 OA
HETATM   22  C   UNL     1      48.223 -28.662   3.045  1.00  0.00     0.213 C 
ENDBRANCH  19  21
ENDBRANCH   3  19
BRANCH   2  23
HETATM   23  O   UNL     1      48.110 -32.626   1.095  1.00  0.00    -0.389 OA
HETATM   24  H   UNL     1      48.076 -33.584   1.248  1.00  0.00     0.210 HD
ENDBRANCH   2  23
BRANCH  10  25
HETATM   25  O   UNL     1      51.753 -29.991  -2.445  1.00  0.00    -0.343 OA
HETATM   26  H   UNL     1      50.916 -29.496  -2.430  1.00  0.00     0.219 HD
ENDBRANCH  10  25
TORSDOF 5
ENDMDL
