MODEL 1
REMARK VINA RESULT:      -8.5      0.000      0.000
REMARK  4 active torsions:
REMARK  status: ('A' for Active; 'I' for Inactive)
REMARK    1  A    between atoms: C_8  and  C_9 
REMARK       I    between atoms: C_9  and  N_10 
REMARK    2  A    between atoms: N_10  and  C_11 
REMARK    3  A    between atoms: C_13  and  C_14 
REMARK       I    between atoms: C_14  and  N_15 
REMARK    4  A    between atoms: N_15  and  C_16 
ROOT
HETATM    1  C   UNL     1      42.847 -15.570   3.360  1.00  0.00     0.277 C 
HETATM    2  N   UNL     1      41.568 -15.244   3.774  1.00  0.00    -0.322 N 
HETATM    3  O   UNL     1      43.506 -14.973   2.514  1.00  0.00    -0.266 OA
HETATM    4  H   UNL     1      41.184 -15.905   4.448  1.00  0.00     0.169 HD
ENDROOT
BRANCH   2   5
HETATM    5  C   UNL     1      40.769 -14.160   3.375  1.00  0.00     0.036 A 
HETATM    6  C   UNL     1      40.365 -13.945   2.054  1.00  0.00     0.046 A 
HETATM    7  C   UNL     1      39.561 -12.842   1.729  1.00  0.00     0.034 A 
HETATM    8  C   UNL     1      39.188 -11.935   2.726  1.00  0.00     0.017 A 
HETATM    9  C   UNL     1      39.596 -12.140   4.043  1.00  0.00     0.003 A 
HETATM   10  C   UNL     1      40.381 -13.249   4.364  1.00  0.00     0.029 A 
BRANCH   7  11
HETATM   11  C   UNL     1      39.119 -12.578   0.329  1.00  0.00     0.252 C 
HETATM   12  N   UNL     1      39.101 -13.665  -0.524  1.00  0.00    -0.352 N 
HETATM   13  H   UNL     1      39.287 -14.592  -0.160  1.00  0.00     0.163 HD
HETATM   14  O   UNL     1      38.773 -11.447   0.004  1.00  0.00    -0.268 OA
BRANCH  12  15
HETATM   15  C   UNL     1      38.743 -13.551  -1.903  1.00  0.00     0.084 A 
HETATM   16  C   UNL     1      39.795 -13.695  -2.967  1.00  0.00     0.027 A 
HETATM   17  C   UNL     1      38.751 -14.758  -2.800  1.00  0.00     0.027 A 
ENDBRANCH  12  15
ENDBRANCH   7  11
ENDBRANCH   2   5
BRANCH   1  18
HETATM   18  C   UNL     1      43.357 -16.768   4.054  1.00  0.00     0.157 A 
HETATM   19  C   UNL     1      43.429 -18.098   3.548  1.00  0.00     0.028 A 
HETATM   20  C   UNL     1      43.087 -18.749   2.346  1.00  0.00     0.016 A 
HETATM   21  C   UNL     1      43.994 -18.846   4.576  1.00  0.00     0.063 A 
HETATM   22  C   UNL     1      43.325 -20.123   2.225  1.00  0.00     0.001 A 
HETATM   23  C   UNL     1      43.894 -20.843   3.274  1.00  0.00     0.002 A 
HETATM   24  C   UNL     1      44.243 -20.218   4.476  1.00  0.00     0.032 A 
HETATM   25  N   UNL     1      44.211 -17.957   5.591  1.00  0.00    -0.277 N 
HETATM   26  H   UNL     1      44.616 -18.153   6.500  1.00  0.00     0.189 HD
HETATM   27  N   UNL     1      43.836 -16.693   5.318  1.00  0.00    -0.168 NA
ENDBRANCH   1  18
TORSDOF 4
ENDMDL
MODEL 2
REMARK VINA RESULT:      -8.2      4.612      7.379
REMARK  4 active torsions:
REMARK  status: ('A' for Active; 'I' for Inactive)
REMARK    1  A    between atoms: C_8  and  C_9 
REMARK       I    between atoms: C_9  and  N_10 
REMARK    2  A    between atoms: N_10  and  C_11 
REMARK    3  A    between atoms: C_13  and  C_14 
REMARK       I    between atoms: C_14  and  N_15 
REMARK    4  A    between atoms: N_15  and  C_16 
ROOT
HETATM    1  C   UNL     1      42.216 -14.717   4.573  1.00  0.00     0.277 C 
HETATM    2  N   UNL     1      43.191 -13.750   4.743  1.00  0.00    -0.322 N 
HETATM    3  O   UNL     1      41.097 -14.710   5.076  1.00  0.00    -0.266 OA
HETATM    4  H   UNL     1      44.068 -13.979   4.279  1.00  0.00     0.169 HD
ENDROOT
BRANCH   2   5
HETATM    5  C   UNL     1      43.114 -12.548   5.465  1.00  0.00     0.036 A 
HETATM    6  C   UNL     1      43.715 -12.358   6.713  1.00  0.00     0.046 A 
HETATM    7  C   UNL     1      43.601 -11.127   7.375  1.00  0.00     0.034 A 
HETATM    8  C   UNL     1      42.855 -10.093   6.799  1.00  0.00     0.017 A 
HETATM    9  C   UNL     1      42.246 -10.281   5.560  1.00  0.00     0.003 A 
HETATM   10  C   UNL     1      42.377 -11.503   4.897  1.00  0.00     0.029 A 
BRANCH   7  11
HETATM   11  C   UNL     1      44.223 -10.892   8.711  1.00  0.00     0.252 C 
HETATM   12  N   UNL     1      43.351 -10.708   9.768  1.00  0.00    -0.352 N 
HETATM   13  H   UNL     1      42.356 -10.832   9.626  1.00  0.00     0.163 HD
HETATM   14  O   UNL     1      45.443 -10.898   8.823  1.00  0.00    -0.268 OA
BRANCH  12  15
HETATM   15  C   UNL     1      43.804 -10.429  11.094  1.00  0.00     0.084 A 
HETATM   16  C   UNL     1      43.842  -9.011  11.593  1.00  0.00     0.027 A 
HETATM   17  C   UNL     1      42.840  -9.975  12.155  1.00  0.00     0.027 A 
ENDBRANCH  12  15
ENDBRANCH   7  11
ENDBRANCH   2   5
BRANCH   1  18
HETATM   18  C   UNL     1      42.681 -15.813   3.702  1.00  0.00     0.157 A 
HETATM   19  C   UNL     1      43.172 -17.090   4.102  1.00  0.00     0.028 A 
HETATM   20  C   UNL     1      43.399 -17.754   5.324  1.00  0.00     0.016 A 
HETATM   21  C   UNL     1      43.461 -17.754   2.916  1.00  0.00     0.063 A 
HETATM   22  C   UNL     1      43.907 -19.058   5.304  1.00  0.00     0.001 A 
HETATM   23  C   UNL     1      44.185 -19.698   4.097  1.00  0.00     0.002 A 
HETATM   24  C   UNL     1      43.967 -19.058   2.872  1.00  0.00     0.032 A 
HETATM   25  N   UNL     1      43.144 -16.872   1.922  1.00  0.00    -0.277 N 
HETATM   26  H   UNL     1      43.225 -17.021   0.922  1.00  0.00     0.189 HD
HETATM   27  N   UNL     1      42.675 -15.687   2.355  1.00  0.00    -0.168 NA
ENDBRANCH   1  18
TORSDOF 4
ENDMDL
MODEL 3
REMARK VINA RESULT:      -8.2      5.802      8.475
REMARK  4 active torsions:
REMARK  status: ('A' for Active; 'I' for Inactive)
REMARK    1  A    between atoms: C_8  and  C_9 
REMARK       I    between atoms: C_9  and  N_10 
REMARK    2  A    between atoms: N_10  and  C_11 
REMARK    3  A    between atoms: C_13  and  C_14 
REMARK       I    between atoms: C_14  and  N_15 
REMARK    4  A    between atoms: N_15  and  C_16 
ROOT
HETATM    1  C   UNL     1      43.414 -14.085   6.133  1.00  0.00     0.277 C 
HETATM    2  N   UNL     1      43.890 -12.796   5.967  1.00  0.00    -0.322 N 
HETATM    3  O   UNL     1      43.440 -14.735   7.173  1.00  0.00    -0.266 OA
HETATM    4  H   UNL     1      43.820 -12.464   5.007  1.00  0.00     0.169 HD
ENDROOT
BRANCH   2   5
HETATM    5  C   UNL     1      44.450 -11.940   6.929  1.00  0.00     0.036 A 
HETATM    6  C   UNL     1      43.823 -11.624   8.138  1.00  0.00     0.046 A 
HETATM    7  C   UNL     1      44.444 -10.764   9.056  1.00  0.00     0.034 A 
HETATM    8  C   UNL     1      45.684 -10.195   8.746  1.00  0.00     0.017 A 
HETATM    9  C   UNL     1      46.309 -10.499   7.538  1.00  0.00     0.003 A 
HETATM   10  C   UNL     1      45.693 -11.369   6.636  1.00  0.00     0.029 A 
BRANCH   7  11
HETATM   11  C   UNL     1      43.801 -10.399  10.351  1.00  0.00     0.252 C 
HETATM   12  N   UNL     1      43.117  -9.198  10.379  1.00  0.00    -0.352 N 
HETATM   13  H   UNL     1      42.995  -8.671   9.523  1.00  0.00     0.163 HD
HETATM   14  O   UNL     1      43.877 -11.165  11.305  1.00  0.00    -0.268 OA
BRANCH  12  15
HETATM   15  C   UNL     1      42.491  -8.700  11.563  1.00  0.00     0.084 A 
HETATM   16  C   UNL     1      43.328  -8.120  12.668  1.00  0.00     0.027 A 
HETATM   17  C   UNL     1      42.450  -7.224  11.846  1.00  0.00     0.027 A 
ENDBRANCH  12  15
ENDBRANCH   7  11
ENDBRANCH   2   5
BRANCH   1  18
HETATM   18  C   UNL     1      42.863 -14.629   4.877  1.00  0.00     0.157 A 
HETATM   19  C   UNL     1      43.122 -15.905   4.298  1.00  0.00     0.028 A 
HETATM   20  C   UNL     1      43.908 -17.028   4.622  1.00  0.00     0.016 A 
HETATM   21  C   UNL     1      42.357 -15.937   3.137  1.00  0.00     0.063 A 
HETATM   22  C   UNL     1      43.894 -18.138   3.769  1.00  0.00     0.001 A 
HETATM   23  C   UNL     1      43.114 -18.139   2.613  1.00  0.00     0.002 A 
HETATM   24  C   UNL     1      42.326 -17.035   2.271  1.00  0.00     0.032 A 
HETATM   25  N   UNL     1      41.719 -14.729   3.092  1.00  0.00    -0.277 N 
HETATM   26  H   UNL     1      41.073 -14.404   2.381  1.00  0.00     0.189 HD
HETATM   27  N   UNL     1      42.001 -13.909   4.122  1.00  0.00    -0.168 NA
ENDBRANCH   1  18
TORSDOF 4
ENDMDL
MODEL 4
REMARK VINA RESULT:      -8.1      4.702      7.346
REMARK  4 active torsions:
REMARK  status: ('A' for Active; 'I' for Inactive)
REMARK    1  A    between atoms: C_8  and  C_9 
REMARK       I    between atoms: C_9  and  N_10 
REMARK    2  A    between atoms: N_10  and  C_11 
REMARK    3  A    between atoms: C_13  and  C_14 
REMARK       I    between atoms: C_14  and  N_15 
REMARK    4  A    between atoms: N_15  and  C_16 
ROOT
HETATM    1  C   UNL     1      42.541 -15.611   6.276  1.00  0.00     0.277 C 
HETATM    2  N   UNL     1      43.421 -14.598   5.936  1.00  0.00    -0.322 N 
HETATM    3  O   UNL     1      41.491 -15.475   6.897  1.00  0.00    -0.266 OA
HETATM    4  H   UNL     1      44.260 -14.938   5.468  1.00  0.00     0.169 HD
ENDROOT
BRANCH   2   5
HETATM    5  C   UNL     1      43.299 -13.219   6.167  1.00  0.00     0.036 A 
HETATM    6  C   UNL     1      43.859 -12.569   7.271  1.00  0.00     0.046 A 
HETATM    7  C   UNL     1      43.702 -11.185   7.435  1.00  0.00     0.034 A 
HETATM    8  C   UNL     1      42.953 -10.455   6.506  1.00  0.00     0.017 A 
HETATM    9  C   UNL     1      42.384 -11.100   5.409  1.00  0.00     0.003 A 
HETATM   10  C   UNL     1      42.559 -12.475   5.241  1.00  0.00     0.029 A 
BRANCH   7  11
HETATM   11  C   UNL     1      44.278 -10.461   8.605  1.00  0.00     0.252 C 
HETATM   12  N   UNL     1      43.593 -10.584   9.800  1.00  0.00    -0.352 N 
HETATM   13  H   UNL     1      42.807 -11.218   9.865  1.00  0.00     0.163 HD
HETATM   14  O   UNL     1      45.319  -9.827   8.475  1.00  0.00    -0.268 OA
BRANCH  12  15
HETATM   15  C   UNL     1      44.004  -9.909  10.990  1.00  0.00     0.084 A 
HETATM   16  C   UNL     1      43.391  -8.587  11.356  1.00  0.00     0.027 A 
HETATM   17  C   UNL     1      43.079  -9.805  12.171  1.00  0.00     0.027 A 
ENDBRANCH  12  15
ENDBRANCH   7  11
ENDBRANCH   2   5
BRANCH   1  18
HETATM   18  C   UNL     1      43.018 -16.928   5.814  1.00  0.00     0.157 A 
HETATM   19  C   UNL     1      43.103 -17.397   4.471  1.00  0.00     0.028 A 
HETATM   20  C   UNL     1      42.803 -16.883   3.194  1.00  0.00     0.016 A 
HETATM   21  C   UNL     1      43.624 -18.682   4.569  1.00  0.00     0.063 A 
HETATM   22  C   UNL     1      43.039 -17.680   2.068  1.00  0.00     0.001 A 
HETATM   23  C   UNL     1      43.565 -18.964   2.200  1.00  0.00     0.002 A 
HETATM   24  C   UNL     1      43.870 -19.495   3.458  1.00  0.00     0.032 A 
HETATM   25  N   UNL     1      43.807 -18.896   5.906  1.00  0.00    -0.277 N 
HETATM   26  H   UNL     1      44.177 -19.731   6.348  1.00  0.00     0.189 HD
HETATM   27  N   UNL     1      43.449 -17.863   6.692  1.00  0.00    -0.168 NA
ENDBRANCH   1  18
TORSDOF 4
ENDMDL
MODEL 5
REMARK VINA RESULT:      -7.9      5.682      8.255
REMARK  4 active torsions:
REMARK  status: ('A' for Active; 'I' for Inactive)
REMARK    1  A    between atoms: C_8  and  C_9 
REMARK       I    between atoms: C_9  and  N_10 
REMARK    2  A    between atoms: N_10  and  C_11 
REMARK    3  A    between atoms: C_13  and  C_14 
REMARK       I    between atoms: C_14  and  N_15 
REMARK    4  A    between atoms: N_15  and  C_16 
ROOT
HETATM    1  C   UNL     1      43.112 -13.104   5.934  1.00  0.00     0.277 C 
HETATM    2  N   UNL     1      44.165 -12.897   6.808  1.00  0.00    -0.322 N 
HETATM    3  O   UNL     1      42.247 -12.285   5.640  1.00  0.00    -0.266 OA
HETATM    4  H   UNL     1      44.736 -13.728   6.951  1.00  0.00     0.169 HD
ENDROOT
BRANCH   2   5
HETATM    5  C   UNL     1      44.509 -11.725   7.501  1.00  0.00     0.036 A 
HETATM    6  C   UNL     1      43.747 -11.195   8.547  1.00  0.00     0.046 A 
HETATM    7  C   UNL     1      44.155 -10.022   9.198  1.00  0.00     0.034 A 
HETATM    8  C   UNL     1      45.313  -9.360   8.778  1.00  0.00     0.017 A 
HETATM    9  C   UNL     1      46.071  -9.878   7.730  1.00  0.00     0.003 A 
HETATM   10  C   UNL     1      45.670 -11.056   7.096  1.00  0.00     0.029 A 
BRANCH   7  11
HETATM   11  C   UNL     1      43.362  -9.425  10.312  1.00  0.00     0.252 C 
HETATM   12  N   UNL     1      42.215 -10.104  10.680  1.00  0.00    -0.352 N 
HETATM   13  H   UNL     1      42.010 -11.004  10.266  1.00  0.00     0.163 HD
HETATM   14  O   UNL     1      43.758  -8.402  10.860  1.00  0.00    -0.268 OA
BRANCH  12  15
HETATM   15  C   UNL     1      41.336  -9.624  11.699  1.00  0.00     0.084 A 
HETATM   16  C   UNL     1      40.281  -8.607  11.365  1.00  0.00     0.027 A 
HETATM   17  C   UNL     1      39.883 -10.013  11.705  1.00  0.00     0.027 A 
ENDBRANCH  12  15
ENDBRANCH   7  11
ENDBRANCH   2   5
BRANCH   1  18
HETATM   18  C   UNL     1      43.124 -14.471   5.379  1.00  0.00     0.157 A 
HETATM   19  C   UNL     1      43.128 -14.849   4.005  1.00  0.00     0.028 A 
HETATM   20  C   UNL     1      43.116 -14.179   2.766  1.00  0.00     0.016 A 
HETATM   21  C   UNL     1      43.154 -16.239   4.013  1.00  0.00     0.063 A 
HETATM   22  C   UNL     1      43.132 -14.931   1.586  1.00  0.00     0.001 A 
HETATM   23  C   UNL     1      43.160 -16.324   1.628  1.00  0.00     0.002 A 
HETATM   24  C   UNL     1      43.172 -17.011   2.847  1.00  0.00     0.032 A 
HETATM   25  N   UNL     1      43.158 -16.592   5.333  1.00  0.00    -0.277 N 
HETATM   26  H   UNL     1      43.178 -17.532   5.715  1.00  0.00     0.189 HD
HETATM   27  N   UNL     1      43.135 -15.554   6.190  1.00  0.00    -0.168 NA
ENDBRANCH   1  18
TORSDOF 4
ENDMDL
MODEL 6
REMARK VINA RESULT:      -7.8      5.629      8.865
REMARK  4 active torsions:
REMARK  status: ('A' for Active; 'I' for Inactive)
REMARK    1  A    between atoms: C_8  and  C_9 
REMARK       I    between atoms: C_9  and  N_10 
REMARK    2  A    between atoms: N_10  and  C_11 
REMARK    3  A    between atoms: C_13  and  C_14 
REMARK       I    between atoms: C_14  and  N_15 
REMARK    4  A    between atoms: N_15  and  C_16 
ROOT
HETATM    1  C   UNL     1      44.366 -11.164   7.978  1.00  0.00     0.277 C 
HETATM    2  N   UNL     1      43.261 -11.436   7.190  1.00  0.00    -0.322 N 
HETATM    3  O   UNL     1      45.530 -11.448   7.711  1.00  0.00    -0.266 OA
HETATM    4  H   UNL     1      42.382 -11.163   7.625  1.00  0.00     0.169 HD
ENDROOT
BRANCH   2   5
HETATM    5  C   UNL     1      43.218 -12.034   5.920  1.00  0.00     0.036 A 
HETATM    6  C   UNL     1      42.880 -13.374   5.709  1.00  0.00     0.046 A 
HETATM    7  C   UNL     1      42.852 -13.903   4.411  1.00  0.00     0.034 A 
HETATM    8  C   UNL     1      43.196 -13.094   3.322  1.00  0.00     0.017 A 
HETATM    9  C   UNL     1      43.543 -11.760   3.528  1.00  0.00     0.003 A 
HETATM   10  C   UNL     1      43.552 -11.234   4.821  1.00  0.00     0.029 A 
BRANCH   7  11
HETATM   11  C   UNL     1      42.503 -15.330   4.150  1.00  0.00     0.252 C 
HETATM   12  N   UNL     1      43.499 -16.258   4.392  1.00  0.00    -0.352 N 
HETATM   13  H   UNL     1      44.369 -15.961   4.817  1.00  0.00     0.163 HD
HETATM   14  O   UNL     1      41.375 -15.621   3.770  1.00  0.00    -0.268 OA
BRANCH  12  15
HETATM   15  C   UNL     1      43.322 -17.654   4.144  1.00  0.00     0.084 A 
HETATM   16  C   UNL     1      43.682 -18.231   2.804  1.00  0.00     0.027 A 
HETATM   17  C   UNL     1      44.509 -18.566   4.009  1.00  0.00     0.027 A 
ENDBRANCH  12  15
ENDBRANCH   7  11
ENDBRANCH   2   5
BRANCH   1  18
HETATM   18  C   UNL     1      43.989 -10.485   9.231  1.00  0.00     0.157 A 
HETATM   19  C   UNL     1      43.644  -9.112   9.404  1.00  0.00     0.028 A 
HETATM   20  C   UNL     1      43.539  -7.978   8.575  1.00  0.00     0.016 A 
HETATM   21  C   UNL     1      43.359  -8.979  10.758  1.00  0.00     0.063 A 
HETATM   22  C   UNL     1      43.152  -6.757   9.138  1.00  0.00     0.001 A 
HETATM   23  C   UNL     1      42.871  -6.657  10.500  1.00  0.00     0.002 A 
HETATM   24  C   UNL     1      42.968  -7.770  11.342  1.00  0.00     0.032 A 
HETATM   25  N   UNL     1      43.547 -10.224  11.291  1.00  0.00    -0.277 N 
HETATM   26  H   UNL     1      43.425 -10.500  12.259  1.00  0.00     0.189 HD
HETATM   27  N   UNL     1      43.932 -11.159  10.403  1.00  0.00    -0.168 NA
ENDBRANCH   1  18
TORSDOF 4
ENDMDL
MODEL 7
REMARK VINA RESULT:      -7.7      2.735      3.758
REMARK  4 active torsions:
REMARK  status: ('A' for Active; 'I' for Inactive)
REMARK    1  A    between atoms: C_8  and  C_9 
REMARK       I    between atoms: C_9  and  N_10 
REMARK    2  A    between atoms: N_10  and  C_11 
REMARK    3  A    between atoms: C_13  and  C_14 
REMARK       I    between atoms: C_14  and  N_15 
REMARK    4  A    between atoms: N_15  and  C_16 
ROOT
HETATM    1  C   UNL     1      41.076 -14.649   2.760  1.00  0.00     0.277 C 
HETATM    2  N   UNL     1      41.481 -14.499   1.445  1.00  0.00    -0.322 N 
HETATM    3  O   UNL     1      40.029 -14.229   3.244  1.00  0.00    -0.266 OA
HETATM    4  H   UNL     1      42.410 -14.877   1.267  1.00  0.00     0.169 HD
ENDROOT
BRANCH   2   5
HETATM    5  C   UNL     1      40.791 -13.897   0.380  1.00  0.00     0.036 A 
HETATM    6  C   UNL     1      40.914 -12.545   0.048  1.00  0.00     0.046 A 
HETATM    7  C   UNL     1      40.198 -12.012  -1.034  1.00  0.00     0.034 A 
HETATM    8  C   UNL     1      39.331 -12.831  -1.765  1.00  0.00     0.017 A 
HETATM    9  C   UNL     1      39.198 -14.177  -1.432  1.00  0.00     0.003 A 
HETATM   10  C   UNL     1      39.926 -14.706  -0.365  1.00  0.00     0.029 A 
BRANCH   7  11
HETATM   11  C   UNL     1      40.299 -10.572  -1.411  1.00  0.00     0.252 C 
HETATM   12  N   UNL     1      41.577 -10.060  -1.538  1.00  0.00    -0.352 N 
HETATM   13  H   UNL     1      42.375 -10.680  -1.471  1.00  0.00     0.163 HD
HETATM   14  O   UNL     1      39.279  -9.924  -1.614  1.00  0.00    -0.268 OA
BRANCH  12  15
HETATM   15  C   UNL     1      41.824  -8.688  -1.849  1.00  0.00     0.084 A 
HETATM   16  C   UNL     1      41.972  -7.680  -0.744  1.00  0.00     0.027 A 
HETATM   17  C   UNL     1      43.164  -8.066  -1.568  1.00  0.00     0.027 A 
ENDBRANCH  12  15
ENDBRANCH   7  11
ENDBRANCH   2   5
BRANCH   1  18
HETATM   18  C   UNL     1      42.076 -15.381   3.560  1.00  0.00     0.157 A 
HETATM   19  C   UNL     1      42.625 -16.669   3.293  1.00  0.00     0.028 A 
HETATM   20  C   UNL     1      42.467 -17.656   2.301  1.00  0.00     0.016 A 
HETATM   21  C   UNL     1      43.526 -16.898   4.327  1.00  0.00     0.063 A 
HETATM   22  C   UNL     1      43.219 -18.834   2.387  1.00  0.00     0.001 A 
HETATM   23  C   UNL     1      44.115 -19.033   3.436  1.00  0.00     0.002 A 
HETATM   24  C   UNL     1      44.289 -18.066   4.432  1.00  0.00     0.032 A 
HETATM   25  N   UNL     1      43.459 -15.785   5.117  1.00  0.00    -0.277 N 
HETATM   26  H   UNL     1      43.986 -15.604   5.965  1.00  0.00     0.189 HD
HETATM   27  N   UNL     1      42.592 -14.848   4.691  1.00  0.00    -0.168 NA
ENDBRANCH   1  18
TORSDOF 4
ENDMDL
MODEL 8
REMARK VINA RESULT:      -7.4      4.115      5.961
REMARK  4 active torsions:
REMARK  status: ('A' for Active; 'I' for Inactive)
REMARK    1  A    between atoms: C_8  and  C_9 
REMARK       I    between atoms: C_9  and  N_10 
REMARK    2  A    between atoms: N_10  and  C_11 
REMARK    3  A    between atoms: C_13  and  C_14 
REMARK       I    between atoms: C_14  and  N_15 
REMARK    4  A    between atoms: N_15  and  C_16 
ROOT
HETATM    1  C   UNL     1      42.887 -11.914   5.019  1.00  0.00     0.277 C 
HETATM    2  N   UNL     1      43.069 -13.012   4.197  1.00  0.00    -0.322 N 
HETATM    3  O   UNL     1      41.826 -11.333   5.222  1.00  0.00    -0.266 OA
HETATM    4  H   UNL     1      44.042 -13.304   4.128  1.00  0.00     0.169 HD
ENDROOT
BRANCH   2   5
HETATM    5  C   UNL     1      42.105 -13.728   3.468  1.00  0.00     0.036 A 
HETATM    6  C   UNL     1      41.479 -13.231   2.321  1.00  0.00     0.046 A 
HETATM    7  C   UNL     1      40.529 -14.004   1.639  1.00  0.00     0.034 A 
HETATM    8  C   UNL     1      40.182 -15.268   2.127  1.00  0.00     0.017 A 
HETATM    9  C   UNL     1      40.795 -15.765   3.275  1.00  0.00     0.003 A 
HETATM   10  C   UNL     1      41.753 -14.997   3.940  1.00  0.00     0.029 A 
BRANCH   7  11
HETATM   11  C   UNL     1      39.836 -13.502   0.417  1.00  0.00     0.252 C 
HETATM   12  N   UNL     1      39.455 -14.456  -0.507  1.00  0.00    -0.352 N 
HETATM   13  H   UNL     1      39.564 -15.439  -0.289  1.00  0.00     0.163 HD
HETATM   14  O   UNL     1      39.614 -12.302   0.294  1.00  0.00    -0.268 OA
BRANCH  12  15
HETATM   15  C   UNL     1      38.823 -14.116  -1.743  1.00  0.00     0.084 A 
HETATM   16  C   UNL     1      39.643 -13.989  -2.996  1.00  0.00     0.027 A 
HETATM   17  C   UNL     1      38.688 -15.134  -2.841  1.00  0.00     0.027 A 
ENDBRANCH  12  15
ENDBRANCH   7  11
ENDBRANCH   2   5
BRANCH   1  18
HETATM   18  C   UNL     1      44.153 -11.481   5.640  1.00  0.00     0.157 A 
HETATM   19  C   UNL     1      44.355 -11.038   6.980  1.00  0.00     0.028 A 
HETATM   20  C   UNL     1      43.548 -10.842   8.118  1.00  0.00     0.016 A 
HETATM   21  C   UNL     1      45.715 -10.764   7.069  1.00  0.00     0.063 A 
HETATM   22  C   UNL     1      44.140 -10.380   9.299  1.00  0.00     0.001 A 
HETATM   23  C   UNL     1      45.507 -10.116   9.356  1.00  0.00     0.002 A 
HETATM   24  C   UNL     1      46.328 -10.303   8.239  1.00  0.00     0.032 A 
HETATM   25  N   UNL     1      46.221 -11.043   5.830  1.00  0.00    -0.277 N 
HETATM   26  H   UNL     1      47.187 -10.960   5.531  1.00  0.00     0.189 HD
HETATM   27  N   UNL     1      45.310 -11.474   4.938  1.00  0.00    -0.168 NA
ENDBRANCH   1  18
TORSDOF 4
ENDMDL
MODEL 9
REMARK VINA RESULT:      -7.4      2.927      5.316
REMARK  4 active torsions:
REMARK  status: ('A' for Active; 'I' for Inactive)
REMARK    1  A    between atoms: C_8  and  C_9 
REMARK       I    between atoms: C_9  and  N_10 
REMARK    2  A    between atoms: N_10  and  C_11 
REMARK    3  A    between atoms: C_13  and  C_14 
REMARK       I    between atoms: C_14  and  N_15 
REMARK    4  A    between atoms: N_15  and  C_16 
ROOT
HETATM    1  C   UNL     1      42.651 -14.782   4.462  1.00  0.00     0.277 C 
HETATM    2  N   UNL     1      41.293 -14.653   4.700  1.00  0.00    -0.322 N 
HETATM    3  O   UNL     1      43.377 -13.933   3.955  1.00  0.00    -0.266 OA
HETATM    4  H   UNL     1      40.872 -15.499   5.080  1.00  0.00     0.169 HD
ENDROOT
BRANCH   2   5
HETATM    5  C   UNL     1      40.466 -13.542   4.471  1.00  0.00     0.036 A 
HETATM    6  C   UNL     1      40.111 -12.626   5.466  1.00  0.00     0.046 A 
HETATM    7  C   UNL     1      39.284 -11.534   5.164  1.00  0.00     0.034 A 
HETATM    8  C   UNL     1      38.787 -11.377   3.865  1.00  0.00     0.017 A 
HETATM    9  C   UNL     1      39.131 -12.292   2.872  1.00  0.00     0.003 A 
HETATM   10  C   UNL     1      39.968 -13.368   3.175  1.00  0.00     0.029 A 
BRANCH   7  11
HETATM   11  C   UNL     1      38.879 -10.544   6.202  1.00  0.00     0.252 C 
HETATM   12  N   UNL     1      39.752 -10.373   7.260  1.00  0.00    -0.352 N 
HETATM   13  H   UNL     1      40.653 -10.834   7.247  1.00  0.00     0.163 HD
HETATM   14  O   UNL     1      37.832  -9.918   6.070  1.00  0.00    -0.268 OA
BRANCH  12  15
HETATM   15  C   UNL     1      39.471  -9.491   8.349  1.00  0.00     0.084 A 
HETATM   16  C   UNL     1      39.046 -10.050   9.678  1.00  0.00     0.027 A 
HETATM   17  C   UNL     1      40.397  -9.415   9.532  1.00  0.00     0.027 A 
ENDBRANCH  12  15
ENDBRANCH   7  11
ENDBRANCH   2   5
BRANCH   1  18
HETATM   18  C   UNL     1      43.156 -16.102   4.883  1.00  0.00     0.157 A 
HETATM   19  C   UNL     1      43.284 -17.276   4.085  1.00  0.00     0.028 A 
HETATM   20  C   UNL     1      43.013 -17.632   2.750  1.00  0.00     0.016 A 
HETATM   21  C   UNL     1      43.818 -18.236   4.938  1.00  0.00     0.063 A 
HETATM   22  C   UNL     1      43.290 -18.936   2.324  1.00  0.00     0.001 A 
HETATM   23  C   UNL     1      43.827 -19.875   3.203  1.00  0.00     0.002 A 
HETATM   24  C   UNL     1      44.104 -19.544   4.534  1.00  0.00     0.032 A 
HETATM   25  N   UNL     1      43.965 -17.607   6.142  1.00  0.00    -0.277 N 
HETATM   26  H   UNL     1      44.332 -18.005   7.000  1.00  0.00     0.189 HD
HETATM   27  N   UNL     1      43.573 -16.319   6.152  1.00  0.00    -0.168 NA
ENDBRANCH   1  18
TORSDOF 4
ENDMDL
MODEL 10
REMARK VINA RESULT:      -7.4      4.272      7.789
REMARK  4 active torsions:
REMARK  status: ('A' for Active; 'I' for Inactive)
REMARK    1  A    between atoms: C_8  and  C_9 
REMARK       I    between atoms: C_9  and  N_10 
REMARK    2  A    between atoms: N_10  and  C_11 
REMARK    3  A    between atoms: C_13  and  C_14 
REMARK       I    between atoms: C_14  and  N_15 
REMARK    4  A    between atoms: N_15  and  C_16 
ROOT
HETATM    1  C   UNL     1      41.742 -12.035   5.883  1.00  0.00     0.277 C 
HETATM    2  N   UNL     1      42.632 -12.441   4.904  1.00  0.00    -0.322 N 
HETATM    3  O   UNL     1      40.665 -12.563   6.142  1.00  0.00    -0.266 OA
HETATM    4  H   UNL     1      43.441 -11.828   4.820  1.00  0.00     0.169 HD
ENDROOT
BRANCH   2   5
HETATM    5  C   UNL     1      42.540 -13.545   4.041  1.00  0.00     0.036 A 
HETATM    6  C   UNL     1      43.106 -14.792   4.321  1.00  0.00     0.046 A 
HETATM    7  C   UNL     1      42.969 -15.854   3.415  1.00  0.00     0.034 A 
HETATM    8  C   UNL     1      42.289 -15.654   2.208  1.00  0.00     0.017 A 
HETATM    9  C   UNL     1      41.732 -14.410   1.920  1.00  0.00     0.003 A 
HETATM   10  C   UNL     1      41.856 -13.362   2.834  1.00  0.00     0.029 A 
BRANCH   7  11
HETATM   11  C   UNL     1      43.567 -17.194   3.678  1.00  0.00     0.252 C 
HETATM   12  N   UNL     1      43.666 -18.045   2.592  1.00  0.00    -0.352 N 
HETATM   13  H   UNL     1      43.430 -17.707   1.667  1.00  0.00     0.163 HD
HETATM   14  O   UNL     1      43.961 -17.475   4.805  1.00  0.00    -0.268 OA
BRANCH  12  15
HETATM   15  C   UNL     1      44.176 -19.375   2.705  1.00  0.00     0.084 A 
HETATM   16  C   UNL     1      43.290 -20.479   3.210  1.00  0.00     0.027 A 
HETATM   17  C   UNL     1      43.711 -20.457   1.771  1.00  0.00     0.027 A 
ENDBRANCH  12  15
ENDBRANCH   7  11
ENDBRANCH   2   5
BRANCH   1  18
HETATM   18  C   UNL     1      42.228 -10.843   6.603  1.00  0.00     0.157 A 
HETATM   19  C   UNL     1      43.522 -10.638   7.165  1.00  0.00     0.028 A 
HETATM   20  C   UNL     1      44.715 -11.380   7.267  1.00  0.00     0.016 A 
HETATM   21  C   UNL     1      43.479  -9.362   7.715  1.00  0.00     0.063 A 
HETATM   22  C   UNL     1      45.817 -10.810   7.916  1.00  0.00     0.001 A 
HETATM   23  C   UNL     1      45.741  -9.527   8.456  1.00  0.00     0.002 A 
HETATM   24  C   UNL     1      44.567  -8.772   8.367  1.00  0.00     0.032 A 
HETATM   25  N   UNL     1      42.216  -8.904   7.465  1.00  0.00    -0.277 N 
HETATM   26  H   UNL     1      41.830  -8.002   7.723  1.00  0.00     0.189 HD
HETATM   27  N   UNL     1      41.428  -9.770   6.800  1.00  0.00    -0.168 NA
ENDBRANCH   1  18
TORSDOF 4
ENDMDL
