MODEL 1
REMARK VINA RESULT:     -10.7      0.000      0.000
REMARK  6 active torsions:
REMARK  status: ('A' for Active; 'I' for Inactive)
REMARK    1  A    between atoms: C_2  and  O_3 
REMARK    2  A    between atoms: O_3  and  C_4 
REMARK    3  A    between atoms: C_5  and  C_6 
REMARK       I    between atoms: C_6  and  N_7 
REMARK    4  A    between atoms: N_7  and  C_8 
REMARK    5  A    between atoms: N_9  and  C_10 
REMARK    6  A    between atoms: C_21  and  C_22 
ROOT
HETATM    1  C   UNL     1      40.838 -14.770   1.605  1.00  0.00     0.152 A 
HETATM    2  N   UNL     1      40.623 -13.400   1.632  1.00  0.00    -0.044 N 
HETATM    3  N   UNL     1      39.931 -12.958   0.539  1.00  0.00    -0.148 NA
HETATM    4  C   UNL     1      39.719 -14.071  -0.177  1.00  0.00     0.115 A 
HETATM    5  C   UNL     1      40.288 -15.213   0.425  1.00  0.00     0.087 A 
ENDROOT
BRANCH   1   6
HETATM    6  N   UNL     1      41.463 -15.432   2.649  1.00  0.00    -0.307 N 
HETATM    7  C   UNL     1      42.822 -15.651   2.711  1.00  0.00     0.261 C 
HETATM    8  O   UNL     1      43.693 -15.156   2.007  1.00  0.00    -0.267 OA
HETATM    9  H   UNL     1      40.864 -15.835   3.373  1.00  0.00     0.170 HD
BRANCH   7  10
HETATM   10  C   UNL     1      43.195 -16.592   3.792  1.00  0.00     0.076 A 
HETATM   11  C   UNL     1      43.424 -16.053   5.072  1.00  0.00     0.085 A 
HETATM   12  C   UNL     1      43.827 -16.908   6.095  1.00  0.00     0.039 A 
HETATM   13  C   UNL     1      44.004 -18.271   5.842  1.00  0.00     0.015 A 
HETATM   14  C   UNL     1      43.785 -18.812   4.565  1.00  0.00    -0.025 A 
HETATM   15  C   UNL     1      43.363 -17.971   3.509  1.00  0.00    -0.007 A 
HETATM   16  C   UNL     1      43.988 -20.182   4.330  1.00  0.00     0.012 A 
HETATM   17  C   UNL     1      43.151 -18.555   2.237  1.00  0.00     0.013 A 
HETATM   18  C   UNL     1      43.360 -19.918   2.019  1.00  0.00     0.001 A 
HETATM   19  C   UNL     1      43.779 -20.730   3.065  1.00  0.00     0.001 A 
BRANCH  11  20
HETATM   20  O   UNL     1      43.259 -14.701   5.207  1.00  0.00    -0.350 OA
BRANCH  20  21
HETATM   21  C   UNL     1      42.512 -14.218   6.320  1.00  0.00     0.171 C 
HETATM   22  C   UNL     1      41.042 -14.259   5.942  1.00  0.00     0.034 C 
ENDBRANCH  20  21
ENDBRANCH  11  20
ENDBRANCH   7  10
ENDBRANCH   1   6
BRANCH   2  23
HETATM   23  C   UNL     1      41.023 -12.484   2.625  1.00  0.00     0.732 A 
HETATM   24  N   UNL     1      40.186 -11.899   3.432  1.00  0.00    -0.067 NA
HETATM   25  C   UNL     1      40.774 -11.056   4.330  1.00  0.00     0.065 A 
HETATM   26  C   UNL     1      42.080 -10.799   4.427  1.00  0.00     0.036 A 
HETATM   27  C   UNL     1      39.995 -10.296   5.351  1.00  0.00     0.061 C 
HETATM   28  C   UNL     1      42.416  -9.843   5.505  1.00  0.00     0.047 C 
HETATM   29  C   UNL     1      43.006 -11.459   3.507  1.00  0.00     0.268 A 
HETATM   30  C   UNL     1      41.096  -9.776   6.287  1.00  0.00     0.011 C 
HETATM   31  O   UNL     1      44.213 -11.268   3.536  1.00  0.00    -0.267 OA
HETATM   32  N   UNL     1      42.387 -12.299   2.625  1.00  0.00    -0.152 N 
HETATM   33  H   UNL     1      42.950 -12.805   1.949  1.00  0.00     0.188 HD
ENDBRANCH   2  23
BRANCH   4  34
HETATM   34  C   UNL     1      38.941 -14.075  -1.449  1.00  0.00     0.105 A 
HETATM   35  O   UNL     1      37.924 -13.208  -1.739  1.00  0.00    -0.320 OA
HETATM   36  C   UNL     1      37.480 -13.506  -2.987  1.00  0.00     0.142 A 
HETATM   37  C   UNL     1      38.193 -14.554  -3.514  1.00  0.00     0.027 A 
HETATM   38  C   UNL     1      39.135 -14.925  -2.523  1.00  0.00     0.041 A 
ENDBRANCH   4  34
TORSDOF 6
ENDMDL
MODEL 2
REMARK VINA RESULT:     -10.3      1.147      1.699
REMARK  6 active torsions:
REMARK  status: ('A' for Active; 'I' for Inactive)
REMARK    1  A    between atoms: C_2  and  O_3 
REMARK    2  A    between atoms: O_3  and  C_4 
REMARK    3  A    between atoms: C_5  and  C_6 
REMARK       I    between atoms: C_6  and  N_7 
REMARK    4  A    between atoms: N_7  and  C_8 
REMARK    5  A    between atoms: N_9  and  C_10 
REMARK    6  A    between atoms: C_21  and  C_22 
ROOT
HETATM    1  C   UNL     1      40.748 -14.760   1.707  1.00  0.00     0.152 A 
HETATM    2  N   UNL     1      40.261 -13.471   1.868  1.00  0.00    -0.044 N 
HETATM    3  N   UNL     1      39.572 -13.031   0.773  1.00  0.00    -0.148 NA
HETATM    4  C   UNL     1      39.637 -14.062  -0.081  1.00  0.00     0.115 A 
HETATM    5  C   UNL     1      40.381 -15.143   0.438  1.00  0.00     0.087 A 
ENDROOT
BRANCH   1   6
HETATM    6  N   UNL     1      41.419 -15.420   2.722  1.00  0.00    -0.307 N 
HETATM    7  C   UNL     1      42.763 -15.723   2.680  1.00  0.00     0.261 C 
HETATM    8  O   UNL     1      43.598 -15.311   1.885  1.00  0.00    -0.267 OA
HETATM    9  H   UNL     1      40.862 -15.756   3.511  1.00  0.00     0.170 HD
BRANCH   7  10
HETATM   10  C   UNL     1      43.170 -16.644   3.766  1.00  0.00     0.076 A 
HETATM   11  C   UNL     1      43.401 -16.087   5.038  1.00  0.00     0.085 A 
HETATM   12  C   UNL     1      43.835 -16.921   6.064  1.00  0.00     0.039 A 
HETATM   13  C   UNL     1      44.042 -18.282   5.822  1.00  0.00     0.015 A 
HETATM   14  C   UNL     1      43.821 -18.841   4.553  1.00  0.00    -0.025 A 
HETATM   15  C   UNL     1      43.369 -18.021   3.494  1.00  0.00    -0.007 A 
HETATM   16  C   UNL     1      44.055 -20.208   4.329  1.00  0.00     0.012 A 
HETATM   17  C   UNL     1      43.156 -18.622   2.231  1.00  0.00     0.013 A 
HETATM   18  C   UNL     1      43.395 -19.983   2.024  1.00  0.00     0.001 A 
HETATM   19  C   UNL     1      43.845 -20.774   3.072  1.00  0.00     0.001 A 
BRANCH  11  20
HETATM   20  O   UNL     1      43.205 -14.738   5.161  1.00  0.00    -0.350 OA
BRANCH  20  21
HETATM   21  C   UNL     1      43.347 -14.148   6.450  1.00  0.00     0.171 C 
HETATM   22  C   UNL     1      43.893 -12.745   6.257  1.00  0.00     0.034 C 
ENDBRANCH  20  21
ENDBRANCH  11  20
ENDBRANCH   7  10
ENDBRANCH   1   6
BRANCH   2  23
HETATM   23  C   UNL     1      40.400 -12.633   2.992  1.00  0.00     0.732 A 
HETATM   24  N   UNL     1      41.160 -11.576   3.001  1.00  0.00    -0.067 NA
HETATM   25  C   UNL     1      41.149 -10.891   4.181  1.00  0.00     0.065 A 
HETATM   26  C   UNL     1      40.453 -11.218   5.272  1.00  0.00     0.036 A 
HETATM   27  C   UNL     1      41.941  -9.645   4.398  1.00  0.00     0.061 C 
HETATM   28  C   UNL     1      40.641 -10.276   6.398  1.00  0.00     0.047 C 
HETATM   29  C   UNL     1      39.609 -12.413   5.248  1.00  0.00     0.268 A 
HETATM   30  C   UNL     1      41.355  -9.104   5.710  1.00  0.00     0.011 C 
HETATM   31  O   UNL     1      38.949 -12.774   6.211  1.00  0.00    -0.267 OA
HETATM   32  N   UNL     1      39.639 -13.072   4.051  1.00  0.00    -0.152 N 
HETATM   33  H   UNL     1      39.082 -13.913   3.939  1.00  0.00     0.188 HD
ENDBRANCH   2  23
BRANCH   4  34
HETATM   34  C   UNL     1      38.966 -14.049  -1.413  1.00  0.00     0.105 A 
HETATM   35  O   UNL     1      39.087 -15.037  -2.352  1.00  0.00    -0.320 OA
HETATM   36  C   UNL     1      38.320 -14.683  -3.414  1.00  0.00     0.142 A 
HETATM   37  C   UNL     1      37.701 -13.479  -3.181  1.00  0.00     0.027 A 
HETATM   38  C   UNL     1      38.119 -13.067  -1.892  1.00  0.00     0.041 A 
ENDBRANCH   4  34
TORSDOF 6
ENDMDL
MODEL 3
REMARK VINA RESULT:      -9.7      2.071      6.734
REMARK  6 active torsions:
REMARK  status: ('A' for Active; 'I' for Inactive)
REMARK    1  A    between atoms: C_2  and  O_3 
REMARK    2  A    between atoms: O_3  and  C_4 
REMARK    3  A    between atoms: C_5  and  C_6 
REMARK       I    between atoms: C_6  and  N_7 
REMARK    4  A    between atoms: N_7  and  C_8 
REMARK    5  A    between atoms: N_9  and  C_10 
REMARK    6  A    between atoms: C_21  and  C_22 
ROOT
HETATM    1  C   UNL     1      42.406 -15.618   2.313  1.00  0.00     0.152 A 
HETATM    2  N   UNL     1      42.487 -15.427   3.684  1.00  0.00    -0.044 N 
HETATM    3  N   UNL     1      42.890 -16.553   4.346  1.00  0.00    -0.148 NA
HETATM    4  C   UNL     1      43.057 -17.455   3.370  1.00  0.00     0.115 A 
HETATM    5  C   UNL     1      42.739 -16.935   2.098  1.00  0.00     0.087 A 
ENDROOT
BRANCH   1   6
HETATM    6  N   UNL     1      42.078 -14.586   1.450  1.00  0.00    -0.307 N 
HETATM    7  C   UNL     1      40.807 -14.069   1.322  1.00  0.00     0.261 C 
HETATM    8  O   UNL     1      39.841 -14.271   2.047  1.00  0.00    -0.267 OA
HETATM    9  H   UNL     1      42.814 -14.243   0.829  1.00  0.00     0.170 HD
BRANCH   7  10
HETATM   10  C   UNL     1      40.680 -13.158   0.162  1.00  0.00     0.076 A 
HETATM   11  C   UNL     1      41.208 -11.860   0.295  1.00  0.00     0.085 A 
HETATM   12  C   UNL     1      41.056 -10.965  -0.762  1.00  0.00     0.039 A 
HETATM   13  C   UNL     1      40.384 -11.357  -1.923  1.00  0.00     0.015 A 
HETATM   14  C   UNL     1      39.848 -12.648  -2.057  1.00  0.00    -0.025 A 
HETATM   15  C   UNL     1      39.997 -13.583  -1.005  1.00  0.00    -0.007 A 
HETATM   16  C   UNL     1      39.160 -13.014  -3.225  1.00  0.00     0.012 A 
HETATM   17  C   UNL     1      39.445 -14.874  -1.179  1.00  0.00     0.013 A 
HETATM   18  C   UNL     1      38.761 -15.221  -2.347  1.00  0.00     0.001 A 
HETATM   19  C   UNL     1      38.618 -14.291  -3.367  1.00  0.00     0.001 A 
BRANCH  11  20
HETATM   20  O   UNL     1      41.815 -11.563   1.485  1.00  0.00    -0.350 OA
BRANCH  20  21
HETATM   21  C   UNL     1      41.425 -10.374   2.166  1.00  0.00     0.171 C 
HETATM   22  C   UNL     1      40.084 -10.641   2.826  1.00  0.00     0.034 C 
ENDBRANCH  20  21
ENDBRANCH  11  20
ENDBRANCH   7  10
ENDBRANCH   1   6
BRANCH   2  23
HETATM   23  C   UNL     1      42.215 -14.249   4.408  1.00  0.00     0.732 A 
HETATM   24  N   UNL     1      43.033 -13.237   4.453  1.00  0.00    -0.067 NA
HETATM   25  C   UNL     1      42.579 -12.187   5.198  1.00  0.00     0.065 A 
HETATM   26  C   UNL     1      41.419 -12.133   5.854  1.00  0.00     0.036 A 
HETATM   27  C   UNL     1      43.358 -10.926   5.370  1.00  0.00     0.061 C 
HETATM   28  C   UNL     1      41.203 -10.856   6.571  1.00  0.00     0.047 C 
HETATM   29  C   UNL     1      40.515 -13.282   5.799  1.00  0.00     0.268 A 
HETATM   30  C   UNL     1      42.320  -9.978   5.989  1.00  0.00     0.011 C 
HETATM   31  O   UNL     1      39.439 -13.303   6.378  1.00  0.00    -0.267 OA
HETATM   32  N   UNL     1      40.995 -14.313   5.042  1.00  0.00    -0.152 N 
HETATM   33  H   UNL     1      40.434 -15.153   4.943  1.00  0.00     0.188 HD
ENDBRANCH   2  23
BRANCH   4  34
HETATM   34  C   UNL     1      43.549 -18.839   3.627  1.00  0.00     0.105 A 
HETATM   35  O   UNL     1      43.997 -19.290   4.838  1.00  0.00    -0.320 OA
HETATM   36  C   UNL     1      44.337 -20.596   4.684  1.00  0.00     0.142 A 
HETATM   37  C   UNL     1      44.118 -21.001   3.390  1.00  0.00     0.027 A 
HETATM   38  C   UNL     1      43.612 -19.869   2.706  1.00  0.00     0.041 A 
ENDBRANCH   4  34
TORSDOF 6
ENDMDL
MODEL 4
REMARK VINA RESULT:      -9.6      2.900      6.784
REMARK  6 active torsions:
REMARK  status: ('A' for Active; 'I' for Inactive)
REMARK    1  A    between atoms: C_2  and  O_3 
REMARK    2  A    between atoms: O_3  and  C_4 
REMARK    3  A    between atoms: C_5  and  C_6 
REMARK       I    between atoms: C_6  and  N_7 
REMARK    4  A    between atoms: N_7  and  C_8 
REMARK    5  A    between atoms: N_9  and  C_10 
REMARK    6  A    between atoms: C_21  and  C_22 
ROOT
HETATM    1  C   UNL     1      43.341 -12.421   5.860  1.00  0.00     0.152 A 
HETATM    2  N   UNL     1      42.634 -11.241   5.684  1.00  0.00    -0.044 N 
HETATM    3  N   UNL     1      42.788 -10.377   6.732  1.00  0.00    -0.148 NA
HETATM    4  C   UNL     1      43.601 -11.035   7.571  1.00  0.00     0.115 A 
HETATM    5  C   UNL     1      43.945 -12.316   7.091  1.00  0.00     0.087 A 
ENDROOT
BRANCH   1   6
HETATM    6  N   UNL     1      43.373 -13.405   4.887  1.00  0.00    -0.307 N 
HETATM    7  C   UNL     1      42.400 -14.371   4.743  1.00  0.00     0.261 C 
HETATM    8  O   UNL     1      41.299 -14.410   5.279  1.00  0.00    -0.267 OA
HETATM    9  H   UNL     1      44.203 -13.450   4.292  1.00  0.00     0.170 HD
BRANCH   7  10
HETATM   10  C   UNL     1      42.799 -15.441   3.800  1.00  0.00     0.076 A 
HETATM   11  C   UNL     1      42.698 -15.164   2.424  1.00  0.00     0.085 A 
HETATM   12  C   UNL     1      43.017 -16.170   1.515  1.00  0.00     0.039 A 
HETATM   13  C   UNL     1      43.420 -17.428   1.972  1.00  0.00     0.015 A 
HETATM   14  C   UNL     1      43.514 -17.711   3.344  1.00  0.00    -0.025 A 
HETATM   15  C   UNL     1      43.208 -16.706   4.291  1.00  0.00    -0.007 A 
HETATM   16  C   UNL     1      43.902 -18.989   3.781  1.00  0.00     0.012 A 
HETATM   17  C   UNL     1      43.316 -17.031   5.665  1.00  0.00     0.013 A 
HETATM   18  C   UNL     1      43.702 -18.306   6.082  1.00  0.00     0.001 A 
HETATM   19  C   UNL     1      43.993 -19.284   5.140  1.00  0.00     0.001 A 
BRANCH  11  20
HETATM   20  O   UNL     1      42.259 -13.915   2.080  1.00  0.00    -0.350 OA
BRANCH  20  21
HETATM   21  C   UNL     1      41.168 -13.807   1.170  1.00  0.00     0.171 C 
HETATM   22  C   UNL     1      39.886 -13.831   1.982  1.00  0.00     0.034 C 
ENDBRANCH  20  21
ENDBRANCH  11  20
ENDBRANCH   7  10
ENDBRANCH   1   6
BRANCH   2  23
HETATM   23  C   UNL     1      41.827 -10.875   4.589  1.00  0.00     0.732 A 
HETATM   24  N   UNL     1      42.287 -10.746   3.378  1.00  0.00    -0.067 NA
HETATM   25  C   UNL     1      41.343 -10.397   2.456  1.00  0.00     0.065 A 
HETATM   26  C   UNL     1      40.049 -10.183   2.701  1.00  0.00     0.036 A 
HETATM   27  C   UNL     1      41.659 -10.210   1.010  1.00  0.00     0.061 C 
HETATM   28  C   UNL     1      39.271  -9.823   1.495  1.00  0.00     0.047 C 
HETATM   29  C   UNL     1      39.549 -10.325   4.068  1.00  0.00     0.268 A 
HETATM   30  C   UNL     1      40.264 -10.152   0.371  1.00  0.00     0.011 C 
HETATM   31  O   UNL     1      38.378 -10.140   4.365  1.00  0.00    -0.267 OA
HETATM   32  N   UNL     1      40.518 -10.680   4.965  1.00  0.00    -0.152 N 
HETATM   33  H   UNL     1      40.264 -10.804   5.940  1.00  0.00     0.188 HD
ENDBRANCH   2  23
BRANCH   4  34
HETATM   34  C   UNL     1      44.091 -10.442   8.849  1.00  0.00     0.105 A 
HETATM   35  O   UNL     1      43.286 -10.075   9.892  1.00  0.00    -0.320 OA
HETATM   36  C   UNL     1      44.090  -9.600  10.878  1.00  0.00     0.142 A 
HETATM   37  C   UNL     1      45.407  -9.652  10.491  1.00  0.00     0.027 A 
HETATM   38  C   UNL     1      45.410 -10.192   9.181  1.00  0.00     0.041 A 
ENDBRANCH   4  34
TORSDOF 6
ENDMDL
MODEL 5
REMARK VINA RESULT:      -9.1      1.335      3.330
REMARK  6 active torsions:
REMARK  status: ('A' for Active; 'I' for Inactive)
REMARK    1  A    between atoms: C_2  and  O_3 
REMARK    2  A    between atoms: O_3  and  C_4 
REMARK    3  A    between atoms: C_5  and  C_6 
REMARK       I    between atoms: C_6  and  N_7 
REMARK    4  A    between atoms: N_7  and  C_8 
REMARK    5  A    between atoms: N_9  and  C_10 
REMARK    6  A    between atoms: C_21  and  C_22 
ROOT
HETATM    1  C   UNL     1      40.773 -14.692   1.811  1.00  0.00     0.152 A 
HETATM    2  N   UNL     1      40.359 -13.372   1.907  1.00  0.00    -0.044 N 
HETATM    3  N   UNL     1      39.678 -12.955   0.798  1.00  0.00    -0.148 NA
HETATM    4  C   UNL     1      39.675 -14.033   0.001  1.00  0.00     0.115 A 
HETATM    5  C   UNL     1      40.367 -15.123   0.569  1.00  0.00     0.087 A 
ENDROOT
BRANCH   1   6
HETATM    6  N   UNL     1      41.423 -15.332   2.852  1.00  0.00    -0.307 N 
HETATM    7  C   UNL     1      42.776 -15.592   2.866  1.00  0.00     0.261 C 
HETATM    8  O   UNL     1      43.630 -15.154   2.105  1.00  0.00    -0.267 OA
HETATM    9  H   UNL     1      40.845 -15.686   3.618  1.00  0.00     0.170 HD
BRANCH   7  10
HETATM   10  C   UNL     1      43.167 -16.501   3.967  1.00  0.00     0.076 A 
HETATM   11  C   UNL     1      43.463 -17.836   3.634  1.00  0.00     0.085 A 
HETATM   12  C   UNL     1      43.783 -18.725   4.656  1.00  0.00     0.039 A 
HETATM   13  C   UNL     1      43.800 -18.291   5.985  1.00  0.00     0.015 A 
HETATM   14  C   UNL     1      43.497 -16.962   6.324  1.00  0.00    -0.025 A 
HETATM   15  C   UNL     1      43.180 -16.033   5.306  1.00  0.00    -0.007 A 
HETATM   16  C   UNL     1      43.501 -16.553   7.668  1.00  0.00     0.012 A 
HETATM   17  C   UNL     1      42.883 -14.703   5.688  1.00  0.00     0.013 A 
HETATM   18  C   UNL     1      42.890 -14.313   7.028  1.00  0.00     0.001 A 
HETATM   19  C   UNL     1      43.197 -15.239   8.017  1.00  0.00     0.001 A 
BRANCH  11  20
HETATM   20  O   UNL     1      43.383 -18.169   2.309  1.00  0.00    -0.350 OA
BRANCH  20  21
HETATM   21  C   UNL     1      42.723 -19.381   1.954  1.00  0.00     0.171 C 
HETATM   22  C   UNL     1      43.792 -20.415   1.651  1.00  0.00     0.034 C 
ENDBRANCH  20  21
ENDBRANCH  11  20
ENDBRANCH   7  10
ENDBRANCH   1   6
BRANCH   2  23
HETATM   23  C   UNL     1      40.559 -12.482   2.981  1.00  0.00     0.732 A 
HETATM   24  N   UNL     1      41.719 -12.293   3.541  1.00  0.00    -0.067 NA
HETATM   25  C   UNL     1      41.706 -11.382   4.557  1.00  0.00     0.065 A 
HETATM   26  C   UNL     1      40.639 -10.712   4.997  1.00  0.00     0.036 A 
HETATM   27  C   UNL     1      42.932 -11.012   5.323  1.00  0.00     0.061 C 
HETATM   28  C   UNL     1      40.940  -9.788   6.113  1.00  0.00     0.047 C 
HETATM   29  C   UNL     1      39.341 -10.942   4.363  1.00  0.00     0.268 A 
HETATM   30  C   UNL     1      42.475  -9.766   6.096  1.00  0.00     0.011 C 
HETATM   31  O   UNL     1      38.323 -10.367   4.717  1.00  0.00    -0.267 OA
HETATM   32  N   UNL     1      39.390 -11.855   3.346  1.00  0.00    -0.152 N 
HETATM   33  H   UNL     1      38.536 -12.077   2.844  1.00  0.00     0.188 HD
ENDBRANCH   2  23
BRANCH   4  34
HETATM   34  C   UNL     1      38.986 -14.055  -1.322  1.00  0.00     0.105 A 
HETATM   35  O   UNL     1      37.938 -13.245  -1.664  1.00  0.00    -0.320 OA
HETATM   36  C   UNL     1      37.597 -13.541  -2.944  1.00  0.00     0.142 A 
HETATM   37  C   UNL     1      38.408 -14.533  -3.440  1.00  0.00     0.027 A 
HETATM   38  C   UNL     1      39.302 -14.868  -2.395  1.00  0.00     0.041 A 
ENDBRANCH   4  34
TORSDOF 6
ENDMDL
MODEL 6
REMARK VINA RESULT:      -9.0      2.005      7.066
REMARK  6 active torsions:
REMARK  status: ('A' for Active; 'I' for Inactive)
REMARK    1  A    between atoms: C_2  and  O_3 
REMARK    2  A    between atoms: O_3  and  C_4 
REMARK    3  A    between atoms: C_5  and  C_6 
REMARK       I    between atoms: C_6  and  N_7 
REMARK    4  A    between atoms: N_7  and  C_8 
REMARK    5  A    between atoms: N_9  and  C_10 
REMARK    6  A    between atoms: C_21  and  C_22 
ROOT
HETATM    1  C   UNL     1      42.625 -14.792   3.484  1.00  0.00     0.152 A 
HETATM    2  N   UNL     1      42.145 -15.109   2.222  1.00  0.00    -0.044 N 
HETATM    3  N   UNL     1      42.359 -16.418   1.894  1.00  0.00    -0.148 NA
HETATM    4  C   UNL     1      42.984 -16.919   2.969  1.00  0.00     0.115 A 
HETATM    5  C   UNL     1      43.200 -15.945   3.967  1.00  0.00     0.087 A 
ENDROOT
BRANCH   1   6
HETATM    6  N   UNL     1      42.454 -13.535   4.037  1.00  0.00    -0.307 N 
HETATM    7  C   UNL     1      41.425 -13.209   4.895  1.00  0.00     0.261 C 
HETATM    8  O   UNL     1      40.645 -13.971   5.451  1.00  0.00    -0.267 OA
HETATM    9  H   UNL     1      43.092 -12.797   3.730  1.00  0.00     0.170 HD
BRANCH   7  10
HETATM   10  C   UNL     1      41.329 -11.751   5.135  1.00  0.00     0.076 A 
HETATM   11  C   UNL     1      42.199 -11.191   6.089  1.00  0.00     0.085 A 
HETATM   12  C   UNL     1      42.094  -9.832   6.373  1.00  0.00     0.039 A 
HETATM   13  C   UNL     1      41.134  -9.051   5.723  1.00  0.00     0.015 A 
HETATM   14  C   UNL     1      40.258  -9.606   4.777  1.00  0.00    -0.025 A 
HETATM   15  C   UNL     1      40.348 -10.981   4.459  1.00  0.00    -0.007 A 
HETATM   16  C   UNL     1      39.288  -8.806   4.150  1.00  0.00     0.012 A 
HETATM   17  C   UNL     1      39.449 -11.503   3.499  1.00  0.00     0.013 A 
HETATM   18  C   UNL     1      38.489 -10.694   2.886  1.00  0.00     0.001 A 
HETATM   19  C   UNL     1      38.409  -9.347   3.214  1.00  0.00     0.001 A 
BRANCH  11  20
HETATM   20  O   UNL     1      43.077 -12.048   6.695  1.00  0.00    -0.350 OA
BRANCH  20  21
HETATM   21  C   UNL     1      44.104 -11.496   7.515  1.00  0.00     0.171 C 
HETATM   22  C   UNL     1      45.406 -11.579   6.740  1.00  0.00     0.034 C 
ENDBRANCH  20  21
ENDBRANCH  11  20
ENDBRANCH   7  10
ENDBRANCH   1   6
BRANCH   2  23
HETATM   23  C   UNL     1      41.494 -14.256   1.309  1.00  0.00     0.732 A 
HETATM   24  N   UNL     1      41.679 -12.968   1.283  1.00  0.00    -0.067 NA
HETATM   25  C   UNL     1      40.965 -12.321   0.316  1.00  0.00     0.065 A 
HETATM   26  C   UNL     1      40.128 -12.890  -0.554  1.00  0.00     0.036 A 
HETATM   27  C   UNL     1      41.041 -10.845   0.109  1.00  0.00     0.061 C 
HETATM   28  C   UNL     1      39.502 -11.927  -1.487  1.00  0.00     0.047 C 
HETATM   29  C   UNL     1      39.926 -14.338  -0.506  1.00  0.00     0.268 A 
HETATM   30  C   UNL     1      40.342 -10.665  -1.246  1.00  0.00     0.011 C 
HETATM   31  O   UNL     1      39.172 -14.924  -1.269  1.00  0.00    -0.267 OA
HETATM   32  N   UNL     1      40.659 -14.955   0.468  1.00  0.00    -0.152 N 
HETATM   33  H   UNL     1      40.585 -15.962   0.575  1.00  0.00     0.188 HD
ENDBRANCH   2  23
BRANCH   4  34
HETATM   34  C   UNL     1      43.371 -18.355   3.081  1.00  0.00     0.105 A 
HETATM   35  O   UNL     1      43.945 -18.920   4.186  1.00  0.00    -0.320 OA
HETATM   36  C   UNL     1      44.131 -20.238   3.919  1.00  0.00     0.142 A 
HETATM   37  C   UNL     1      43.686 -20.539   2.655  1.00  0.00     0.027 A 
HETATM   38  C   UNL     1      43.198 -19.326   2.111  1.00  0.00     0.041 A 
ENDBRANCH   4  34
TORSDOF 6
ENDMDL
MODEL 7
REMARK VINA RESULT:      -8.8      2.047      7.035
REMARK  6 active torsions:
REMARK  status: ('A' for Active; 'I' for Inactive)
REMARK    1  A    between atoms: C_2  and  O_3 
REMARK    2  A    between atoms: O_3  and  C_4 
REMARK    3  A    between atoms: C_5  and  C_6 
REMARK       I    between atoms: C_6  and  N_7 
REMARK    4  A    between atoms: N_7  and  C_8 
REMARK    5  A    between atoms: N_9  and  C_10 
REMARK    6  A    between atoms: C_21  and  C_22 
ROOT
HETATM    1  C   UNL     1      42.120 -14.449   3.509  1.00  0.00     0.152 A 
HETATM    2  N   UNL     1      41.526 -14.858   2.324  1.00  0.00    -0.044 N 
HETATM    3  N   UNL     1      41.835 -16.150   2.003  1.00  0.00    -0.148 NA
HETATM    4  C   UNL     1      42.636 -16.545   3.002  1.00  0.00     0.115 A 
HETATM    5  C   UNL     1      42.868 -15.519   3.942  1.00  0.00     0.087 A 
ENDROOT
BRANCH   1   6
HETATM    6  N   UNL     1      41.885 -13.197   4.050  1.00  0.00    -0.307 N 
HETATM    7  C   UNL     1      42.752 -12.133   3.923  1.00  0.00     0.261 C 
HETATM    8  O   UNL     1      43.726 -12.046   3.185  1.00  0.00    -0.267 OA
HETATM    9  H   UNL     1      41.051 -13.086   4.631  1.00  0.00     0.170 HD
BRANCH   7  10
HETATM   10  C   UNL     1      42.387 -10.997   4.799  1.00  0.00     0.076 A 
HETATM   11  C   UNL     1      41.393 -10.114   4.337  1.00  0.00     0.085 A 
HETATM   12  C   UNL     1      41.067  -9.007   5.117  1.00  0.00     0.039 A 
HETATM   13  C   UNL     1      41.727  -8.783   6.329  1.00  0.00     0.015 A 
HETATM   14  C   UNL     1      42.725  -9.657   6.790  1.00  0.00    -0.025 A 
HETATM   15  C   UNL     1      43.070 -10.796   6.026  1.00  0.00    -0.007 A 
HETATM   16  C   UNL     1      43.388  -9.401   8.002  1.00  0.00     0.012 A 
HETATM   17  C   UNL     1      44.079 -11.652   6.525  1.00  0.00     0.013 A 
HETATM   18  C   UNL     1      44.730 -11.383   7.731  1.00  0.00     0.001 A 
HETATM   19  C   UNL     1      44.386 -10.257   8.467  1.00  0.00     0.001 A 
BRANCH  11  20
HETATM   20  O   UNL     1      40.835 -10.401   3.122  1.00  0.00    -0.350 OA
BRANCH  20  21
HETATM   21  C   UNL     1      40.894  -9.411   2.098  1.00  0.00     0.171 C 
HETATM   22  C   UNL     1      41.578 -10.034   0.894  1.00  0.00     0.034 C 
ENDBRANCH  20  21
ENDBRANCH  11  20
ENDBRANCH   7  10
ENDBRANCH   1   6
BRANCH   2  23
HETATM   23  C   UNL     1      40.682 -14.109   1.481  1.00  0.00     0.732 A 
HETATM   24  N   UNL     1      39.808 -13.253   1.927  1.00  0.00    -0.067 NA
HETATM   25  C   UNL     1      39.097 -12.621   0.948  1.00  0.00     0.065 A 
HETATM   26  C   UNL     1      39.224 -12.817  -0.366  1.00  0.00     0.036 A 
HETATM   27  C   UNL     1      38.055 -11.596   1.245  1.00  0.00     0.061 C 
HETATM   28  C   UNL     1      38.316 -11.979  -1.179  1.00  0.00     0.047 C 
HETATM   29  C   UNL     1      40.205 -13.788  -0.850  1.00  0.00     0.268 A 
HETATM   30  C   UNL     1      37.796 -10.978  -0.137  1.00  0.00     0.011 C 
HETATM   31  O   UNL     1      40.373 -14.020  -2.038  1.00  0.00    -0.267 OA
HETATM   32  N   UNL     1      40.904 -14.398   0.154  1.00  0.00    -0.152 N 
HETATM   33  H   UNL     1      41.610 -15.087  -0.087  1.00  0.00     0.188 HD
ENDBRANCH   2  23
BRANCH   4  34
HETATM   34  C   UNL     1      43.183 -17.929   3.097  1.00  0.00     0.105 A 
HETATM   35  O   UNL     1      43.885 -18.414   4.167  1.00  0.00    -0.320 OA
HETATM   36  C   UNL     1      44.195 -19.708   3.896  1.00  0.00     0.142 A 
HETATM   37  C   UNL     1      43.706 -20.072   2.665  1.00  0.00     0.027 A 
HETATM   38  C   UNL     1      43.056 -18.926   2.147  1.00  0.00     0.041 A 
ENDBRANCH   4  34
TORSDOF 6
ENDMDL
MODEL 8
REMARK VINA RESULT:      -8.7      2.786      8.319
REMARK  6 active torsions:
REMARK  status: ('A' for Active; 'I' for Inactive)
REMARK    1  A    between atoms: C_2  and  O_3 
REMARK    2  A    between atoms: O_3  and  C_4 
REMARK    3  A    between atoms: C_5  and  C_6 
REMARK       I    between atoms: C_6  and  N_7 
REMARK    4  A    between atoms: N_7  and  C_8 
REMARK    5  A    between atoms: N_9  and  C_10 
REMARK    6  A    between atoms: C_21  and  C_22 
ROOT
HETATM    1  C   UNL     1      42.350 -11.772   5.412  1.00  0.00     0.152 A 
HETATM    2  N   UNL     1      43.108 -12.885   5.743  1.00  0.00    -0.044 N 
HETATM    3  N   UNL     1      43.929 -12.661   6.812  1.00  0.00    -0.148 NA
HETATM    4  C   UNL     1      43.678 -11.387   7.146  1.00  0.00     0.115 A 
HETATM    5  C   UNL     1      42.732 -10.784   6.290  1.00  0.00     0.087 A 
ENDROOT
BRANCH   1   6
HETATM    6  N   UNL     1      41.407 -11.805   4.400  1.00  0.00    -0.307 N 
HETATM    7  C   UNL     1      41.592 -11.230   3.161  1.00  0.00     0.261 C 
HETATM    8  O   UNL     1      42.634 -10.792   2.688  1.00  0.00    -0.267 OA
HETATM    9  H   UNL     1      40.499 -12.222   4.618  1.00  0.00     0.170 HD
BRANCH   7  10
HETATM   10  C   UNL     1      40.346 -11.189   2.363  1.00  0.00     0.076 A 
HETATM   11  C   UNL     1      39.355 -10.269   2.753  1.00  0.00     0.085 A 
HETATM   12  C   UNL     1      38.152 -10.245   2.052  1.00  0.00     0.039 A 
HETATM   13  C   UNL     1      37.941 -11.128   0.989  1.00  0.00     0.015 A 
HETATM   14  C   UNL     1      38.923 -12.053   0.601  1.00  0.00    -0.025 A 
HETATM   15  C   UNL     1      40.160 -12.093   1.286  1.00  0.00    -0.007 A 
HETATM   16  C   UNL     1      38.681 -12.944  -0.458  1.00  0.00     0.012 A 
HETATM   17  C   UNL     1      41.125 -13.038   0.864  1.00  0.00     0.013 A 
HETATM   18  C   UNL     1      40.868 -13.918  -0.189  1.00  0.00     0.001 A 
HETATM   19  C   UNL     1      39.646 -13.871  -0.848  1.00  0.00     0.001 A 
BRANCH  11  20
HETATM   20  O   UNL     1      39.645  -9.475   3.829  1.00  0.00    -0.350 OA
BRANCH  20  21
HETATM   21  C   UNL     1      38.722  -9.441   4.914  1.00  0.00     0.171 C 
HETATM   22  C   UNL     1      39.470  -8.950   6.140  1.00  0.00     0.034 C 
ENDBRANCH  20  21
ENDBRANCH  11  20
ENDBRANCH   7  10
ENDBRANCH   1   6
BRANCH   2  23
HETATM   23  C   UNL     1      43.102 -14.148   5.118  1.00  0.00     0.732 A 
HETATM   24  N   UNL     1      43.055 -14.302   3.826  1.00  0.00    -0.067 NA
HETATM   25  C   UNL     1      43.070 -15.604   3.418  1.00  0.00     0.065 A 
HETATM   26  C   UNL     1      43.120 -16.675   4.213  1.00  0.00     0.036 A 
HETATM   27  C   UNL     1      43.034 -15.999   1.980  1.00  0.00     0.061 C 
HETATM   28  C   UNL     1      43.128 -17.958   3.477  1.00  0.00     0.047 C 
HETATM   29  C   UNL     1      43.165 -16.485   5.663  1.00  0.00     0.268 A 
HETATM   30  C   UNL     1      43.389 -17.492   2.037  1.00  0.00     0.011 C 
HETATM   31  O   UNL     1      43.208 -17.419   6.450  1.00  0.00    -0.267 OA
HETATM   32  N   UNL     1      43.154 -15.170   6.037  1.00  0.00    -0.152 N 
HETATM   33  H   UNL     1      43.186 -14.940   7.025  1.00  0.00     0.188 HD
ENDBRANCH   2  23
BRANCH   4  34
HETATM   34  C   UNL     1      44.323 -10.718   8.312  1.00  0.00     0.105 A 
HETATM   35  O   UNL     1      44.074 -11.031   9.620  1.00  0.00    -0.320 OA
HETATM   36  C   UNL     1      44.858 -10.229  10.386  1.00  0.00     0.142 A 
HETATM   37  C   UNL     1      45.612  -9.397   9.595  1.00  0.00     0.027 A 
HETATM   38  C   UNL     1      45.267  -9.709   8.257  1.00  0.00     0.041 A 
ENDBRANCH   4  34
TORSDOF 6
ENDMDL
MODEL 9
REMARK VINA RESULT:      -8.7      2.774      8.079
REMARK  6 active torsions:
REMARK  status: ('A' for Active; 'I' for Inactive)
REMARK    1  A    between atoms: C_2  and  O_3 
REMARK    2  A    between atoms: O_3  and  C_4 
REMARK    3  A    between atoms: C_5  and  C_6 
REMARK       I    between atoms: C_6  and  N_7 
REMARK    4  A    between atoms: N_7  and  C_8 
REMARK    5  A    between atoms: N_9  and  C_10 
REMARK    6  A    between atoms: C_21  and  C_22 
ROOT
HETATM    1  C   UNL     1      43.065 -11.856   4.881  1.00  0.00     0.152 A 
HETATM    2  N   UNL     1      43.385 -12.975   5.634  1.00  0.00    -0.044 N 
HETATM    3  N   UNL     1      43.715 -12.661   6.923  1.00  0.00    -0.148 NA
HETATM    4  C   UNL     1      43.601 -11.327   6.966  1.00  0.00     0.115 A 
HETATM    5  C   UNL     1      43.232 -10.779   5.719  1.00  0.00     0.087 A 
ENDROOT
BRANCH   1   6
HETATM    6  N   UNL     1      42.639 -11.957   3.567  1.00  0.00    -0.307 N 
HETATM    7  C   UNL     1      41.338 -11.747   3.165  1.00  0.00     0.261 C 
HETATM    8  O   UNL     1      40.422 -11.264   3.819  1.00  0.00    -0.267 OA
HETATM    9  H   UNL     1      43.323 -12.272   2.876  1.00  0.00     0.170 HD
BRANCH   7  10
HETATM   10  C   UNL     1      41.103 -12.162   1.764  1.00  0.00     0.076 A 
HETATM   11  C   UNL     1      41.330 -11.205   0.756  1.00  0.00     0.085 A 
HETATM   12  C   UNL     1      41.068 -11.552  -0.567  1.00  0.00     0.039 A 
HETATM   13  C   UNL     1      40.581 -12.826  -0.875  1.00  0.00     0.015 A 
HETATM   14  C   UNL     1      40.346 -13.781   0.127  1.00  0.00    -0.025 A 
HETATM   15  C   UNL     1      40.614 -13.462   1.478  1.00  0.00    -0.007 A 
HETATM   16  C   UNL     1      39.838 -15.048  -0.205  1.00  0.00     0.012 A 
HETATM   17  C   UNL     1      40.365 -14.452   2.458  1.00  0.00     0.013 A 
HETATM   18  C   UNL     1      39.859 -15.707   2.112  1.00  0.00     0.001 A 
HETATM   19  C   UNL     1      39.594 -16.003   0.781  1.00  0.00     0.001 A 
BRANCH  11  20
HETATM   20  O   UNL     1      41.771  -9.977   1.166  1.00  0.00    -0.350 OA
BRANCH  20  21
HETATM   21  C   UNL     1      41.000  -8.830   0.818  1.00  0.00     0.171 C 
HETATM   22  C   UNL     1      41.706  -8.131  -0.330  1.00  0.00     0.034 C 
ENDBRANCH  20  21
ENDBRANCH  11  20
ENDBRANCH   7  10
ENDBRANCH   1   6
BRANCH   2  23
HETATM   23  C   UNL     1      43.395 -14.321   5.217  1.00  0.00     0.732 A 
HETATM   24  N   UNL     1      43.315 -14.679   3.968  1.00  0.00    -0.067 NA
HETATM   25  C   UNL     1      43.352 -16.029   3.772  1.00  0.00     0.065 A 
HETATM   26  C   UNL     1      43.453 -16.959   4.724  1.00  0.00     0.036 A 
HETATM   27  C   UNL     1      43.286 -16.648   2.415  1.00  0.00     0.061 C 
HETATM   28  C   UNL     1      43.474 -18.342   4.200  1.00  0.00     0.047 C 
HETATM   29  C   UNL     1      43.534 -16.540   6.123  1.00  0.00     0.268 A 
HETATM   30  C   UNL     1      43.682 -18.105   2.697  1.00  0.00     0.011 C 
HETATM   31  O   UNL     1      43.623 -17.336   7.046  1.00  0.00    -0.267 OA
HETATM   32  N   UNL     1      43.499 -15.183   6.285  1.00  0.00    -0.152 N 
HETATM   33  H   UNL     1      43.552 -14.798   7.223  1.00  0.00     0.188 HD
ENDBRANCH   2  23
BRANCH   4  34
HETATM   34  C   UNL     1      43.819 -10.539   8.213  1.00  0.00     0.105 A 
HETATM   35  O   UNL     1      44.521 -10.985   9.299  1.00  0.00    -0.320 OA
HETATM   36  C   UNL     1      44.521  -9.988  10.221  1.00  0.00     0.142 A 
HETATM   37  C   UNL     1      43.829  -8.899   9.750  1.00  0.00     0.027 A 
HETATM   38  C   UNL     1      43.373  -9.252   8.456  1.00  0.00     0.041 A 
ENDBRANCH   4  34
TORSDOF 6
ENDMDL
MODEL 10
REMARK VINA RESULT:      -8.4      2.721      3.884
REMARK  6 active torsions:
REMARK  status: ('A' for Active; 'I' for Inactive)
REMARK    1  A    between atoms: C_2  and  O_3 
REMARK    2  A    between atoms: O_3  and  C_4 
REMARK    3  A    between atoms: C_5  and  C_6 
REMARK       I    between atoms: C_6  and  N_7 
REMARK    4  A    between atoms: N_7  and  C_8 
REMARK    5  A    between atoms: N_9  and  C_10 
REMARK    6  A    between atoms: C_21  and  C_22 
ROOT
HETATM    1  C   UNL     1      40.335 -12.078   3.805  1.00  0.00     0.152 A 
HETATM    2  N   UNL     1      39.953 -10.883   4.396  1.00  0.00    -0.044 N 
HETATM    3  N   UNL     1      39.081 -10.171   3.621  1.00  0.00    -0.148 NA
HETATM    4  C   UNL     1      38.924 -10.937   2.532  1.00  0.00     0.115 A 
HETATM    5  C   UNL     1      39.704 -12.111   2.584  1.00  0.00     0.087 A 
ENDROOT
BRANCH   1   6
HETATM    6  N   UNL     1      41.164 -12.980   4.450  1.00  0.00    -0.307 N 
HETATM    7  C   UNL     1      42.432 -13.302   4.014  1.00  0.00     0.261 C 
HETATM    8  O   UNL     1      43.093 -12.737   3.153  1.00  0.00    -0.267 OA
HETATM    9  H   UNL     1      40.778 -13.479   5.254  1.00  0.00     0.170 HD
BRANCH   7  10
HETATM   10  C   UNL     1      42.998 -14.466   4.732  1.00  0.00     0.076 A 
HETATM   11  C   UNL     1      43.402 -14.274   6.067  1.00  0.00     0.085 A 
HETATM   12  C   UNL     1      43.987 -15.338   6.749  1.00  0.00     0.039 A 
HETATM   13  C   UNL     1      44.171 -16.566   6.108  1.00  0.00     0.015 A 
HETATM   14  C   UNL     1      43.778 -16.761   4.774  1.00  0.00    -0.025 A 
HETATM   15  C   UNL     1      43.170 -15.703   4.059  1.00  0.00    -0.007 A 
HETATM   16  C   UNL     1      43.990 -17.999   4.144  1.00  0.00     0.012 A 
HETATM   17  C   UNL     1      42.786 -15.940   2.718  1.00  0.00     0.013 A 
HETATM   18  C   UNL     1      43.007 -17.175   2.106  1.00  0.00     0.001 A 
HETATM   19  C   UNL     1      43.610 -18.203   2.819  1.00  0.00     0.001 A 
BRANCH  11  20
HETATM   20  O   UNL     1      43.212 -13.024   6.590  1.00  0.00    -0.350 OA
BRANCH  20  21
HETATM   21  C   UNL     1      44.339 -12.334   7.123  1.00  0.00     0.171 C 
HETATM   22  C   UNL     1      44.970 -11.540   5.993  1.00  0.00     0.034 C 
ENDBRANCH  20  21
ENDBRANCH  11  20
ENDBRANCH   7  10
ENDBRANCH   1   6
BRANCH   2  23
HETATM   23  C   UNL     1      40.355 -10.374   5.647  1.00  0.00     0.732 A 
HETATM   24  N   UNL     1      41.547  -9.903   5.874  1.00  0.00    -0.067 NA
HETATM   25  C   UNL     1      41.733  -9.446   7.146  1.00  0.00     0.065 A 
HETATM   26  C   UNL     1      40.826  -9.456   8.125  1.00  0.00     0.036 A 
HETATM   27  C   UNL     1      43.023  -8.856   7.610  1.00  0.00     0.061 C 
HETATM   28  C   UNL     1      41.322  -8.887   9.397  1.00  0.00     0.047 C 
HETATM   29  C   UNL     1      39.493  -9.996   7.855  1.00  0.00     0.268 A 
HETATM   30  C   UNL     1      42.634  -8.223   8.953  1.00  0.00     0.011 C 
HETATM   31  O   UNL     1      38.615 -10.040   8.704  1.00  0.00    -0.267 OA
HETATM   32  N   UNL     1      39.338 -10.439   6.572  1.00  0.00    -0.152 N 
HETATM   33  H   UNL     1      38.444 -10.829   6.291  1.00  0.00     0.188 HD
ENDBRANCH   2  23
BRANCH   4  34
HETATM   34  C   UNL     1      38.001 -10.574   1.418  1.00  0.00     0.105 A 
HETATM   35  O   UNL     1      37.901 -11.260   0.239  1.00  0.00    -0.320 OA
HETATM   36  C   UNL     1      36.948 -10.646  -0.508  1.00  0.00     0.142 A 
HETATM   37  C   UNL     1      36.426  -9.570   0.167  1.00  0.00     0.027 A 
HETATM   38  C   UNL     1      37.106  -9.519   1.409  1.00  0.00     0.041 A 
ENDBRANCH   4  34
TORSDOF 6
ENDMDL
