MODEL 1
REMARK VINA RESULT:      -8.4      0.000      0.000
REMARK  5 active torsions:
REMARK  status: ('A' for Active; 'I' for Inactive)
REMARK    1  A    between atoms: C_2  and  N_3 
REMARK       I    between atoms: N_3  and  C_4 
REMARK    2  A    between atoms: C_4  and  C_5 
REMARK    3  A    between atoms: C_13  and  C_14 
REMARK    4  A    between atoms: C_16  and  O_17 
REMARK    5  A    between atoms: C_19  and  O_20 
ROOT
HETATM    1  C   UNL     1      40.563 -13.649   1.436  1.00  0.00     0.046 A 
HETATM    2  C   UNL     1      40.071 -12.842   2.484  1.00  0.00     0.008 A 
HETATM    3  C   UNL     1      40.367 -13.279   3.789  1.00  0.00     0.068 A 
HETATM    4  C   UNL     1      39.916 -12.529   4.868  1.00  0.00     0.032 A 
HETATM    5  C   UNL     1      39.183 -11.353   4.699  1.00  0.00     0.002 A 
HETATM    6  C   UNL     1      38.891 -10.907   3.420  1.00  0.00     0.001 A 
HETATM    7  C   UNL     1      39.333 -11.641   2.320  1.00  0.00     0.015 A 
HETATM    8  N   UNL     1      41.077 -14.390   4.048  1.00  0.00    -0.248 NA
HETATM    9  C   UNL     1      41.523 -15.163   3.029  1.00  0.00     0.069 A 
HETATM   10  C   UNL     1      41.281 -14.818   1.711  1.00  0.00     0.050 A 
ENDROOT
BRANCH   9  11
HETATM   11  C   UNL     1      42.305 -16.358   3.418  1.00  0.00    -0.004 A 
HETATM   12  C   UNL     1      42.670 -16.569   4.763  1.00  0.00     0.053 A 
HETATM   13  C   UNL     1      43.440 -17.673   5.156  1.00  0.00     0.102 A 
HETATM   14  C   UNL     1      43.884 -18.591   4.189  1.00  0.00     0.101 A 
HETATM   15  C   UNL     1      43.506 -18.415   2.857  1.00  0.00     0.040 A 
HETATM   16  C   UNL     1      42.725 -17.316   2.480  1.00  0.00     0.017 A 
BRANCH  13  17
HETATM   17  O   UNL     1      43.835 -17.916   6.449  1.00  0.00    -0.353 OA
HETATM   18  C   UNL     1      43.716 -16.847   7.377  1.00  0.00     0.210 C 
ENDBRANCH  13  17
BRANCH  14  19
HETATM   19  O   UNL     1      44.650 -19.635   4.642  1.00  0.00    -0.353 OA
HETATM   20  C   UNL     1      44.012 -20.896   4.783  1.00  0.00     0.210 C 
ENDBRANCH  14  19
ENDBRANCH   9  11
BRANCH   1  21
HETATM   21  C   UNL     1      40.324 -13.319   0.005  1.00  0.00     0.253 C 
HETATM   22  N   UNL     1      39.464 -14.178  -0.652  1.00  0.00    -0.349 N 
HETATM   23  H   UNL     1      39.253 -15.057  -0.195  1.00  0.00     0.163 HD
HETATM   24  O   UNL     1      40.861 -12.346  -0.505  1.00  0.00    -0.268 OA
BRANCH  22  25
HETATM   25  C   UNL     1      39.100 -14.077  -2.074  1.00  0.00     0.022 C 
HETATM   26  C   UNL     1      40.322 -13.685  -2.915  1.00  0.00     0.037 C 
HETATM   27  C   UNL     1      37.960 -13.068  -2.294  1.00  0.00     0.037 C 
HETATM   28  C   UNL     1      38.604 -15.460  -2.535  1.00  0.00     0.037 C 
ENDBRANCH  22  25
ENDBRANCH   1  21
TORSDOF 5
ENDMDL
MODEL 2
REMARK VINA RESULT:      -8.4      0.693      1.804
REMARK  5 active torsions:
REMARK  status: ('A' for Active; 'I' for Inactive)
REMARK    1  A    between atoms: C_2  and  N_3 
REMARK       I    between atoms: N_3  and  C_4 
REMARK    2  A    between atoms: C_4  and  C_5 
REMARK    3  A    between atoms: C_13  and  C_14 
REMARK    4  A    between atoms: C_16  and  O_17 
REMARK    5  A    between atoms: C_19  and  O_20 
ROOT
HETATM    1  C   UNL     1      40.661 -13.702   1.592  1.00  0.00     0.046 A 
HETATM    2  C   UNL     1      40.129 -12.882   2.610  1.00  0.00     0.008 A 
HETATM    3  C   UNL     1      40.418 -13.274   3.931  1.00  0.00     0.068 A 
HETATM    4  C   UNL     1      39.928 -12.509   4.981  1.00  0.00     0.032 A 
HETATM    5  C   UNL     1      39.162 -11.361   4.770  1.00  0.00     0.002 A 
HETATM    6  C   UNL     1      38.876 -10.959   3.474  1.00  0.00     0.001 A 
HETATM    7  C   UNL     1      39.357 -11.709   2.402  1.00  0.00     0.015 A 
HETATM    8  N   UNL     1      41.158 -14.355   4.231  1.00  0.00    -0.248 NA
HETATM    9  C   UNL     1      41.643 -15.142   3.241  1.00  0.00     0.069 A 
HETATM   10  C   UNL     1      41.411 -14.841   1.910  1.00  0.00     0.050 A 
ENDROOT
BRANCH   9  11
HETATM   11  C   UNL     1      42.454 -16.300   3.674  1.00  0.00    -0.004 A 
HETATM   12  C   UNL     1      42.930 -17.235   2.732  1.00  0.00     0.053 A 
HETATM   13  C   UNL     1      43.672 -18.361   3.116  1.00  0.00     0.102 A 
HETATM   14  C   UNL     1      43.939 -18.586   4.477  1.00  0.00     0.101 A 
HETATM   15  C   UNL     1      43.503 -17.656   5.421  1.00  0.00     0.040 A 
HETATM   16  C   UNL     1      42.775 -16.527   5.022  1.00  0.00     0.017 A 
BRANCH  13  17
HETATM   17  O   UNL     1      44.144 -19.308   2.240  1.00  0.00    -0.353 OA
HETATM   18  C   UNL     1      43.230 -20.307   1.808  1.00  0.00     0.210 C 
ENDBRANCH  13  17
BRANCH  14  19
HETATM   19  O   UNL     1      44.652 -19.719   4.781  1.00  0.00    -0.353 OA
HETATM   20  C   UNL     1      43.965 -20.752   5.472  1.00  0.00     0.210 C 
ENDBRANCH  14  19
ENDBRANCH   9  11
BRANCH   1  21
HETATM   21  C   UNL     1      40.435 -13.419   0.149  1.00  0.00     0.253 C 
HETATM   22  N   UNL     1      39.555 -14.279  -0.479  1.00  0.00    -0.349 N 
HETATM   23  H   UNL     1      39.320 -15.135   0.009  1.00  0.00     0.163 HD
HETATM   24  O   UNL     1      40.998 -12.479  -0.394  1.00  0.00    -0.268 OA
BRANCH  22  25
HETATM   25  C   UNL     1      39.197 -14.220  -1.905  1.00  0.00     0.022 C 
HETATM   26  C   UNL     1      40.426 -13.865  -2.753  1.00  0.00     0.037 C 
HETATM   27  C   UNL     1      38.066 -13.210  -2.162  1.00  0.00     0.037 C 
HETATM   28  C   UNL     1      38.693 -15.614  -2.323  1.00  0.00     0.037 C 
ENDBRANCH  22  25
ENDBRANCH   1  21
TORSDOF 5
ENDMDL
MODEL 3
REMARK VINA RESULT:      -8.0      1.713      4.281
REMARK  5 active torsions:
REMARK  status: ('A' for Active; 'I' for Inactive)
REMARK    1  A    between atoms: C_2  and  N_3 
REMARK       I    between atoms: N_3  and  C_4 
REMARK    2  A    between atoms: C_4  and  C_5 
REMARK    3  A    between atoms: C_13  and  C_14 
REMARK    4  A    between atoms: C_16  and  O_17 
REMARK    5  A    between atoms: C_19  and  O_20 
ROOT
HETATM    1  C   UNL     1      41.559 -12.959   2.204  1.00  0.00     0.046 A 
HETATM    2  C   UNL     1      40.753 -13.193   1.069  1.00  0.00     0.008 A 
HETATM    3  C   UNL     1      40.661 -14.532   0.644  1.00  0.00     0.068 A 
HETATM    4  C   UNL     1      39.881 -14.833  -0.465  1.00  0.00     0.032 A 
HETATM    5  C   UNL     1      39.181 -13.851  -1.169  1.00  0.00     0.002 A 
HETATM    6  C   UNL     1      39.256 -12.530  -0.756  1.00  0.00     0.001 A 
HETATM    7  C   UNL     1      40.031 -12.202   0.354  1.00  0.00     0.015 A 
HETATM    8  N   UNL     1      41.288 -15.544   1.266  1.00  0.00    -0.248 NA
HETATM    9  C   UNL     1      42.074 -15.298   2.341  1.00  0.00     0.069 A 
HETATM   10  C   UNL     1      42.229 -14.014   2.833  1.00  0.00     0.050 A 
ENDROOT
BRANCH   9  11
HETATM   11  C   UNL     1      42.710 -16.480   2.962  1.00  0.00    -0.004 A 
HETATM   12  C   UNL     1      43.022 -16.487   4.337  1.00  0.00     0.053 A 
HETATM   13  C   UNL     1      43.657 -17.579   4.947  1.00  0.00     0.102 A 
HETATM   14  C   UNL     1      44.015 -18.696   4.172  1.00  0.00     0.101 A 
HETATM   15  C   UNL     1      43.686 -18.720   2.816  1.00  0.00     0.040 A 
HETATM   16  C   UNL     1      43.039 -17.628   2.223  1.00  0.00     0.017 A 
BRANCH  13  17
HETATM   17  O   UNL     1      43.996 -17.629   6.277  1.00  0.00    -0.353 OA
HETATM   18  C   UNL     1      43.748 -16.466   7.055  1.00  0.00     0.210 C 
ENDBRANCH  13  17
BRANCH  14  19
HETATM   19  O   UNL     1      44.651 -19.718   4.830  1.00  0.00    -0.353 OA
HETATM   20  C   UNL     1      43.925 -20.925   5.012  1.00  0.00     0.210 C 
ENDBRANCH  14  19
ENDBRANCH   9  11
BRANCH   1  21
HETATM   21  C   UNL     1      41.757 -11.596   2.766  1.00  0.00     0.253 C 
HETATM   22  N   UNL     1      40.889 -11.259   3.786  1.00  0.00    -0.349 N 
HETATM   23  H   UNL     1      40.074 -11.848   3.912  1.00  0.00     0.163 HD
HETATM   24  O   UNL     1      42.641 -10.869   2.334  1.00  0.00    -0.268 OA
BRANCH  22  25
HETATM   25  C   UNL     1      40.868  -9.959   4.477  1.00  0.00     0.022 C 
HETATM   26  C   UNL     1      40.819  -8.811   3.459  1.00  0.00     0.037 C 
HETATM   27  C   UNL     1      42.084  -9.794   5.404  1.00  0.00     0.037 C 
HETATM   28  C   UNL     1      39.598  -9.906   5.345  1.00  0.00     0.037 C 
ENDBRANCH  22  25
ENDBRANCH   1  21
TORSDOF 5
ENDMDL
MODEL 4
REMARK VINA RESULT:      -7.9      2.587      8.043
REMARK  5 active torsions:
REMARK  status: ('A' for Active; 'I' for Inactive)
REMARK    1  A    between atoms: C_2  and  N_3 
REMARK       I    between atoms: N_3  and  C_4 
REMARK    2  A    between atoms: C_4  and  C_5 
REMARK    3  A    between atoms: C_13  and  C_14 
REMARK    4  A    between atoms: C_16  and  O_17 
REMARK    5  A    between atoms: C_19  and  O_20 
ROOT
HETATM    1  C   UNL     1      42.330 -14.411   3.839  1.00  0.00     0.046 A 
HETATM    2  C   UNL     1      42.849 -15.720   3.731  1.00  0.00     0.008 A 
HETATM    3  C   UNL     1      42.621 -16.373   2.504  1.00  0.00     0.068 A 
HETATM    4  C   UNL     1      43.108 -17.662   2.329  1.00  0.00     0.032 A 
HETATM    5  C   UNL     1      43.818 -18.330   3.328  1.00  0.00     0.002 A 
HETATM    6  C   UNL     1      44.056 -17.696   4.538  1.00  0.00     0.001 A 
HETATM    7  C   UNL     1      43.579 -16.401   4.739  1.00  0.00     0.015 A 
HETATM    8  N   UNL     1      41.959 -15.805   1.482  1.00  0.00    -0.248 NA
HETATM    9  C   UNL     1      41.452 -14.556   1.612  1.00  0.00     0.069 A 
HETATM   10  C   UNL     1      41.621 -13.834   2.780  1.00  0.00     0.050 A 
ENDROOT
BRANCH   9  11
HETATM   11  C   UNL     1      40.752 -14.016   0.426  1.00  0.00    -0.004 A 
HETATM   12  C   UNL     1      40.970 -12.688   0.007  1.00  0.00     0.053 A 
HETATM   13  C   UNL     1      40.295 -12.137  -1.092  1.00  0.00     0.102 A 
HETATM   14  C   UNL     1      39.357 -12.915  -1.791  1.00  0.00     0.101 A 
HETATM   15  C   UNL     1      39.150 -14.241  -1.410  1.00  0.00     0.040 A 
HETATM   16  C   UNL     1      39.841 -14.783  -0.320  1.00  0.00     0.017 A 
BRANCH  13  17
HETATM   17  O   UNL     1      40.461 -10.846  -1.530  1.00  0.00    -0.353 OA
HETATM   18  C   UNL     1      41.349 -10.018  -0.792  1.00  0.00     0.210 C 
ENDBRANCH  13  17
BRANCH  14  19
HETATM   19  O   UNL     1      38.719 -12.304  -2.842  1.00  0.00    -0.353 OA
HETATM   20  C   UNL     1      37.333 -12.032  -2.691  1.00  0.00     0.210 C 
ENDBRANCH  14  19
ENDBRANCH   9  11
BRANCH   1  21
HETATM   21  C   UNL     1      42.486 -13.599   5.076  1.00  0.00     0.253 C 
HETATM   22  N   UNL     1      43.534 -12.700   5.050  1.00  0.00    -0.349 N 
HETATM   23  H   UNL     1      44.225 -12.818   4.318  1.00  0.00     0.163 HD
HETATM   24  O   UNL     1      41.714 -13.742   6.013  1.00  0.00    -0.268 OA
BRANCH  22  25
HETATM   25  C   UNL     1      43.907 -11.811   6.163  1.00  0.00     0.022 C 
HETATM   26  C   UNL     1      43.903 -12.582   7.490  1.00  0.00     0.037 C 
HETATM   27  C   UNL     1      42.968 -10.596   6.253  1.00  0.00     0.037 C 
HETATM   28  C   UNL     1      45.331 -11.292   5.895  1.00  0.00     0.037 C 
ENDBRANCH  22  25
ENDBRANCH   1  21
TORSDOF 5
ENDMDL
MODEL 5
REMARK VINA RESULT:      -7.9      3.726      6.215
REMARK  5 active torsions:
REMARK  status: ('A' for Active; 'I' for Inactive)
REMARK    1  A    between atoms: C_2  and  N_3 
REMARK       I    between atoms: N_3  and  C_4 
REMARK    2  A    between atoms: C_4  and  C_5 
REMARK    3  A    between atoms: C_13  and  C_14 
REMARK    4  A    between atoms: C_16  and  O_17 
REMARK    5  A    between atoms: C_19  and  O_20 
ROOT
HETATM    1  C   UNL     1      41.577 -14.530   3.008  1.00  0.00     0.046 A 
HETATM    2  C   UNL     1      42.252 -15.762   3.148  1.00  0.00     0.008 A 
HETATM    3  C   UNL     1      43.193 -15.834   4.194  1.00  0.00     0.068 A 
HETATM    4  C   UNL     1      43.890 -17.019   4.389  1.00  0.00     0.032 A 
HETATM    5  C   UNL     1      43.685 -18.142   3.586  1.00  0.00     0.002 A 
HETATM    6  C   UNL     1      42.757 -18.088   2.559  1.00  0.00     0.001 A 
HETATM    7  C   UNL     1      42.043 -16.910   2.342  1.00  0.00     0.015 A 
HETATM    8  N   UNL     1      43.447 -14.809   5.024  1.00  0.00    -0.248 NA
HETATM    9  C   UNL     1      42.804 -13.628   4.862  1.00  0.00     0.069 A 
HETATM   10  C   UNL     1      41.863 -13.458   3.862  1.00  0.00     0.050 A 
ENDROOT
BRANCH   9  11
HETATM   11  C   UNL     1      43.145 -12.567   5.835  1.00  0.00    -0.004 A 
HETATM   12  C   UNL     1      42.287 -11.464   6.023  1.00  0.00     0.053 A 
HETATM   13  C   UNL     1      42.600 -10.426   6.912  1.00  0.00     0.102 A 
HETATM   14  C   UNL     1      43.809 -10.464   7.627  1.00  0.00     0.101 A 
HETATM   15  C   UNL     1      44.656 -11.563   7.477  1.00  0.00     0.040 A 
HETATM   16  C   UNL     1      44.325 -12.600   6.597  1.00  0.00     0.017 A 
BRANCH  13  17
HETATM   17  O   UNL     1      41.807  -9.323   7.119  1.00  0.00    -0.353 OA
HETATM   18  C   UNL     1      40.527  -9.543   7.695  1.00  0.00     0.210 C 
ENDBRANCH  13  17
BRANCH  14  19
HETATM   19  O   UNL     1      44.059  -9.405   8.463  1.00  0.00    -0.353 OA
HETATM   20  C   UNL     1      45.395  -8.927   8.523  1.00  0.00     0.210 C 
ENDBRANCH  14  19
ENDBRANCH   9  11
BRANCH   1  21
HETATM   21  C   UNL     1      40.561 -14.301   1.947  1.00  0.00     0.253 C 
HETATM   22  N   UNL     1      40.972 -13.472   0.920  1.00  0.00    -0.349 N 
HETATM   23  H   UNL     1      41.810 -12.926   1.077  1.00  0.00     0.163 HD
HETATM   24  O   UNL     1      39.463 -14.836   2.013  1.00  0.00    -0.268 OA
BRANCH  22  25
HETATM   25  C   UNL     1      40.136 -13.074  -0.223  1.00  0.00     0.022 C 
HETATM   26  C   UNL     1      38.945 -12.230   0.251  1.00  0.00     0.037 C 
HETATM   27  C   UNL     1      39.639 -14.296  -1.012  1.00  0.00     0.037 C 
HETATM   28  C   UNL     1      41.003 -12.220  -1.167  1.00  0.00     0.037 C 
ENDBRANCH  22  25
ENDBRANCH   1  21
TORSDOF 5
ENDMDL
MODEL 6
REMARK VINA RESULT:      -7.5     15.044     16.649
REMARK  5 active torsions:
REMARK  status: ('A' for Active; 'I' for Inactive)
REMARK    1  A    between atoms: C_2  and  N_3 
REMARK       I    between atoms: N_3  and  C_4 
REMARK    2  A    between atoms: C_4  and  C_5 
REMARK    3  A    between atoms: C_13  and  C_14 
REMARK    4  A    between atoms: C_16  and  O_17 
REMARK    5  A    between atoms: C_19  and  O_20 
ROOT
HETATM    1  C   UNL     1      45.801 -29.208   1.260  1.00  0.00     0.046 A 
HETATM    2  C   UNL     1      45.597 -28.925  -0.108  1.00  0.00     0.008 A 
HETATM    3  C   UNL     1      44.323 -29.241  -0.619  1.00  0.00     0.068 A 
HETATM    4  C   UNL     1      44.054 -28.985  -1.957  1.00  0.00     0.032 A 
HETATM    5  C   UNL     1      45.003 -28.421  -2.811  1.00  0.00     0.002 A 
HETATM    6  C   UNL     1      46.258 -28.098  -2.319  1.00  0.00     0.001 A 
HETATM    7  C   UNL     1      46.554 -28.344  -0.980  1.00  0.00     0.015 A 
HETATM    8  N   UNL     1      43.343 -29.774   0.131  1.00  0.00    -0.248 NA
HETATM    9  C   UNL     1      43.564 -30.057   1.436  1.00  0.00     0.069 A 
HETATM   10  C   UNL     1      44.784 -29.785   2.030  1.00  0.00     0.050 A 
ENDROOT
BRANCH   9  11
HETATM   11  C   UNL     1      42.419 -30.630   2.177  1.00  0.00    -0.004 A 
HETATM   12  C   UNL     1      42.379 -30.581   3.585  1.00  0.00     0.053 A 
HETATM   13  C   UNL     1      41.324 -31.146   4.316  1.00  0.00     0.102 A 
HETATM   14  C   UNL     1      40.281 -31.799   3.638  1.00  0.00     0.101 A 
HETATM   15  C   UNL     1      40.288 -31.831   2.243  1.00  0.00     0.040 A 
HETATM   16  C   UNL     1      41.340 -31.250   1.525  1.00  0.00     0.017 A 
BRANCH  13  17
HETATM   17  O   UNL     1      41.246 -31.139   5.687  1.00  0.00    -0.353 OA
HETATM   18  C   UNL     1      42.216 -31.896   6.398  1.00  0.00     0.210 C 
ENDBRANCH  13  17
BRANCH  14  19
HETATM   19  O   UNL     1      39.294 -32.347   4.418  1.00  0.00    -0.353 OA
HETATM   20  C   UNL     1      38.461 -33.328   3.817  1.00  0.00     0.210 C 
ENDBRANCH  14  19
ENDBRANCH   9  11
BRANCH   1  21
HETATM   21  C   UNL     1      47.096 -28.935   1.939  1.00  0.00     0.253 C 
HETATM   22  N   UNL     1      47.788 -30.061   2.340  1.00  0.00    -0.349 N 
HETATM   23  H   UNL     1      47.279 -30.937   2.347  1.00  0.00     0.163 HD
HETATM   24  O   UNL     1      47.483 -27.786   2.098  1.00  0.00    -0.268 OA
BRANCH  22  25
HETATM   25  C   UNL     1      49.074 -30.047   3.057  1.00  0.00     0.022 C 
HETATM   26  C   UNL     1      49.153 -28.832   3.991  1.00  0.00     0.037 C 
HETATM   27  C   UNL     1      50.263 -30.045   2.082  1.00  0.00     0.037 C 
HETATM   28  C   UNL     1      49.156 -31.330   3.904  1.00  0.00     0.037 C 
ENDBRANCH  22  25
ENDBRANCH   1  21
TORSDOF 5
ENDMDL
MODEL 7
REMARK VINA RESULT:      -7.2      4.997      7.736
REMARK  5 active torsions:
REMARK  status: ('A' for Active; 'I' for Inactive)
REMARK    1  A    between atoms: C_2  and  N_3 
REMARK       I    between atoms: N_3  and  C_4 
REMARK    2  A    between atoms: C_4  and  C_5 
REMARK    3  A    between atoms: C_13  and  C_14 
REMARK    4  A    between atoms: C_16  and  O_17 
REMARK    5  A    between atoms: C_19  and  O_20 
ROOT
HETATM    1  C   UNL     1      42.655 -10.415   7.358  1.00  0.00     0.046 A 
HETATM    2  C   UNL     1      44.016 -10.116   7.582  1.00  0.00     0.008 A 
HETATM    3  C   UNL     1      44.944 -11.018   7.025  1.00  0.00     0.068 A 
HETATM    4  C   UNL     1      46.300 -10.781   7.203  1.00  0.00     0.032 A 
HETATM    5  C   UNL     1      46.775  -9.677   7.914  1.00  0.00     0.002 A 
HETATM    6  C   UNL     1      45.873  -8.777   8.460  1.00  0.00     0.001 A 
HETATM    7  C   UNL     1      44.505  -8.991   8.294  1.00  0.00     0.015 A 
HETATM    8  N   UNL     1      44.581 -12.100   6.315  1.00  0.00    -0.248 NA
HETATM    9  C   UNL     1      43.269 -12.381   6.129  1.00  0.00     0.069 A 
HETATM   10  C   UNL     1      42.282 -11.556   6.639  1.00  0.00     0.050 A 
ENDROOT
BRANCH   9  11
HETATM   11  C   UNL     1      42.974 -13.587   5.324  1.00  0.00    -0.004 A 
HETATM   12  C   UNL     1      42.760 -14.831   5.950  1.00  0.00     0.053 A 
HETATM   13  C   UNL     1      42.513 -15.998   5.212  1.00  0.00     0.102 A 
HETATM   14  C   UNL     1      42.495 -15.942   3.808  1.00  0.00     0.101 A 
HETATM   15  C   UNL     1      42.674 -14.713   3.172  1.00  0.00     0.040 A 
HETATM   16  C   UNL     1      42.906 -13.552   3.921  1.00  0.00     0.017 A 
BRANCH  13  17
HETATM   17  O   UNL     1      42.314 -17.236   5.772  1.00  0.00    -0.353 OA
HETATM   18  C   UNL     1      43.379 -17.782   6.538  1.00  0.00     0.210 C 
ENDBRANCH  13  17
BRANCH  14  19
HETATM   19  O   UNL     1      42.268 -17.125   3.152  1.00  0.00    -0.353 OA
HETATM   20  C   UNL     1      43.372 -17.720   2.485  1.00  0.00     0.210 C 
ENDBRANCH  14  19
ENDBRANCH   9  11
BRANCH   1  21
HETATM   21  C   UNL     1      41.560  -9.559   7.890  1.00  0.00     0.253 C 
HETATM   22  N   UNL     1      41.312  -9.708   9.241  1.00  0.00    -0.349 N 
HETATM   23  H   UNL     1      41.719 -10.516   9.697  1.00  0.00     0.163 HD
HETATM   24  O   UNL     1      40.961  -8.789   7.152  1.00  0.00    -0.268 OA
BRANCH  22  25
HETATM   25  C   UNL     1      40.262  -8.996   9.986  1.00  0.00     0.022 C 
HETATM   26  C   UNL     1      38.874  -9.381   9.457  1.00  0.00     0.037 C 
HETATM   27  C   UNL     1      40.453  -7.472   9.912  1.00  0.00     0.037 C 
HETATM   28  C   UNL     1      40.364  -9.416  11.464  1.00  0.00     0.037 C 
ENDBRANCH  22  25
ENDBRANCH   1  21
TORSDOF 5
ENDMDL
MODEL 8
REMARK VINA RESULT:      -7.2     13.426     17.208
REMARK  5 active torsions:
REMARK  status: ('A' for Active; 'I' for Inactive)
REMARK    1  A    between atoms: C_2  and  N_3 
REMARK       I    between atoms: N_3  and  C_4 
REMARK    2  A    between atoms: C_4  and  C_5 
REMARK    3  A    between atoms: C_13  and  C_14 
REMARK    4  A    between atoms: C_16  and  O_17 
REMARK    5  A    between atoms: C_19  and  O_20 
ROOT
HETATM    1  C   UNL     1      41.072  -7.105  18.146  1.00  0.00     0.046 A 
HETATM    2  C   UNL     1      40.983  -5.696  18.155  1.00  0.00     0.008 A 
HETATM    3  C   UNL     1      41.209  -5.056  16.921  1.00  0.00     0.068 A 
HETATM    4  C   UNL     1      41.132  -3.672  16.859  1.00  0.00     0.032 A 
HETATM    5  C   UNL     1      40.834  -2.893  17.979  1.00  0.00     0.002 A 
HETATM    6  C   UNL     1      40.601  -3.510  19.198  1.00  0.00     0.001 A 
HETATM    7  C   UNL     1      40.671  -4.900  19.287  1.00  0.00     0.015 A 
HETATM    8  N   UNL     1      41.489  -5.724  15.789  1.00  0.00    -0.248 NA
HETATM    9  C   UNL     1      41.591  -7.074  15.804  1.00  0.00     0.069 A 
HETATM   10  C   UNL     1      41.388  -7.793  16.969  1.00  0.00     0.050 A 
ENDROOT
BRANCH   9  11
HETATM   11  C   UNL     1      41.890  -7.715  14.504  1.00  0.00    -0.004 A 
HETATM   12  C   UNL     1      40.957  -8.581  13.900  1.00  0.00     0.053 A 
HETATM   13  C   UNL     1      41.227  -9.230  12.686  1.00  0.00     0.102 A 
HETATM   14  C   UNL     1      42.466  -9.035  12.055  1.00  0.00     0.101 A 
HETATM   15  C   UNL     1      43.391  -8.157  12.622  1.00  0.00     0.040 A 
HETATM   16  C   UNL     1      43.103  -7.504  13.827  1.00  0.00     0.017 A 
BRANCH  13  17
HETATM   17  O   UNL     1      40.359 -10.094  12.065  1.00  0.00    -0.353 OA
HETATM   18  C   UNL     1      39.422 -10.778  12.887  1.00  0.00     0.210 C 
ENDBRANCH  13  17
BRANCH  14  19
HETATM   19  O   UNL     1      42.670  -9.718  10.882  1.00  0.00    -0.353 OA
HETATM   20  C   UNL     1      43.795 -10.582  10.820  1.00  0.00     0.210 C 
ENDBRANCH  14  19
ENDBRANCH   9  11
BRANCH   1  21
HETATM   21  C   UNL     1      40.865  -7.919  19.374  1.00  0.00     0.253 C 
HETATM   22  N   UNL     1      42.023  -8.255  20.048  1.00  0.00    -0.349 N 
HETATM   23  H   UNL     1      42.898  -8.124  19.555  1.00  0.00     0.163 HD
HETATM   24  O   UNL     1      39.737  -8.233  19.726  1.00  0.00    -0.268 OA
BRANCH  22  25
HETATM   25  C   UNL     1      42.076  -9.077  21.268  1.00  0.00     0.022 C 
HETATM   26  C   UNL     1      41.396 -10.433  21.031  1.00  0.00     0.037 C 
HETATM   27  C   UNL     1      41.426  -8.359  22.462  1.00  0.00     0.037 C 
HETATM   28  C   UNL     1      43.558  -9.319  21.609  1.00  0.00     0.037 C 
ENDBRANCH  22  25
ENDBRANCH   1  21
TORSDOF 5
ENDMDL
MODEL 9
REMARK VINA RESULT:      -7.2      4.240      6.335
REMARK  5 active torsions:
REMARK  status: ('A' for Active; 'I' for Inactive)
REMARK    1  A    between atoms: C_2  and  N_3 
REMARK       I    between atoms: N_3  and  C_4 
REMARK    2  A    between atoms: C_4  and  C_5 
REMARK    3  A    between atoms: C_13  and  C_14 
REMARK    4  A    between atoms: C_16  and  O_17 
REMARK    5  A    between atoms: C_19  and  O_20 
ROOT
HETATM    1  C   UNL     1      42.274 -10.841   6.730  1.00  0.00     0.046 A 
HETATM    2  C   UNL     1      43.433 -10.334   7.357  1.00  0.00     0.008 A 
HETATM    3  C   UNL     1      44.541 -11.201   7.398  1.00  0.00     0.068 A 
HETATM    4  C   UNL     1      45.715 -10.764   7.998  1.00  0.00     0.032 A 
HETATM    5  C   UNL     1      45.833  -9.491   8.558  1.00  0.00     0.002 A 
HETATM    6  C   UNL     1      44.752  -8.624   8.517  1.00  0.00     0.001 A 
HETATM    7  C   UNL     1      43.563  -9.038   7.920  1.00  0.00     0.015 A 
HETATM    8  N   UNL     1      44.525 -12.439   6.874  1.00  0.00    -0.248 NA
HETATM    9  C   UNL     1      43.397 -12.915   6.294  1.00  0.00     0.069 A 
HETATM   10  C   UNL     1      42.255 -12.139   6.207  1.00  0.00     0.050 A 
ENDROOT
BRANCH   9  11
HETATM   11  C   UNL     1      43.485 -14.283   5.737  1.00  0.00    -0.004 A 
HETATM   12  C   UNL     1      42.921 -14.584   4.481  1.00  0.00     0.053 A 
HETATM   13  C   UNL     1      42.957 -15.878   3.943  1.00  0.00     0.102 A 
HETATM   14  C   UNL     1      43.554 -16.918   4.676  1.00  0.00     0.101 A 
HETATM   15  C   UNL     1      44.145 -16.634   5.907  1.00  0.00     0.040 A 
HETATM   16  C   UNL     1      44.114 -15.333   6.427  1.00  0.00     0.017 A 
BRANCH  13  17
HETATM   17  O   UNL     1      42.409 -16.225   2.733  1.00  0.00    -0.353 OA
HETATM   18  C   UNL     1      41.024 -15.968   2.548  1.00  0.00     0.210 C 
ENDBRANCH  13  17
BRANCH  14  19
HETATM   19  O   UNL     1      43.535 -18.163   4.098  1.00  0.00    -0.353 OA
HETATM   20  C   UNL     1      44.212 -19.207   4.781  1.00  0.00     0.210 C 
ENDBRANCH  14  19
ENDBRANCH   9  11
BRANCH   1  21
HETATM   21  C   UNL     1      41.023 -10.044   6.616  1.00  0.00     0.253 C 
HETATM   22  N   UNL     1      40.845  -9.418   5.397  1.00  0.00    -0.349 N 
HETATM   23  H   UNL     1      41.650  -9.363   4.785  1.00  0.00     0.163 HD
HETATM   24  O   UNL     1      40.237  -9.986   7.551  1.00  0.00    -0.268 OA
BRANCH  22  25
HETATM   25  C   UNL     1      39.705  -8.552   5.057  1.00  0.00     0.022 C 
HETATM   26  C   UNL     1      39.642  -7.349   6.008  1.00  0.00     0.037 C 
HETATM   27  C   UNL     1      38.377  -9.327   5.094  1.00  0.00     0.037 C 
HETATM   28  C   UNL     1      39.915  -8.038   3.621  1.00  0.00     0.037 C 
ENDBRANCH  22  25
ENDBRANCH   1  21
TORSDOF 5
ENDMDL
MODEL 10
REMARK VINA RESULT:      -7.1     14.892     18.765
REMARK  5 active torsions:
REMARK  status: ('A' for Active; 'I' for Inactive)
REMARK    1  A    between atoms: C_2  and  N_3 
REMARK       I    between atoms: N_3  and  C_4 
REMARK    2  A    between atoms: C_4  and  C_5 
REMARK    3  A    between atoms: C_13  and  C_14 
REMARK    4  A    between atoms: C_16  and  O_17 
REMARK    5  A    between atoms: C_19  and  O_20 
ROOT
HETATM    1  C   UNL     1      48.842 -29.606  -0.051  1.00  0.00     0.046 A 
HETATM    2  C   UNL     1      49.035 -29.658   1.346  1.00  0.00     0.008 A 
HETATM    3  C   UNL     1      50.177 -30.357   1.785  1.00  0.00     0.068 A 
HETATM    4  C   UNL     1      50.429 -30.443   3.147  1.00  0.00     0.032 A 
HETATM    5  C   UNL     1      49.590 -29.856   4.097  1.00  0.00     0.002 A 
HETATM    6  C   UNL     1      48.468 -29.159   3.679  1.00  0.00     0.001 A 
HETATM    7  C   UNL     1      48.192 -29.056   2.316  1.00  0.00     0.015 A 
HETATM    8  N   UNL     1      51.047 -30.942   0.944  1.00  0.00    -0.248 NA
HETATM    9  C   UNL     1      50.833 -30.898  -0.393  1.00  0.00     0.069 A 
HETATM   10  C   UNL     1      49.738 -30.238  -0.921  1.00  0.00     0.050 A 
ENDROOT
BRANCH   9  11
HETATM   11  C   UNL     1      51.854 -31.562  -1.233  1.00  0.00    -0.004 A 
HETATM   12  C   UNL     1      52.749 -32.495  -0.671  1.00  0.00     0.053 A 
HETATM   13  C   UNL     1      53.750 -33.114  -1.434  1.00  0.00     0.102 A 
HETATM   14  C   UNL     1      53.887 -32.789  -2.794  1.00  0.00     0.101 A 
HETATM   15  C   UNL     1      52.992 -31.890  -3.375  1.00  0.00     0.040 A 
HETATM   16  C   UNL     1      51.987 -31.290  -2.604  1.00  0.00     0.017 A 
BRANCH  13  17
HETATM   17  O   UNL     1      54.654 -34.017  -0.931  1.00  0.00    -0.353 OA
HETATM   18  C   UNL     1      54.156 -35.292  -0.548  1.00  0.00     0.210 C 
ENDBRANCH  13  17
BRANCH  14  19
HETATM   19  O   UNL     1      54.901 -33.416  -3.473  1.00  0.00    -0.353 OA
HETATM   20  C   UNL     1      55.361 -32.801  -4.668  1.00  0.00     0.210 C 
ENDBRANCH  14  19
ENDBRANCH   9  11
BRANCH   1  21
HETATM   21  C   UNL     1      47.678 -28.910  -0.663  1.00  0.00     0.253 C 
HETATM   22  N   UNL     1      46.667 -29.745  -1.098  1.00  0.00    -0.349 N 
HETATM   23  H   UNL     1      46.884 -30.731  -1.173  1.00  0.00     0.163 HD
HETATM   24  O   UNL     1      47.657 -27.690  -0.743  1.00  0.00    -0.268 OA
BRANCH  22  25
HETATM   25  C   UNL     1      45.433 -29.294  -1.762  1.00  0.00     0.022 C 
HETATM   26  C   UNL     1      45.762 -28.587  -3.083  1.00  0.00     0.037 C 
HETATM   27  C   UNL     1      44.610 -28.365  -0.854  1.00  0.00     0.037 C 
HETATM   28  C   UNL     1      44.579 -30.539  -2.065  1.00  0.00     0.037 C 
ENDBRANCH  22  25
ENDBRANCH   1  21
TORSDOF 5
ENDMDL
