MODEL 1
REMARK VINA RESULT:      -6.7      0.000      0.000
REMARK  10 active torsions:
REMARK  status: ('A' for Active; 'I' for Inactive)
REMARK    1  A    between atoms: O_2  and  C_3 
REMARK    2  A    between atoms: C_6  and  N_7 
REMARK    3  A    between atoms: N_7  and  C_8 
REMARK    4  A    between atoms: C_8  and  N_9 
REMARK    5  A    between atoms: N_9  and  N_10 
REMARK       I    between atoms: N_10  and  C_11 
REMARK    6  A    between atoms: C_11  and  C_12 
REMARK    7  A    between atoms: C_12  and  S_13 
REMARK    8  A    between atoms: S_13  and  C_14 
REMARK    9  A    between atoms: C_14  and  C_15 
REMARK       I    between atoms: C_15  and  N_16 
REMARK   10  A    between atoms: N_16  and  C_17 
ROOT
HETATM    1  N   UNL     1      39.922 -12.761   6.530  1.00  0.00    -0.267 N 
HETATM    2  C   UNL     1      39.548 -11.445   6.523  1.00  0.00     0.245 C 
HETATM    3  O   UNL     1      38.359 -11.159   6.674  1.00  0.00    -0.271 OA
HETATM    4  H   UNL     1      39.189 -13.453   6.678  1.00  0.00     0.190 HD
ENDROOT
BRANCH   1   5
HETATM    5  N   UNL     1      41.211 -13.236   6.302  1.00  0.00    -0.274 N 
HETATM    6  H   UNL     1      41.981 -12.568   6.298  1.00  0.00     0.189 HD
BRANCH   5   7
HETATM    7  C   UNL     1      41.466 -14.573   6.137  1.00  0.00     0.191 C 
HETATM    8  S   UNL     1      40.390 -15.801   6.510  1.00  0.00    -0.039 SA
BRANCH   7   9
HETATM    9  N   UNL     1      42.708 -14.919   5.683  1.00  0.00    -0.332 N 
HETATM   10  H   UNL     1      43.458 -14.416   6.148  1.00  0.00     0.168 HD
BRANCH   9  11
HETATM   11  C   UNL     1      43.117 -15.968   4.833  1.00  0.00     0.034 A 
HETATM   12  C   UNL     1      43.793 -17.040   5.420  1.00  0.00     0.032 A 
HETATM   13  C   UNL     1      44.193 -18.134   4.648  1.00  0.00     0.039 A 
HETATM   14  C   UNL     1      43.902 -18.190   3.284  1.00  0.00     0.068 A 
HETATM   15  C   UNL     1      43.208 -17.132   2.699  1.00  0.00     0.039 A 
HETATM   16  C   UNL     1      42.810 -16.032   3.471  1.00  0.00     0.032 A 
BRANCH  14  17
HETATM   17  O   UNL     1      44.336 -19.319   2.650  1.00  0.00    -0.356 OA
HETATM   18  C   UNL     1      43.729 -20.547   3.035  1.00  0.00     0.210 C 
ENDBRANCH  14  17
ENDBRANCH   9  11
ENDBRANCH   7   9
ENDBRANCH   5   7
ENDBRANCH   1   5
BRANCH   2  19
HETATM   19  C   UNL     1      40.593 -10.353   6.405  1.00  0.00     0.178 C 
BRANCH  19  20
HETATM   20  S   UNL     1      40.799  -9.602   4.755  1.00  0.00    -0.150 SA
BRANCH  20  21
HETATM   21  C   UNL     1      42.365 -10.343   4.196  1.00  0.00     0.177 C 
BRANCH  21  22
HETATM   22  C   UNL     1      42.262 -11.763   3.668  1.00  0.00     0.231 C 
HETATM   23  N   UNL     1      41.094 -12.030   2.978  1.00  0.00    -0.327 N 
HETATM   24  H   UNL     1      40.391 -11.299   2.989  1.00  0.00     0.169 HD
HETATM   25  O   UNL     1      43.222 -12.520   3.795  1.00  0.00    -0.272 OA
BRANCH  23  26
HETATM   26  C   UNL     1      40.771 -13.206   2.269  1.00  0.00     0.034 A 
HETATM   27  C   UNL     1      41.213 -13.484   0.974  1.00  0.00     0.029 A 
HETATM   28  C   UNL     1      40.830 -14.662   0.327  1.00  0.00     0.002 A 
HETATM   29  C   UNL     1      40.002 -15.578   0.971  1.00  0.00     0.000 A 
HETATM   30  C   UNL     1      39.561 -15.317   2.265  1.00  0.00     0.002 A 
HETATM   31  C   UNL     1      39.944 -14.137   2.912  1.00  0.00     0.029 A 
ENDBRANCH  23  26
ENDBRANCH  21  22
ENDBRANCH  20  21
ENDBRANCH  19  20
ENDBRANCH   2  19
TORSDOF 10
ENDMDL
MODEL 2
REMARK VINA RESULT:      -6.5      4.420      6.855
REMARK  10 active torsions:
REMARK  status: ('A' for Active; 'I' for Inactive)
REMARK    1  A    between atoms: O_2  and  C_3 
REMARK    2  A    between atoms: C_6  and  N_7 
REMARK    3  A    between atoms: N_7  and  C_8 
REMARK    4  A    between atoms: C_8  and  N_9 
REMARK    5  A    between atoms: N_9  and  N_10 
REMARK       I    between atoms: N_10  and  C_11 
REMARK    6  A    between atoms: C_11  and  C_12 
REMARK    7  A    between atoms: C_12  and  S_13 
REMARK    8  A    between atoms: S_13  and  C_14 
REMARK    9  A    between atoms: C_14  and  C_15 
REMARK       I    between atoms: C_15  and  N_16 
REMARK   10  A    between atoms: N_16  and  C_17 
ROOT
HETATM    1  N   UNL     1      42.806 -12.362   7.133  1.00  0.00    -0.267 N 
HETATM    2  C   UNL     1      43.281 -11.079   7.092  1.00  0.00     0.245 C 
HETATM    3  O   UNL     1      42.653 -10.188   7.667  1.00  0.00    -0.271 OA
HETATM    4  H   UNL     1      41.949 -12.525   7.660  1.00  0.00     0.190 HD
ENDROOT
BRANCH   1   5
HETATM    5  N   UNL     1      43.367 -13.452   6.475  1.00  0.00    -0.274 N 
HETATM    6  H   UNL     1      44.370 -13.608   6.561  1.00  0.00     0.189 HD
BRANCH   5   7
HETATM    7  C   UNL     1      42.596 -14.338   5.765  1.00  0.00     0.191 C 
HETATM    8  S   UNL     1      41.150 -14.987   6.305  1.00  0.00    -0.039 SA
BRANCH   7   9
HETATM    9  N   UNL     1      43.077 -14.751   4.555  1.00  0.00    -0.332 N 
HETATM   10  H   UNL     1      43.449 -13.991   3.992  1.00  0.00     0.168 HD
BRANCH   9  11
HETATM   11  C   UNL     1      43.310 -16.048   4.051  1.00  0.00     0.034 A 
HETATM   12  C   UNL     1      43.977 -16.948   4.885  1.00  0.00     0.032 A 
HETATM   13  C   UNL     1      44.206 -18.263   4.470  1.00  0.00     0.039 A 
HETATM   14  C   UNL     1      43.750 -18.709   3.229  1.00  0.00     0.068 A 
HETATM   15  C   UNL     1      43.064 -17.820   2.403  1.00  0.00     0.039 A 
HETATM   16  C   UNL     1      42.837 -16.500   2.816  1.00  0.00     0.032 A 
BRANCH  14  17
HETATM   17  O   UNL     1      44.027 -20.017   2.952  1.00  0.00    -0.356 OA
HETATM   18  C   UNL     1      43.567 -20.523   1.704  1.00  0.00     0.210 C 
ENDBRANCH  14  17
ENDBRANCH   9  11
ENDBRANCH   7   9
ENDBRANCH   5   7
ENDBRANCH   1   5
BRANCH   2  19
HETATM   19  C   UNL     1      44.599 -10.773   6.410  1.00  0.00     0.178 C 
BRANCH  19  20
HETATM   20  S   UNL     1      46.080 -10.756   7.477  1.00  0.00    -0.150 SA
BRANCH  20  21
HETATM   21  C   UNL     1      45.741  -9.339   8.570  1.00  0.00     0.177 C 
BRANCH  21  22
HETATM   22  C   UNL     1      45.137  -9.687   9.919  1.00  0.00     0.231 C 
HETATM   23  N   UNL     1      44.113  -8.848  10.318  1.00  0.00    -0.327 N 
HETATM   24  H   UNL     1      43.948  -8.036   9.733  1.00  0.00     0.169 HD
HETATM   25  O   UNL     1      45.510 -10.705  10.496  1.00  0.00    -0.272 OA
BRANCH  23  26
HETATM   26  C   UNL     1      43.282  -8.992  11.448  1.00  0.00     0.034 A 
HETATM   27  C   UNL     1      42.262  -9.940  11.551  1.00  0.00     0.029 A 
HETATM   28  C   UNL     1      41.463 -10.005  12.697  1.00  0.00     0.002 A 
HETATM   29  C   UNL     1      41.679  -9.125  13.753  1.00  0.00     0.000 A 
HETATM   30  C   UNL     1      42.698  -8.181  13.666  1.00  0.00     0.002 A 
HETATM   31  C   UNL     1      43.497  -8.114  12.519  1.00  0.00     0.029 A 
ENDBRANCH  23  26
ENDBRANCH  21  22
ENDBRANCH  20  21
ENDBRANCH  19  20
ENDBRANCH   2  19
TORSDOF 10
ENDMDL
MODEL 3
REMARK VINA RESULT:      -6.5      1.971      3.878
REMARK  10 active torsions:
REMARK  status: ('A' for Active; 'I' for Inactive)
REMARK    1  A    between atoms: O_2  and  C_3 
REMARK    2  A    between atoms: C_6  and  N_7 
REMARK    3  A    between atoms: N_7  and  C_8 
REMARK    4  A    between atoms: C_8  and  N_9 
REMARK    5  A    between atoms: N_9  and  N_10 
REMARK       I    between atoms: N_10  and  C_11 
REMARK    6  A    between atoms: C_11  and  C_12 
REMARK    7  A    between atoms: C_12  and  S_13 
REMARK    8  A    between atoms: S_13  and  C_14 
REMARK    9  A    between atoms: C_14  and  C_15 
REMARK       I    between atoms: C_15  and  N_16 
REMARK   10  A    between atoms: N_16  and  C_17 
ROOT
HETATM    1  N   UNL     1      39.124 -13.045   4.247  1.00  0.00    -0.267 N 
HETATM    2  C   UNL     1      39.394 -12.321   5.375  1.00  0.00     0.245 C 
HETATM    3  O   UNL     1      39.290 -12.865   6.477  1.00  0.00    -0.271 OA
HETATM    4  H   UNL     1      38.861 -14.021   4.371  1.00  0.00     0.190 HD
ENDROOT
BRANCH   1   5
HETATM    5  N   UNL     1      39.130 -12.547   2.947  1.00  0.00    -0.274 N 
HETATM    6  H   UNL     1      38.402 -11.890   2.675  1.00  0.00     0.189 HD
BRANCH   5   7
HETATM    7  C   UNL     1      40.117 -12.881   2.054  1.00  0.00     0.191 C 
HETATM    8  S   UNL     1      39.948 -12.836   0.388  1.00  0.00    -0.039 SA
BRANCH   7   9
HETATM    9  N   UNL     1      41.300 -13.327   2.571  1.00  0.00    -0.332 N 
HETATM   10  H   UNL     1      41.704 -12.691   3.253  1.00  0.00     0.168 HD
BRANCH   9  11
HETATM   11  C   UNL     1      41.940 -14.579   2.458  1.00  0.00     0.034 A 
HETATM   12  C   UNL     1      41.334 -15.666   3.091  1.00  0.00     0.032 A 
HETATM   13  C   UNL     1      41.887 -16.945   2.988  1.00  0.00     0.039 A 
HETATM   14  C   UNL     1      43.039 -17.165   2.231  1.00  0.00     0.068 A 
HETATM   15  C   UNL     1      43.634 -16.087   1.580  1.00  0.00     0.039 A 
HETATM   16  C   UNL     1      43.082 -14.803   1.685  1.00  0.00     0.032 A 
BRANCH  14  17
HETATM   17  O   UNL     1      43.467 -18.462   2.202  1.00  0.00    -0.356 OA
HETATM   18  C   UNL     1      43.905 -19.024   3.434  1.00  0.00     0.210 C 
ENDBRANCH  14  17
ENDBRANCH   9  11
ENDBRANCH   7   9
ENDBRANCH   5   7
ENDBRANCH   1   5
BRANCH   2  19
HETATM   19  C   UNL     1      39.886 -10.891   5.268  1.00  0.00     0.178 C 
BRANCH  19  20
HETATM   20  S   UNL     1      40.849 -10.255   6.681  1.00  0.00    -0.150 SA
BRANCH  20  21
HETATM   21  C   UNL     1      42.561 -10.529   6.126  1.00  0.00     0.177 C 
BRANCH  21  22
HETATM   22  C   UNL     1      42.902 -11.960   5.748  1.00  0.00     0.231 C 
HETATM   23  N   UNL     1      42.662 -12.885   6.747  1.00  0.00    -0.327 N 
HETATM   24  H   UNL     1      42.394 -12.509   7.649  1.00  0.00     0.169 HD
HETATM   25  O   UNL     1      43.256 -12.206   4.597  1.00  0.00    -0.272 OA
BRANCH  23  26
HETATM   26  C   UNL     1      42.757 -14.289   6.651  1.00  0.00     0.034 A 
HETATM   27  C   UNL     1      41.670 -15.156   6.777  1.00  0.00     0.029 A 
HETATM   28  C   UNL     1      41.848 -16.540   6.694  1.00  0.00     0.002 A 
HETATM   29  C   UNL     1      43.116 -17.071   6.481  1.00  0.00     0.000 A 
HETATM   30  C   UNL     1      44.208 -16.219   6.346  1.00  0.00     0.002 A 
HETATM   31  C   UNL     1      44.030 -14.833   6.430  1.00  0.00     0.029 A 
ENDBRANCH  23  26
ENDBRANCH  21  22
ENDBRANCH  20  21
ENDBRANCH  19  20
ENDBRANCH   2  19
TORSDOF 10
ENDMDL
MODEL 4
REMARK VINA RESULT:      -6.5      1.881      2.385
REMARK  10 active torsions:
REMARK  status: ('A' for Active; 'I' for Inactive)
REMARK    1  A    between atoms: O_2  and  C_3 
REMARK    2  A    between atoms: C_6  and  N_7 
REMARK    3  A    between atoms: N_7  and  C_8 
REMARK    4  A    between atoms: C_8  and  N_9 
REMARK    5  A    between atoms: N_9  and  N_10 
REMARK       I    between atoms: N_10  and  C_11 
REMARK    6  A    between atoms: C_11  and  C_12 
REMARK    7  A    between atoms: C_12  and  S_13 
REMARK    8  A    between atoms: S_13  and  C_14 
REMARK    9  A    between atoms: C_14  and  C_15 
REMARK       I    between atoms: C_15  and  N_16 
REMARK   10  A    between atoms: N_16  and  C_17 
ROOT
HETATM    1  N   UNL     1      43.677 -13.287   7.249  1.00  0.00    -0.267 N 
HETATM    2  C   UNL     1      43.980 -11.959   7.388  1.00  0.00     0.245 C 
HETATM    3  O   UNL     1      44.380 -11.546   8.478  1.00  0.00    -0.271 OA
HETATM    4  H   UNL     1      43.814 -13.883   8.063  1.00  0.00     0.190 HD
ENDROOT
BRANCH   1   5
HETATM    5  N   UNL     1      43.150 -13.879   6.105  1.00  0.00    -0.274 N 
HETATM    6  H   UNL     1      43.675 -13.807   5.235  1.00  0.00     0.189 HD
BRANCH   5   7
HETATM    7  C   UNL     1      41.980 -14.594   6.139  1.00  0.00     0.191 C 
HETATM    8  S   UNL     1      40.449 -13.915   6.129  1.00  0.00    -0.039 SA
BRANCH   7   9
HETATM    9  N   UNL     1      42.083 -15.953   6.240  1.00  0.00    -0.332 N 
HETATM   10  H   UNL     1      41.529 -16.341   6.998  1.00  0.00     0.168 HD
BRANCH   9  11
HETATM   11  C   UNL     1      42.665 -16.898   5.369  1.00  0.00     0.034 A 
HETATM   12  C   UNL     1      42.474 -16.707   3.999  1.00  0.00     0.032 A 
HETATM   13  C   UNL     1      43.056 -17.579   3.074  1.00  0.00     0.039 A 
HETATM   14  C   UNL     1      43.858 -18.639   3.500  1.00  0.00     0.068 A 
HETATM   15  C   UNL     1      44.068 -18.820   4.865  1.00  0.00     0.039 A 
HETATM   16  C   UNL     1      43.482 -17.948   5.794  1.00  0.00     0.032 A 
BRANCH  14  17
HETATM   17  O   UNL     1      44.375 -19.407   2.495  1.00  0.00    -0.356 OA
HETATM   18  C   UNL     1      43.531 -20.416   1.955  1.00  0.00     0.210 C 
ENDBRANCH  14  17
ENDBRANCH   9  11
ENDBRANCH   7   9
ENDBRANCH   5   7
ENDBRANCH   1   5
BRANCH   2  19
HETATM   19  C   UNL     1      43.894 -11.027   6.196  1.00  0.00     0.178 C 
BRANCH  19  20
HETATM   20  S   UNL     1      42.230 -10.422   5.757  1.00  0.00    -0.150 SA
BRANCH  20  21
HETATM   21  C   UNL     1      42.287 -10.448   3.937  1.00  0.00     0.177 C 
BRANCH  21  22
HETATM   22  C   UNL     1      42.143 -11.819   3.301  1.00  0.00     0.231 C 
HETATM   23  N   UNL     1      40.934 -12.028   2.664  1.00  0.00    -0.327 N 
HETATM   24  H   UNL     1      40.237 -11.300   2.779  1.00  0.00     0.169 HD
HETATM   25  O   UNL     1      43.106 -12.583   3.305  1.00  0.00    -0.272 OA
BRANCH  23  26
HETATM   26  C   UNL     1      40.563 -13.140   1.881  1.00  0.00     0.034 A 
HETATM   27  C   UNL     1      40.265 -14.400   2.405  1.00  0.00     0.029 A 
HETATM   28  C   UNL     1      39.928 -15.462   1.562  1.00  0.00     0.002 A 
HETATM   29  C   UNL     1      39.882 -15.275   0.184  1.00  0.00     0.000 A 
HETATM   30  C   UNL     1      40.169 -14.023  -0.352  1.00  0.00     0.002 A 
HETATM   31  C   UNL     1      40.508 -12.960   0.492  1.00  0.00     0.029 A 
ENDBRANCH  23  26
ENDBRANCH  21  22
ENDBRANCH  20  21
ENDBRANCH  19  20
ENDBRANCH   2  19
TORSDOF 10
ENDMDL
MODEL 5
REMARK VINA RESULT:      -6.5      3.740      6.306
REMARK  10 active torsions:
REMARK  status: ('A' for Active; 'I' for Inactive)
REMARK    1  A    between atoms: O_2  and  C_3 
REMARK    2  A    between atoms: C_6  and  N_7 
REMARK    3  A    between atoms: N_7  and  C_8 
REMARK    4  A    between atoms: C_8  and  N_9 
REMARK    5  A    between atoms: N_9  and  N_10 
REMARK       I    between atoms: N_10  and  C_11 
REMARK    6  A    between atoms: C_11  and  C_12 
REMARK    7  A    between atoms: C_12  and  S_13 
REMARK    8  A    between atoms: S_13  and  C_14 
REMARK    9  A    between atoms: C_14  and  C_15 
REMARK       I    between atoms: C_15  and  N_16 
REMARK   10  A    between atoms: N_16  and  C_17 
ROOT
HETATM    1  N   UNL     1      39.418 -13.171   4.359  1.00  0.00    -0.267 N 
HETATM    2  C   UNL     1      40.054 -12.913   5.543  1.00  0.00     0.245 C 
HETATM    3  O   UNL     1      39.391 -12.865   6.581  1.00  0.00    -0.271 OA
HETATM    4  H   UNL     1      38.412 -13.331   4.395  1.00  0.00     0.190 HD
ENDROOT
BRANCH   1   5
HETATM    5  N   UNL     1      40.022 -13.185   3.105  1.00  0.00    -0.274 N 
HETATM    6  H   UNL     1      40.455 -12.329   2.765  1.00  0.00     0.189 HD
BRANCH   5   7
HETATM    7  C   UNL     1      40.088 -14.330   2.351  1.00  0.00     0.191 C 
HETATM    8  S   UNL     1      40.091 -14.370   0.678  1.00  0.00    -0.039 SA
BRANCH   7   9
HETATM    9  N   UNL     1      40.102 -15.519   3.025  1.00  0.00    -0.332 N 
HETATM   10  H   UNL     1      39.198 -15.982   3.039  1.00  0.00     0.168 HD
BRANCH   9  11
HETATM   11  C   UNL     1      41.179 -16.279   3.528  1.00  0.00     0.034 A 
HETATM   12  C   UNL     1      41.957 -16.977   2.601  1.00  0.00     0.032 A 
HETATM   13  C   UNL     1      43.065 -17.717   3.020  1.00  0.00     0.039 A 
HETATM   14  C   UNL     1      43.432 -17.752   4.366  1.00  0.00     0.068 A 
HETATM   15  C   UNL     1      42.673 -17.039   5.291  1.00  0.00     0.039 A 
HETATM   16  C   UNL     1      41.558 -16.299   4.872  1.00  0.00     0.032 A 
BRANCH  14  17
HETATM   17  O   UNL     1      44.542 -18.501   4.639  1.00  0.00    -0.356 OA
HETATM   18  C   UNL     1      44.362 -19.910   4.726  1.00  0.00     0.210 C 
ENDBRANCH  14  17
ENDBRANCH   9  11
ENDBRANCH   7   9
ENDBRANCH   5   7
ENDBRANCH   1   5
BRANCH   2  19
HETATM   19  C   UNL     1      41.561 -12.761   5.585  1.00  0.00     0.178 C 
BRANCH  19  20
HETATM   20  S   UNL     1      42.200 -11.174   6.221  1.00  0.00    -0.150 SA
BRANCH  20  21
HETATM   21  C   UNL     1      43.737 -11.691   7.048  1.00  0.00     0.177 C 
BRANCH  21  22
HETATM   22  C   UNL     1      44.088 -10.922   8.310  1.00  0.00     0.231 C 
HETATM   23  N   UNL     1      43.020 -10.263   8.890  1.00  0.00    -0.327 N 
HETATM   24  H   UNL     1      42.153 -10.268   8.365  1.00  0.00     0.169 HD
HETATM   25  O   UNL     1      45.224 -11.013   8.769  1.00  0.00    -0.272 OA
BRANCH  23  26
HETATM   26  C   UNL     1      43.007  -9.580  10.124  1.00  0.00     0.034 A 
HETATM   27  C   UNL     1      43.020  -8.189  10.247  1.00  0.00     0.029 A 
HETATM   28  C   UNL     1      43.030  -7.585  11.508  1.00  0.00     0.002 A 
HETATM   29  C   UNL     1      43.025  -8.366  12.659  1.00  0.00     0.000 A 
HETATM   30  C   UNL     1      43.004  -9.754  12.551  1.00  0.00     0.002 A 
HETATM   31  C   UNL     1      42.995 -10.359  11.289  1.00  0.00     0.029 A 
ENDBRANCH  23  26
ENDBRANCH  21  22
ENDBRANCH  20  21
ENDBRANCH  19  20
ENDBRANCH   2  19
TORSDOF 10
ENDMDL
MODEL 6
REMARK VINA RESULT:      -6.5      1.841      2.161
REMARK  10 active torsions:
REMARK  status: ('A' for Active; 'I' for Inactive)
REMARK    1  A    between atoms: O_2  and  C_3 
REMARK    2  A    between atoms: C_6  and  N_7 
REMARK    3  A    between atoms: N_7  and  C_8 
REMARK    4  A    between atoms: C_8  and  N_9 
REMARK    5  A    between atoms: N_9  and  N_10 
REMARK       I    between atoms: N_10  and  C_11 
REMARK    6  A    between atoms: C_11  and  C_12 
REMARK    7  A    between atoms: C_12  and  S_13 
REMARK    8  A    between atoms: S_13  and  C_14 
REMARK    9  A    between atoms: C_14  and  C_15 
REMARK       I    between atoms: C_15  and  N_16 
REMARK   10  A    between atoms: N_16  and  C_17 
ROOT
HETATM    1  N   UNL     1      40.329 -13.286   6.385  1.00  0.00    -0.267 N 
HETATM    2  C   UNL     1      39.509 -12.338   5.836  1.00  0.00     0.245 C 
HETATM    3  O   UNL     1      38.846 -11.615   6.581  1.00  0.00    -0.271 OA
HETATM    4  H   UNL     1      40.365 -13.339   7.401  1.00  0.00     0.190 HD
ENDROOT
BRANCH   1   5
HETATM    5  N   UNL     1      41.079 -14.217   5.670  1.00  0.00    -0.274 N 
HETATM    6  H   UNL     1      40.598 -15.010   5.252  1.00  0.00     0.189 HD
BRANCH   5   7
HETATM    7  C   UNL     1      42.428 -14.058   5.478  1.00  0.00     0.191 C 
HETATM    8  S   UNL     1      43.455 -13.269   6.540  1.00  0.00    -0.039 SA
BRANCH   7   9
HETATM    9  N   UNL     1      42.952 -14.538   4.311  1.00  0.00    -0.332 N 
HETATM   10  H   UNL     1      43.326 -13.808   3.710  1.00  0.00     0.168 HD
BRANCH   9  11
HETATM   11  C   UNL     1      43.223 -15.859   3.899  1.00  0.00     0.034 A 
HETATM   12  C   UNL     1      43.726 -16.738   4.860  1.00  0.00     0.032 A 
HETATM   13  C   UNL     1      43.980 -18.074   4.536  1.00  0.00     0.039 A 
HETATM   14  C   UNL     1      43.710 -18.561   3.256  1.00  0.00     0.068 A 
HETATM   15  C   UNL     1      43.187 -17.692   2.300  1.00  0.00     0.039 A 
HETATM   16  C   UNL     1      42.936 -16.352   2.623  1.00  0.00     0.032 A 
BRANCH  14  17
HETATM   17  O   UNL     1      43.990 -19.886   3.076  1.00  0.00    -0.356 OA
HETATM   18  C   UNL     1      43.590 -20.466   1.839  1.00  0.00     0.210 C 
ENDBRANCH  14  17
ENDBRANCH   9  11
ENDBRANCH   7   9
ENDBRANCH   5   7
ENDBRANCH   1   5
BRANCH   2  19
HETATM   19  C   UNL     1      39.475 -12.133   4.334  1.00  0.00     0.178 C 
BRANCH  19  20
HETATM   20  S   UNL     1      40.080 -10.525   3.721  1.00  0.00    -0.150 SA
BRANCH  20  21
HETATM   21  C   UNL     1      41.656 -10.989   2.936  1.00  0.00     0.177 C 
BRANCH  21  22
HETATM   22  C   UNL     1      41.557 -12.052   1.857  1.00  0.00     0.231 C 
HETATM   23  N   UNL     1      40.711 -11.727   0.813  1.00  0.00    -0.327 N 
HETATM   24  H   UNL     1      40.168 -10.878   0.926  1.00  0.00     0.169 HD
HETATM   25  O   UNL     1      42.280 -13.044   1.926  1.00  0.00    -0.272 OA
BRANCH  23  26
HETATM   26  C   UNL     1      40.515 -12.448  -0.383  1.00  0.00     0.034 A 
HETATM   27  C   UNL     1      41.024 -12.057  -1.623  1.00  0.00     0.029 A 
HETATM   28  C   UNL     1      40.766 -12.813  -2.771  1.00  0.00     0.002 A 
HETATM   29  C   UNL     1      39.997 -13.971  -2.689  1.00  0.00     0.000 A 
HETATM   30  C   UNL     1      39.490 -14.376  -1.458  1.00  0.00     0.002 A 
HETATM   31  C   UNL     1      39.748 -13.619  -0.310  1.00  0.00     0.029 A 
ENDBRANCH  23  26
ENDBRANCH  21  22
ENDBRANCH  20  21
ENDBRANCH  19  20
ENDBRANCH   2  19
TORSDOF 10
ENDMDL
MODEL 7
REMARK VINA RESULT:      -6.4      4.161      8.074
REMARK  10 active torsions:
REMARK  status: ('A' for Active; 'I' for Inactive)
REMARK    1  A    between atoms: O_2  and  C_3 
REMARK    2  A    between atoms: C_6  and  N_7 
REMARK    3  A    between atoms: N_7  and  C_8 
REMARK    4  A    between atoms: C_8  and  N_9 
REMARK    5  A    between atoms: N_9  and  N_10 
REMARK       I    between atoms: N_10  and  C_11 
REMARK    6  A    between atoms: C_11  and  C_12 
REMARK    7  A    between atoms: C_12  and  S_13 
REMARK    8  A    between atoms: S_13  and  C_14 
REMARK    9  A    between atoms: C_14  and  C_15 
REMARK       I    between atoms: C_15  and  N_16 
REMARK   10  A    between atoms: N_16  and  C_17 
ROOT
HETATM    1  N   UNL     1      43.357 -13.119   7.436  1.00  0.00    -0.267 N 
HETATM    2  C   UNL     1      42.929 -13.662   6.255  1.00  0.00     0.245 C 
HETATM    3  O   UNL     1      42.874 -14.888   6.144  1.00  0.00    -0.271 OA
HETATM    4  H   UNL     1      43.599 -13.765   8.185  1.00  0.00     0.190 HD
ENDROOT
BRANCH   1   5
HETATM    5  N   UNL     1      43.538 -11.761   7.681  1.00  0.00    -0.274 N 
HETATM    6  H   UNL     1      42.724 -11.200   7.929  1.00  0.00     0.189 HD
BRANCH   5   7
HETATM    7  C   UNL     1      44.781 -11.183   7.648  1.00  0.00     0.191 C 
HETATM    8  S   UNL     1      45.838 -11.272   6.352  1.00  0.00    -0.039 SA
BRANCH   7   9
HETATM    9  N   UNL     1      45.197 -10.533   8.776  1.00  0.00    -0.332 N 
HETATM   10  H   UNL     1      46.194 -10.625   8.946  1.00  0.00     0.168 HD
BRANCH   9  11
HETATM   11  C   UNL     1      44.521  -9.623   9.615  1.00  0.00     0.034 A 
HETATM   12  C   UNL     1      44.133  -8.404   9.055  1.00  0.00     0.032 A 
HETATM   13  C   UNL     1      43.423  -7.469   9.814  1.00  0.00     0.039 A 
HETATM   14  C   UNL     1      43.065  -7.746  11.134  1.00  0.00     0.068 A 
HETATM   15  C   UNL     1      43.430  -8.971  11.689  1.00  0.00     0.039 A 
HETATM   16  C   UNL     1      44.146  -9.907  10.930  1.00  0.00     0.032 A 
BRANCH  14  17
HETATM   17  O   UNL     1      42.361  -6.755  11.758  1.00  0.00    -0.356 OA
HETATM   18  C   UNL     1      42.090  -6.931  13.143  1.00  0.00     0.210 C 
ENDBRANCH  14  17
ENDBRANCH   9  11
ENDBRANCH   7   9
ENDBRANCH   5   7
ENDBRANCH   1   5
BRANCH   2  19
HETATM   19  C   UNL     1      42.460 -12.766   5.126  1.00  0.00     0.178 C 
BRANCH  19  20
HETATM   20  S   UNL     1      40.959 -13.300   4.236  1.00  0.00    -0.150 SA
BRANCH  20  21
HETATM   21  C   UNL     1      41.661 -14.230   2.836  1.00  0.00     0.177 C 
BRANCH  21  22
HETATM   22  C   UNL     1      41.682 -15.739   3.002  1.00  0.00     0.231 C 
HETATM   23  N   UNL     1      42.950 -16.290   3.038  1.00  0.00    -0.327 N 
HETATM   24  H   UNL     1      43.718 -15.657   2.843  1.00  0.00     0.169 HD
HETATM   25  O   UNL     1      40.624 -16.335   3.188  1.00  0.00    -0.272 OA
BRANCH  23  26
HETATM   26  C   UNL     1      43.290 -17.632   3.308  1.00  0.00     0.034 A 
HETATM   27  C   UNL     1      43.809 -18.076   4.526  1.00  0.00     0.029 A 
HETATM   28  C   UNL     1      44.145 -19.421   4.710  1.00  0.00     0.002 A 
HETATM   29  C   UNL     1      43.962 -20.336   3.677  1.00  0.00     0.000 A 
HETATM   30  C   UNL     1      43.438 -19.908   2.461  1.00  0.00     0.002 A 
HETATM   31  C   UNL     1      43.103 -18.562   2.277  1.00  0.00     0.029 A 
ENDBRANCH  23  26
ENDBRANCH  21  22
ENDBRANCH  20  21
ENDBRANCH  19  20
ENDBRANCH   2  19
TORSDOF 10
ENDMDL
MODEL 8
REMARK VINA RESULT:      -6.3      5.079      8.970
REMARK  10 active torsions:
REMARK  status: ('A' for Active; 'I' for Inactive)
REMARK    1  A    between atoms: O_2  and  C_3 
REMARK    2  A    between atoms: C_6  and  N_7 
REMARK    3  A    between atoms: N_7  and  C_8 
REMARK    4  A    between atoms: C_8  and  N_9 
REMARK    5  A    between atoms: N_9  and  N_10 
REMARK       I    between atoms: N_10  and  C_11 
REMARK    6  A    between atoms: C_11  and  C_12 
REMARK    7  A    between atoms: C_12  and  S_13 
REMARK    8  A    between atoms: S_13  and  C_14 
REMARK    9  A    between atoms: C_14  and  C_15 
REMARK       I    between atoms: C_15  and  N_16 
REMARK   10  A    between atoms: N_16  and  C_17 
ROOT
HETATM    1  N   UNL     1      44.861 -10.623   7.764  1.00  0.00    -0.267 N 
HETATM    2  C   UNL     1      44.746 -11.441   6.672  1.00  0.00     0.245 C 
HETATM    3  O   UNL     1      45.306 -11.121   5.622  1.00  0.00    -0.271 OA
HETATM    4  H   UNL     1      45.427  -9.783   7.659  1.00  0.00     0.190 HD
ENDROOT
BRANCH   1   5
HETATM    5  N   UNL     1      44.230 -10.819   8.989  1.00  0.00    -0.274 N 
HETATM    6  H   UNL     1      44.542 -11.588   9.579  1.00  0.00     0.189 HD
BRANCH   5   7
HETATM    7  C   UNL     1      43.245  -9.974   9.433  1.00  0.00     0.191 C 
HETATM    8  S   UNL     1      42.831  -8.526   8.700  1.00  0.00    -0.039 SA
BRANCH   7   9
HETATM    9  N   UNL     1      42.595 -10.324  10.583  1.00  0.00    -0.332 N 
HETATM   10  H   UNL     1      42.335 -11.306  10.612  1.00  0.00     0.168 HD
BRANCH   9  11
HETATM   11  C   UNL     1      42.402  -9.611  11.784  1.00  0.00     0.034 A 
HETATM   12  C   UNL     1      41.295  -9.957  12.562  1.00  0.00     0.032 A 
HETATM   13  C   UNL     1      41.062  -9.322  13.786  1.00  0.00     0.039 A 
HETATM   14  C   UNL     1      41.943  -8.352  14.265  1.00  0.00     0.068 A 
HETATM   15  C   UNL     1      43.061  -8.020  13.502  1.00  0.00     0.039 A 
HETATM   16  C   UNL     1      43.293  -8.653  12.273  1.00  0.00     0.032 A 
BRANCH  14  17
HETATM   17  O   UNL     1      41.607  -7.821  15.478  1.00  0.00    -0.356 OA
HETATM   18  C   UNL     1      42.012  -6.480  15.728  1.00  0.00     0.210 C 
ENDBRANCH  14  17
ENDBRANCH   9  11
ENDBRANCH   7   9
ENDBRANCH   5   7
ENDBRANCH   1   5
BRANCH   2  19
HETATM   19  C   UNL     1      44.002 -12.757   6.777  1.00  0.00     0.178 C 
BRANCH  19  20
HETATM   20  S   UNL     1      42.635 -13.013   5.596  1.00  0.00    -0.150 SA
BRANCH  20  21
HETATM   21  C   UNL     1      41.702 -14.363   6.386  1.00  0.00     0.177 C 
BRANCH  21  22
HETATM   22  C   UNL     1      41.684 -15.676   5.623  1.00  0.00     0.231 C 
HETATM   23  N   UNL     1      42.865 -15.969   4.967  1.00  0.00    -0.327 N 
HETATM   24  H   UNL     1      43.571 -15.241   4.971  1.00  0.00     0.169 HD
HETATM   25  O   UNL     1      40.701 -16.407   5.716  1.00  0.00    -0.272 OA
BRANCH  23  26
HETATM   26  C   UNL     1      43.192 -17.163   4.291  1.00  0.00     0.034 A 
HETATM   27  C   UNL     1      43.948 -18.196   4.849  1.00  0.00     0.029 A 
HETATM   28  C   UNL     1      44.251 -19.340   4.105  1.00  0.00     0.002 A 
HETATM   29  C   UNL     1      43.799 -19.464   2.795  1.00  0.00     0.000 A 
HETATM   30  C   UNL     1      43.037 -18.446   2.229  1.00  0.00     0.002 A 
HETATM   31  C   UNL     1      42.735 -17.300   2.973  1.00  0.00     0.029 A 
ENDBRANCH  23  26
ENDBRANCH  21  22
ENDBRANCH  20  21
ENDBRANCH  19  20
ENDBRANCH   2  19
TORSDOF 10
ENDMDL
MODEL 9
REMARK VINA RESULT:      -6.3      4.942      8.890
REMARK  10 active torsions:
REMARK  status: ('A' for Active; 'I' for Inactive)
REMARK    1  A    between atoms: O_2  and  C_3 
REMARK    2  A    between atoms: C_6  and  N_7 
REMARK    3  A    between atoms: N_7  and  C_8 
REMARK    4  A    between atoms: C_8  and  N_9 
REMARK    5  A    between atoms: N_9  and  N_10 
REMARK       I    between atoms: N_10  and  C_11 
REMARK    6  A    between atoms: C_11  and  C_12 
REMARK    7  A    between atoms: C_12  and  S_13 
REMARK    8  A    between atoms: S_13  and  C_14 
REMARK    9  A    between atoms: C_14  and  C_15 
REMARK       I    between atoms: C_15  and  N_16 
REMARK   10  A    between atoms: N_16  and  C_17 
ROOT
HETATM    1  N   UNL     1      43.733 -10.569   6.916  1.00  0.00    -0.267 N 
HETATM    2  C   UNL     1      44.010 -11.536   5.988  1.00  0.00     0.245 C 
HETATM    3  O   UNL     1      44.547 -11.213   4.927  1.00  0.00    -0.271 OA
HETATM    4  H   UNL     1      44.004  -9.614   6.688  1.00  0.00     0.190 HD
ENDROOT
BRANCH   1   5
HETATM    5  N   UNL     1      43.069 -10.773   8.122  1.00  0.00    -0.274 N 
HETATM    6  H   UNL     1      42.163 -11.239   8.104  1.00  0.00     0.189 HD
BRANCH   5   7
HETATM    7  C   UNL     1      43.628 -10.412   9.321  1.00  0.00     0.191 C 
HETATM    8  S   UNL     1      45.240 -10.017   9.540  1.00  0.00    -0.039 SA
BRANCH   7   9
HETATM    9  N   UNL     1      42.812 -10.428  10.418  1.00  0.00    -0.332 N 
HETATM   10  H   UNL     1      42.307 -11.302  10.528  1.00  0.00     0.168 HD
BRANCH   9  11
HETATM   11  C   UNL     1      42.705  -9.526  11.497  1.00  0.00     0.034 A 
HETATM   12  C   UNL     1      42.487 -10.069  12.765  1.00  0.00     0.032 A 
HETATM   13  C   UNL     1      42.411  -9.240  13.888  1.00  0.00     0.039 A 
HETATM   14  C   UNL     1      42.579  -7.860  13.768  1.00  0.00     0.068 A 
HETATM   15  C   UNL     1      42.819  -7.316  12.508  1.00  0.00     0.039 A 
HETATM   16  C   UNL     1      42.891  -8.146  11.381  1.00  0.00     0.032 A 
BRANCH  14  17
HETATM   17  O   UNL     1      42.496  -7.168  14.943  1.00  0.00    -0.356 OA
HETATM   18  C   UNL     1      41.198  -6.757  15.358  1.00  0.00     0.210 C 
ENDBRANCH  14  17
ENDBRANCH   9  11
ENDBRANCH   7   9
ENDBRANCH   5   7
ENDBRANCH   1   5
BRANCH   2  19
HETATM   19  C   UNL     1      43.726 -12.993   6.294  1.00  0.00     0.178 C 
BRANCH  19  20
HETATM   20  S   UNL     1      42.168 -13.673   5.631  1.00  0.00    -0.150 SA
BRANCH  20  21
HETATM   21  C   UNL     1      42.703 -14.354   4.030  1.00  0.00     0.177 C 
BRANCH  21  22
HETATM   22  C   UNL     1      42.413 -15.829   3.819  1.00  0.00     0.231 C 
HETATM   23  N   UNL     1      43.528 -16.592   3.523  1.00  0.00    -0.327 N 
HETATM   24  H   UNL     1      44.391 -16.082   3.370  1.00  0.00     0.169 HD
HETATM   25  O   UNL     1      41.275 -16.249   4.017  1.00  0.00    -0.272 OA
BRANCH  23  26
HETATM   26  C   UNL     1      43.594 -17.996   3.404  1.00  0.00     0.034 A 
HETATM   27  C   UNL     1      43.138 -18.707   2.292  1.00  0.00     0.029 A 
HETATM   28  C   UNL     1      43.216 -20.103   2.258  1.00  0.00     0.002 A 
HETATM   29  C   UNL     1      43.754 -20.801   3.335  1.00  0.00     0.000 A 
HETATM   30  C   UNL     1      44.220 -20.104   4.445  1.00  0.00     0.002 A 
HETATM   31  C   UNL     1      44.140 -18.707   4.481  1.00  0.00     0.029 A 
ENDBRANCH  23  26
ENDBRANCH  21  22
ENDBRANCH  20  21
ENDBRANCH  19  20
ENDBRANCH   2  19
TORSDOF 10
ENDMDL
MODEL 10
REMARK VINA RESULT:      -6.2      2.935      4.537
REMARK  10 active torsions:
REMARK  status: ('A' for Active; 'I' for Inactive)
REMARK    1  A    between atoms: O_2  and  C_3 
REMARK    2  A    between atoms: C_6  and  N_7 
REMARK    3  A    between atoms: N_7  and  C_8 
REMARK    4  A    between atoms: C_8  and  N_9 
REMARK    5  A    between atoms: N_9  and  N_10 
REMARK       I    between atoms: N_10  and  C_11 
REMARK    6  A    between atoms: C_11  and  C_12 
REMARK    7  A    between atoms: C_12  and  S_13 
REMARK    8  A    between atoms: S_13  and  C_14 
REMARK    9  A    between atoms: C_14  and  C_15 
REMARK       I    between atoms: C_15  and  N_16 
REMARK   10  A    between atoms: N_16  and  C_17 
ROOT
HETATM    1  N   UNL     1      37.964 -11.989   0.387  1.00  0.00    -0.267 N 
HETATM    2  C   UNL     1      38.080 -10.633   0.528  1.00  0.00     0.245 C 
HETATM    3  O   UNL     1      37.326  -9.897  -0.112  1.00  0.00    -0.271 OA
HETATM    4  H   UNL     1      37.237 -12.332  -0.238  1.00  0.00     0.190 HD
ENDROOT
BRANCH   1   5
HETATM    5  N   UNL     1      38.789 -12.937   0.987  1.00  0.00    -0.274 N 
HETATM    6  H   UNL     1      38.552 -13.264   1.922  1.00  0.00     0.189 HD
BRANCH   5   7
HETATM    7  C   UNL     1      39.869 -13.469   0.330  1.00  0.00     0.191 C 
HETATM    8  S   UNL     1      39.840 -14.043  -1.242  1.00  0.00    -0.039 SA
BRANCH   7   9
HETATM    9  N   UNL     1      41.035 -13.579   1.036  1.00  0.00    -0.332 N 
HETATM   10  H   UNL     1      41.428 -12.680   1.301  1.00  0.00     0.168 HD
BRANCH   9  11
HETATM   11  C   UNL     1      41.662 -14.706   1.605  1.00  0.00     0.034 A 
HETATM   12  C   UNL     1      40.848 -15.621   2.275  1.00  0.00     0.032 A 
HETATM   13  C   UNL     1      41.393 -16.784   2.829  1.00  0.00     0.039 A 
HETATM   14  C   UNL     1      42.754 -17.065   2.699  1.00  0.00     0.068 A 
HETATM   15  C   UNL     1      43.567 -16.165   2.011  1.00  0.00     0.039 A 
HETATM   16  C   UNL     1      43.021 -14.998   1.459  1.00  0.00     0.032 A 
BRANCH  14  17
HETATM   17  O   UNL     1      43.155 -18.238   3.273  1.00  0.00    -0.356 OA
HETATM   18  C   UNL     1      43.499 -19.301   2.392  1.00  0.00     0.210 C 
ENDBRANCH  14  17
ENDBRANCH   9  11
ENDBRANCH   7   9
ENDBRANCH   5   7
ENDBRANCH   1   5
BRANCH   2  19
HETATM   19  C   UNL     1      39.073 -10.048   1.512  1.00  0.00     0.178 C 
BRANCH  19  20
HETATM   20  S   UNL     1      38.575 -10.056   3.268  1.00  0.00    -0.150 SA
BRANCH  20  21
HETATM   21  C   UNL     1      40.108 -10.593   4.092  1.00  0.00     0.177 C 
BRANCH  21  22
HETATM   22  C   UNL     1      40.263 -12.093   4.266  1.00  0.00     0.231 C 
HETATM   23  N   UNL     1      41.276 -12.465   5.130  1.00  0.00    -0.327 N 
HETATM   24  H   UNL     1      41.872 -11.717   5.468  1.00  0.00     0.169 HD
HETATM   25  O   UNL     1      39.451 -12.844   3.730  1.00  0.00    -0.272 OA
BRANCH  23  26
HETATM   26  C   UNL     1      41.574 -13.766   5.587  1.00  0.00     0.034 A 
HETATM   27  C   UNL     1      42.839 -14.352   5.501  1.00  0.00     0.029 A 
HETATM   28  C   UNL     1      43.051 -15.658   5.954  1.00  0.00     0.002 A 
HETATM   29  C   UNL     1      42.001 -16.389   6.500  1.00  0.00     0.000 A 
HETATM   30  C   UNL     1      40.737 -15.814   6.598  1.00  0.00     0.002 A 
HETATM   31  C   UNL     1      40.524 -14.508   6.144  1.00  0.00     0.029 A 
ENDBRANCH  23  26
ENDBRANCH  21  22
ENDBRANCH  20  21
ENDBRANCH  19  20
ENDBRANCH   2  19
TORSDOF 10
ENDMDL
