MODEL 1
REMARK VINA RESULT:      -9.6      0.000      0.000
REMARK  8 active torsions:
REMARK  status: ('A' for Active; 'I' for Inactive)
REMARK    1  A    between atoms: C_5  and  C_6 
REMARK    2  A    between atoms: C_6  and  N_7 
REMARK       I    between atoms: N_7  and  C_8 
REMARK    3  A    between atoms: N_7  and  C_20 
REMARK    4  A    between atoms: C_8  and  C_9 
REMARK    5  A    between atoms: C_9  and  N_10 
REMARK    6  A    between atoms: C_20  and  C_21 
REMARK       I    between atoms: C_21  and  N_22 
REMARK    7  A    between atoms: N_22  and  C_23 
REMARK    8  A    between atoms: C_26  and  O_27 
ROOT
HETATM    1  N   UNL     1      42.922 -14.740   5.595  1.00  0.00    -0.338 N 
HETATM    2  C   UNL     1      43.447 -14.004   6.663  1.00  0.00     0.239 C 
HETATM    3  O   UNL     1      43.426 -14.455   7.816  1.00  0.00    -0.271 OA
ENDROOT
BRANCH   1   4
HETATM    4  C   UNL     1      42.542 -16.121   5.913  1.00  0.00     0.165 C 
BRANCH   4   5
HETATM    5  C   UNL     1      42.942 -17.124   4.853  1.00  0.00    -0.040 A 
HETATM    6  C   UNL     1      43.742 -18.224   5.184  1.00  0.00     0.009 A 
HETATM    7  C   UNL     1      44.075 -19.176   4.218  1.00  0.00     0.007 A 
HETATM    8  C   UNL     1      43.619 -19.041   2.901  1.00  0.00    -0.062 A 
HETATM    9  C   UNL     1      43.969 -20.080   1.877  1.00  0.00     0.048 C 
HETATM   10  C   UNL     1      42.846 -17.927   2.560  1.00  0.00     0.007 A 
HETATM   11  C   UNL     1      42.516 -16.973   3.526  1.00  0.00     0.009 A 
ENDBRANCH   4   5
ENDBRANCH   1   4
BRANCH   1  12
HETATM   12  C   UNL     1      42.130 -14.076   4.539  1.00  0.00     0.229 C 
BRANCH  12  13
HETATM   13  C   UNL     1      40.648 -13.883   4.847  1.00  0.00     0.240 C 
HETATM   14  N   UNL     1      39.706 -13.979   3.860  1.00  0.00    -0.326 N 
HETATM   15  H   UNL     1      38.774 -13.990   4.259  1.00  0.00     0.169 HD
HETATM   16  O   UNL     1      40.249 -13.695   6.003  1.00  0.00    -0.271 OA
BRANCH  14  17
HETATM   17  C   UNL     1      39.775 -14.120   2.461  1.00  0.00     0.034 A 
HETATM   18  C   UNL     1      39.780 -12.932   1.718  1.00  0.00     0.032 A 
HETATM   19  C   UNL     1      39.839 -12.957   0.319  1.00  0.00     0.039 A 
HETATM   20  C   UNL     1      39.902 -14.168  -0.366  1.00  0.00     0.068 A 
HETATM   21  C   UNL     1      39.940 -15.350   0.365  1.00  0.00     0.039 A 
HETATM   22  C   UNL     1      39.878 -15.324   1.767  1.00  0.00     0.032 A 
BRANCH  20  23
HETATM   23  O   UNL     1      39.942 -14.068  -1.728  1.00  0.00    -0.356 OA
HETATM   24  C   UNL     1      38.986 -14.841  -2.447  1.00  0.00     0.210 C 
ENDBRANCH  20  23
ENDBRANCH  14  17
ENDBRANCH  12  13
ENDBRANCH   1  12
BRANCH   2  25
HETATM   25  C   UNL     1      44.253 -12.755   6.379  1.00  0.00     0.250 C 
BRANCH  25  26
HETATM   26  N   UNL     1      43.698 -11.499   6.825  1.00  0.00    -0.263 N 
HETATM   27  N   UNL     1      42.389 -11.213   6.692  1.00  0.00     0.006 NA
HETATM   28  N   UNL     1      42.189 -10.002   7.197  1.00  0.00    -0.158 NA
HETATM   29  C   UNL     1      43.378  -9.551   7.708  1.00  0.00     0.102 A 
HETATM   30  C   UNL     1      44.367 -10.501   7.491  1.00  0.00     0.079 A 
HETATM   31  C   UNL     1      43.698  -8.360   8.375  1.00  0.00     0.035 A 
HETATM   32  C   UNL     1      45.690 -10.337   7.918  1.00  0.00     0.033 A 
HETATM   33  C   UNL     1      45.991  -9.149   8.592  1.00  0.00     0.002 A 
HETATM   34  C   UNL     1      45.016  -8.175   8.817  1.00  0.00     0.002 A 
ENDBRANCH  25  26
ENDBRANCH   2  25
TORSDOF 8
ENDMDL
MODEL 2
REMARK VINA RESULT:      -9.4      2.133      8.338
REMARK  8 active torsions:
REMARK  status: ('A' for Active; 'I' for Inactive)
REMARK    1  A    between atoms: C_5  and  C_6 
REMARK    2  A    between atoms: C_6  and  N_7 
REMARK       I    between atoms: N_7  and  C_8 
REMARK    3  A    between atoms: N_7  and  C_20 
REMARK    4  A    between atoms: C_8  and  C_9 
REMARK    5  A    between atoms: C_9  and  N_10 
REMARK    6  A    between atoms: C_20  and  C_21 
REMARK       I    between atoms: C_21  and  N_22 
REMARK    7  A    between atoms: N_22  and  C_23 
REMARK    8  A    between atoms: C_26  and  O_27 
ROOT
HETATM    1  N   UNL     1      41.225 -14.113   3.355  1.00  0.00    -0.338 N 
HETATM    2  C   UNL     1      41.625 -15.435   3.576  1.00  0.00     0.239 C 
HETATM    3  O   UNL     1      40.807 -16.362   3.530  1.00  0.00    -0.271 OA
ENDROOT
BRANCH   1   4
HETATM    4  C   UNL     1      39.846 -13.946   2.885  1.00  0.00     0.165 C 
BRANCH   4   5
HETATM    5  C   UNL     1      39.733 -13.705   1.395  1.00  0.00    -0.040 A 
HETATM    6  C   UNL     1      39.949 -14.752   0.490  1.00  0.00     0.009 A 
HETATM    7  C   UNL     1      39.801 -14.545  -0.883  1.00  0.00     0.007 A 
HETATM    8  C   UNL     1      39.442 -13.285  -1.376  1.00  0.00    -0.062 A 
HETATM    9  C   UNL     1      39.269 -13.080  -2.852  1.00  0.00     0.048 C 
HETATM   10  C   UNL     1      39.257 -12.230  -0.477  1.00  0.00     0.007 A 
HETATM   11  C   UNL     1      39.407 -12.437   0.896  1.00  0.00     0.009 A 
ENDBRANCH   4   5
ENDBRANCH   1   4
BRANCH   1  12
HETATM   12  C   UNL     1      41.767 -13.014   4.181  1.00  0.00     0.229 C 
BRANCH  12  13
HETATM   13  C   UNL     1      42.630 -11.995   3.442  1.00  0.00     0.240 C 
HETATM   14  N   UNL     1      43.564 -11.251   4.108  1.00  0.00    -0.326 N 
HETATM   15  H   UNL     1      44.155 -10.753   3.450  1.00  0.00     0.169 HD
HETATM   16  O   UNL     1      42.553 -11.854   2.216  1.00  0.00    -0.271 OA
BRANCH  14  17
HETATM   17  C   UNL     1      43.894 -11.094   5.468  1.00  0.00     0.034 A 
HETATM   18  C   UNL     1      45.205 -11.427   5.830  1.00  0.00     0.032 A 
HETATM   19  C   UNL     1      45.637 -11.314   7.157  1.00  0.00     0.039 A 
HETATM   20  C   UNL     1      44.770 -10.861   8.148  1.00  0.00     0.068 A 
HETATM   21  C   UNL     1      43.479 -10.488   7.791  1.00  0.00     0.039 A 
HETATM   22  C   UNL     1      43.047 -10.604   6.460  1.00  0.00     0.032 A 
BRANCH  20  23
HETATM   23  O   UNL     1      45.299 -10.806   9.407  1.00  0.00    -0.356 OA
HETATM   24  C   UNL     1      44.961  -9.662  10.185  1.00  0.00     0.210 C 
ENDBRANCH  20  23
ENDBRANCH  14  17
ENDBRANCH  12  13
ENDBRANCH   1  12
BRANCH   2  25
HETATM   25  C   UNL     1      43.101 -15.764   3.640  1.00  0.00     0.250 C 
BRANCH  25  26
HETATM   26  N   UNL     1      43.477 -16.974   4.333  1.00  0.00    -0.263 N 
HETATM   27  N   UNL     1      43.698 -16.993   5.661  1.00  0.00     0.006 NA
HETATM   28  N   UNL     1      44.013 -18.238   5.997  1.00  0.00    -0.158 NA
HETATM   29  C   UNL     1      43.928 -19.018   4.875  1.00  0.00     0.102 A 
HETATM   30  C   UNL     1      43.573 -18.231   3.788  1.00  0.00     0.079 A 
HETATM   31  C   UNL     1      44.125 -20.395   4.696  1.00  0.00     0.035 A 
HETATM   32  C   UNL     1      43.389 -18.746   2.500  1.00  0.00     0.033 A 
HETATM   33  C   UNL     1      43.577 -20.123   2.339  1.00  0.00     0.002 A 
HETATM   34  C   UNL     1      43.940 -20.936   3.415  1.00  0.00     0.002 A 
ENDBRANCH  25  26
ENDBRANCH   2  25
TORSDOF 8
ENDMDL
MODEL 3
REMARK VINA RESULT:      -9.3      2.396      3.737
REMARK  8 active torsions:
REMARK  status: ('A' for Active; 'I' for Inactive)
REMARK    1  A    between atoms: C_5  and  C_6 
REMARK    2  A    between atoms: C_6  and  N_7 
REMARK       I    between atoms: N_7  and  C_8 
REMARK    3  A    between atoms: N_7  and  C_20 
REMARK    4  A    between atoms: C_8  and  C_9 
REMARK    5  A    between atoms: C_9  and  N_10 
REMARK    6  A    between atoms: C_20  and  C_21 
REMARK       I    between atoms: C_21  and  N_22 
REMARK    7  A    between atoms: N_22  and  C_23 
REMARK    8  A    between atoms: C_26  and  O_27 
ROOT
HETATM    1  N   UNL     1      40.527 -11.996   5.876  1.00  0.00    -0.338 N 
HETATM    2  C   UNL     1      39.955 -11.004   6.680  1.00  0.00     0.239 C 
HETATM    3  O   UNL     1      38.996 -11.260   7.420  1.00  0.00    -0.271 OA
ENDROOT
BRANCH   1   4
HETATM    4  C   UNL     1      40.043 -13.358   6.124  1.00  0.00     0.165 C 
BRANCH   4   5
HETATM    5  C   UNL     1      41.124 -14.414   6.042  1.00  0.00    -0.040 A 
HETATM    6  C   UNL     1      40.790 -15.754   5.812  1.00  0.00     0.009 A 
HETATM    7  C   UNL     1      41.788 -16.724   5.690  1.00  0.00     0.007 A 
HETATM    8  C   UNL     1      43.138 -16.372   5.803  1.00  0.00    -0.062 A 
HETATM    9  C   UNL     1      44.200 -17.420   5.652  1.00  0.00     0.048 C 
HETATM   10  C   UNL     1      43.473 -15.040   6.064  1.00  0.00     0.007 A 
HETATM   11  C   UNL     1      42.475 -14.070   6.189  1.00  0.00     0.009 A 
ENDBRANCH   4   5
ENDBRANCH   1   4
BRANCH   1  12
HETATM   12  C   UNL     1      40.941 -11.697   4.489  1.00  0.00     0.229 C 
BRANCH  12  13
HETATM   13  C   UNL     1      39.901 -11.988   3.412  1.00  0.00     0.240 C 
HETATM   14  N   UNL     1      40.003 -13.096   2.617  1.00  0.00    -0.326 N 
HETATM   15  H   UNL     1      39.154 -13.225   2.077  1.00  0.00     0.169 HD
HETATM   16  O   UNL     1      38.906 -11.267   3.264  1.00  0.00    -0.271 OA
BRANCH  14  17
HETATM   17  C   UNL     1      40.990 -14.087   2.453  1.00  0.00     0.034 A 
HETATM   18  C   UNL     1      40.528 -15.397   2.263  1.00  0.00     0.032 A 
HETATM   19  C   UNL     1      41.423 -16.460   2.097  1.00  0.00     0.039 A 
HETATM   20  C   UNL     1      42.798 -16.237   2.108  1.00  0.00     0.068 A 
HETATM   21  C   UNL     1      43.265 -14.935   2.253  1.00  0.00     0.039 A 
HETATM   22  C   UNL     1      42.366 -13.870   2.423  1.00  0.00     0.032 A 
BRANCH  20  23
HETATM   23  O   UNL     1      43.572 -17.352   1.950  1.00  0.00    -0.356 OA
HETATM   24  C   UNL     1      42.988 -18.589   2.343  1.00  0.00     0.210 C 
ENDBRANCH  20  23
ENDBRANCH  14  17
ENDBRANCH  12  13
ENDBRANCH   1  12
BRANCH   2  25
HETATM   25  C   UNL     1      40.654  -9.669   6.822  1.00  0.00     0.250 C 
BRANCH  25  26
HETATM   26  N   UNL     1      41.664  -9.562   7.848  1.00  0.00    -0.263 N 
HETATM   27  N   UNL     1      41.390  -9.055   9.065  1.00  0.00     0.006 NA
HETATM   28  N   UNL     1      42.508  -9.098   9.779  1.00  0.00    -0.158 NA
HETATM   29  C   UNL     1      43.479  -9.695   9.018  1.00  0.00     0.102 A 
HETATM   30  C   UNL     1      42.959 -10.015   7.771  1.00  0.00     0.079 A 
HETATM   31  C   UNL     1      44.813 -10.009   9.311  1.00  0.00     0.035 A 
HETATM   32  C   UNL     1      43.705 -10.654   6.774  1.00  0.00     0.033 A 
HETATM   33  C   UNL     1      45.031 -10.972   7.086  1.00  0.00     0.002 A 
HETATM   34  C   UNL     1      45.579 -10.655   8.331  1.00  0.00     0.002 A 
ENDBRANCH  25  26
ENDBRANCH   2  25
TORSDOF 8
ENDMDL
MODEL 4
REMARK VINA RESULT:      -9.1      2.610      6.853
REMARK  8 active torsions:
REMARK  status: ('A' for Active; 'I' for Inactive)
REMARK    1  A    between atoms: C_5  and  C_6 
REMARK    2  A    between atoms: C_6  and  N_7 
REMARK       I    between atoms: N_7  and  C_8 
REMARK    3  A    between atoms: N_7  and  C_20 
REMARK    4  A    between atoms: C_8  and  C_9 
REMARK    5  A    between atoms: C_9  and  N_10 
REMARK    6  A    between atoms: C_20  and  C_21 
REMARK       I    between atoms: C_21  and  N_22 
REMARK    7  A    between atoms: N_22  and  C_23 
REMARK    8  A    between atoms: C_26  and  O_27 
ROOT
HETATM    1  N   UNL     1      42.068 -14.884   5.509  1.00  0.00    -0.338 N 
HETATM    2  C   UNL     1      42.206 -15.843   6.518  1.00  0.00     0.239 C 
HETATM    3  O   UNL     1      41.222 -16.240   7.156  1.00  0.00    -0.271 OA
ENDROOT
BRANCH   1   4
HETATM    4  C   UNL     1      40.686 -14.550   5.148  1.00  0.00     0.165 C 
BRANCH   4   5
HETATM    5  C   UNL     1      40.420 -14.579   3.659  1.00  0.00    -0.040 A 
HETATM    6  C   UNL     1      40.166 -13.392   2.961  1.00  0.00     0.009 A 
HETATM    7  C   UNL     1      39.966 -13.410   1.579  1.00  0.00     0.007 A 
HETATM    8  C   UNL     1      40.009 -14.617   0.871  1.00  0.00    -0.062 A 
HETATM    9  C   UNL     1      39.810 -14.621  -0.616  1.00  0.00     0.048 C 
HETATM   10  C   UNL     1      40.231 -15.808   1.569  1.00  0.00     0.007 A 
HETATM   11  C   UNL     1      40.428 -15.790   2.952  1.00  0.00     0.009 A 
ENDBRANCH   4   5
ENDBRANCH   1   4
BRANCH   1  12
HETATM   12  C   UNL     1      43.058 -13.797   5.362  1.00  0.00     0.229 C 
BRANCH  12  13
HETATM   13  C   UNL     1      43.160 -12.832   6.540  1.00  0.00     0.240 C 
HETATM   14  N   UNL     1      42.415 -11.686   6.577  1.00  0.00    -0.326 N 
HETATM   15  H   UNL     1      42.478 -11.252   7.492  1.00  0.00     0.169 HD
HETATM   16  O   UNL     1      43.871 -13.085   7.520  1.00  0.00    -0.271 OA
BRANCH  14  17
HETATM   17  C   UNL     1      41.564 -11.049   5.653  1.00  0.00     0.034 A 
HETATM   18  C   UNL     1      40.199 -11.046   5.967  1.00  0.00     0.032 A 
HETATM   19  C   UNL     1      39.264 -10.446   5.115  1.00  0.00     0.039 A 
HETATM   20  C   UNL     1      39.674  -9.830   3.935  1.00  0.00     0.068 A 
HETATM   21  C   UNL     1      41.032  -9.791   3.636  1.00  0.00     0.039 A 
HETATM   22  C   UNL     1      41.968 -10.395   4.490  1.00  0.00     0.032 A 
BRANCH  20  23
HETATM   23  O   UNL     1      38.672  -9.291   3.178  1.00  0.00    -0.356 OA
HETATM   24  C   UNL     1      38.381  -7.916   3.402  1.00  0.00     0.210 C 
ENDBRANCH  20  23
ENDBRANCH  14  17
ENDBRANCH  12  13
ENDBRANCH   1  12
BRANCH   2  25
HETATM   25  C   UNL     1      43.524 -16.570   6.676  1.00  0.00     0.250 C 
BRANCH  25  26
HETATM   26  N   UNL     1      43.612 -17.900   6.120  1.00  0.00    -0.263 N 
HETATM   27  N   UNL     1      43.587 -18.999   6.897  1.00  0.00     0.006 NA
HETATM   28  N   UNL     1      43.677 -20.056   6.100  1.00  0.00    -0.158 NA
HETATM   29  C   UNL     1      43.697 -19.614   4.804  1.00  0.00     0.102 A 
HETATM   30  C   UNL     1      43.645 -18.227   4.786  1.00  0.00     0.079 A 
HETATM   31  C   UNL     1      43.747 -20.320   3.593  1.00  0.00     0.035 A 
HETATM   32  C   UNL     1      43.632 -17.479   3.603  1.00  0.00     0.033 A 
HETATM   33  C   UNL     1      43.671 -18.197   2.403  1.00  0.00     0.002 A 
HETATM   34  C   UNL     1      43.729 -19.592   2.394  1.00  0.00     0.002 A 
ENDBRANCH  25  26
ENDBRANCH   2  25
TORSDOF 8
ENDMDL
MODEL 5
REMARK VINA RESULT:      -9.0      1.997      6.866
REMARK  8 active torsions:
REMARK  status: ('A' for Active; 'I' for Inactive)
REMARK    1  A    between atoms: C_5  and  C_6 
REMARK    2  A    between atoms: C_6  and  N_7 
REMARK       I    between atoms: N_7  and  C_8 
REMARK    3  A    between atoms: N_7  and  C_20 
REMARK    4  A    between atoms: C_8  and  C_9 
REMARK    5  A    between atoms: C_9  and  N_10 
REMARK    6  A    between atoms: C_20  and  C_21 
REMARK       I    between atoms: C_21  and  N_22 
REMARK    7  A    between atoms: N_22  and  C_23 
REMARK    8  A    between atoms: C_26  and  O_27 
ROOT
HETATM    1  N   UNL     1      43.591 -11.495   5.923  1.00  0.00    -0.338 N 
HETATM    2  C   UNL     1      43.467 -12.857   6.220  1.00  0.00     0.239 C 
HETATM    3  O   UNL     1      44.357 -13.456   6.836  1.00  0.00    -0.271 OA
ENDROOT
BRANCH   1   4
HETATM    4  C   UNL     1      44.730 -10.819   6.553  1.00  0.00     0.165 C 
BRANCH   4   5
HETATM    5  C   UNL     1      44.438 -10.297   7.943  1.00  0.00    -0.040 A 
HETATM    6  C   UNL     1      45.448 -10.261   8.913  1.00  0.00     0.009 A 
HETATM    7  C   UNL     1      45.193  -9.738  10.182  1.00  0.00     0.007 A 
HETATM    8  C   UNL     1      43.923  -9.249  10.508  1.00  0.00    -0.062 A 
HETATM    9  C   UNL     1      43.668  -8.673  11.869  1.00  0.00     0.048 C 
HETATM   10  C   UNL     1      42.904  -9.313   9.552  1.00  0.00     0.007 A 
HETATM   11  C   UNL     1      43.158  -9.839   8.283  1.00  0.00     0.009 A 
ENDBRANCH   4   5
ENDBRANCH   1   4
BRANCH   1  12
HETATM   12  C   UNL     1      43.170 -10.969   4.608  1.00  0.00     0.229 C 
BRANCH  12  13
HETATM   13  C   UNL     1      41.908 -10.112   4.612  1.00  0.00     0.240 C 
HETATM   14  N   UNL     1      40.782 -10.515   3.950  1.00  0.00    -0.326 N 
HETATM   15  H   UNL     1      39.996  -9.920   4.191  1.00  0.00     0.169 HD
HETATM   16  O   UNL     1      41.846  -9.060   5.260  1.00  0.00    -0.271 OA
BRANCH  14  17
HETATM   17  C   UNL     1      40.494 -11.587   3.083  1.00  0.00     0.034 A 
HETATM   18  C   UNL     1      41.028 -11.499   1.791  1.00  0.00     0.032 A 
HETATM   19  C   UNL     1      40.798 -12.506   0.846  1.00  0.00     0.039 A 
HETATM   20  C   UNL     1      40.038 -13.625   1.174  1.00  0.00     0.068 A 
HETATM   21  C   UNL     1      39.540 -13.742   2.467  1.00  0.00     0.039 A 
HETATM   22  C   UNL     1      39.768 -12.730   3.413  1.00  0.00     0.032 A 
BRANCH  20  23
HETATM   23  O   UNL     1      39.870 -14.534   0.167  1.00  0.00    -0.356 OA
HETATM   24  C   UNL     1      39.490 -14.010  -1.100  1.00  0.00     0.210 C 
ENDBRANCH  20  23
ENDBRANCH  14  17
ENDBRANCH  12  13
ENDBRANCH   1  12
BRANCH   2  25
HETATM   25  C   UNL     1      42.139 -13.547   5.996  1.00  0.00     0.250 C 
BRANCH  25  26
HETATM   26  N   UNL     1      42.170 -14.844   5.361  1.00  0.00    -0.263 N 
HETATM   27  N   UNL     1      41.686 -15.944   5.968  1.00  0.00     0.006 NA
HETATM   28  N   UNL     1      41.849 -16.966   5.137  1.00  0.00    -0.158 NA
HETATM   29  C   UNL     1      42.387 -16.487   3.971  1.00  0.00     0.102 A 
HETATM   30  C   UNL     1      42.594 -15.118   4.084  1.00  0.00     0.079 A 
HETATM   31  C   UNL     1      42.717 -17.140   2.775  1.00  0.00     0.035 A 
HETATM   32  C   UNL     1      43.117 -14.338   3.046  1.00  0.00     0.033 A 
HETATM   33  C   UNL     1      43.430 -15.001   1.855  1.00  0.00     0.002 A 
HETATM   34  C   UNL     1      43.236 -16.377   1.719  1.00  0.00     0.002 A 
ENDBRANCH  25  26
ENDBRANCH   2  25
TORSDOF 8
ENDMDL
MODEL 6
REMARK VINA RESULT:      -8.8      2.977      7.717
REMARK  8 active torsions:
REMARK  status: ('A' for Active; 'I' for Inactive)
REMARK    1  A    between atoms: C_5  and  C_6 
REMARK    2  A    between atoms: C_6  and  N_7 
REMARK       I    between atoms: N_7  and  C_8 
REMARK    3  A    between atoms: N_7  and  C_20 
REMARK    4  A    between atoms: C_8  and  C_9 
REMARK    5  A    between atoms: C_9  and  N_10 
REMARK    6  A    between atoms: C_20  and  C_21 
REMARK       I    between atoms: C_21  and  N_22 
REMARK    7  A    between atoms: N_22  and  C_23 
REMARK    8  A    between atoms: C_26  and  O_27 
ROOT
HETATM    1  N   UNL     1      43.672 -10.122   8.243  1.00  0.00    -0.338 N 
HETATM    2  C   UNL     1      44.311 -11.183   7.591  1.00  0.00     0.239 C 
HETATM    3  O   UNL     1      45.524 -11.382   7.740  1.00  0.00    -0.271 OA
ENDROOT
BRANCH   1   4
HETATM    4  C   UNL     1      44.488  -9.415   9.236  1.00  0.00     0.165 C 
BRANCH   4   5
HETATM    5  C   UNL     1      43.838  -9.315  10.599  1.00  0.00    -0.040 A 
HETATM    6  C   UNL     1      43.623  -8.063  11.191  1.00  0.00     0.009 A 
HETATM    7  C   UNL     1      42.982  -7.964  12.427  1.00  0.00     0.007 A 
HETATM    8  C   UNL     1      42.551  -9.115  13.099  1.00  0.00    -0.062 A 
HETATM    9  C   UNL     1      41.848  -8.993  14.418  1.00  0.00     0.048 C 
HETATM   10  C   UNL     1      42.793 -10.367  12.526  1.00  0.00     0.007 A 
HETATM   11  C   UNL     1      43.437 -10.467  11.290  1.00  0.00     0.009 A 
ENDBRANCH   4   5
ENDBRANCH   1   4
BRANCH   1  12
HETATM   12  C   UNL     1      42.655  -9.311   7.543  1.00  0.00     0.229 C 
BRANCH  12  13
HETATM   13  C   UNL     1      41.248  -9.363   8.133  1.00  0.00     0.240 C 
HETATM   14  N   UNL     1      40.254 -10.072   7.519  1.00  0.00    -0.326 N 
HETATM   15  H   UNL     1      39.440 -10.138   8.122  1.00  0.00     0.169 HD
HETATM   16  O   UNL     1      40.981  -8.817   9.211  1.00  0.00    -0.271 OA
BRANCH  14  17
HETATM   17  C   UNL     1      40.162 -10.754   6.290  1.00  0.00     0.034 A 
HETATM   18  C   UNL     1      39.774 -12.099   6.355  1.00  0.00     0.032 A 
HETATM   19  C   UNL     1      39.658 -12.872   5.193  1.00  0.00     0.039 A 
HETATM   20  C   UNL     1      39.919 -12.317   3.943  1.00  0.00     0.068 A 
HETATM   21  C   UNL     1      40.263 -10.972   3.866  1.00  0.00     0.039 A 
HETATM   22  C   UNL     1      40.382 -10.198   5.031  1.00  0.00     0.032 A 
BRANCH  20  23
HETATM   23  O   UNL     1      39.786 -13.171   2.884  1.00  0.00    -0.356 OA
HETATM   24  C   UNL     1      39.734 -12.573   1.593  1.00  0.00     0.210 C 
ENDBRANCH  20  23
ENDBRANCH  14  17
ENDBRANCH  12  13
ENDBRANCH   1  12
BRANCH   2  25
HETATM   25  C   UNL     1      43.478 -12.231   6.886  1.00  0.00     0.250 C 
BRANCH  25  26
HETATM   26  N   UNL     1      43.515 -12.239   5.442  1.00  0.00    -0.263 N 
HETATM   27  N   UNL     1      43.915 -11.165   4.735  1.00  0.00     0.006 NA
HETATM   28  N   UNL     1      43.848 -11.484   3.449  1.00  0.00    -0.158 NA
HETATM   29  C   UNL     1      43.459 -12.795   3.353  1.00  0.00     0.102 A 
HETATM   30  C   UNL     1      43.249 -13.310   4.625  1.00  0.00     0.079 A 
HETATM   31  C   UNL     1      43.273 -13.619   2.233  1.00  0.00     0.035 A 
HETATM   32  C   UNL     1      42.861 -14.635   4.856  1.00  0.00     0.033 A 
HETATM   33  C   UNL     1      42.691 -15.448   3.731  1.00  0.00     0.002 A 
HETATM   34  C   UNL     1      42.891 -14.951   2.441  1.00  0.00     0.002 A 
ENDBRANCH  25  26
ENDBRANCH   2  25
TORSDOF 8
ENDMDL
MODEL 7
REMARK VINA RESULT:      -8.8      1.718      2.701
REMARK  8 active torsions:
REMARK  status: ('A' for Active; 'I' for Inactive)
REMARK    1  A    between atoms: C_5  and  C_6 
REMARK    2  A    between atoms: C_6  and  N_7 
REMARK       I    between atoms: N_7  and  C_8 
REMARK    3  A    between atoms: N_7  and  C_20 
REMARK    4  A    between atoms: C_8  and  C_9 
REMARK    5  A    between atoms: C_9  and  N_10 
REMARK    6  A    between atoms: C_20  and  C_21 
REMARK       I    between atoms: C_21  and  N_22 
REMARK    7  A    between atoms: N_22  and  C_23 
REMARK    8  A    between atoms: C_26  and  O_27 
ROOT
HETATM    1  N   UNL     1      40.773 -13.527   4.401  1.00  0.00    -0.338 N 
HETATM    2  C   UNL     1      40.667 -12.802   5.593  1.00  0.00     0.239 C 
HETATM    3  O   UNL     1      40.079 -13.274   6.574  1.00  0.00    -0.271 OA
ENDROOT
BRANCH   1   4
HETATM    4  C   UNL     1      40.322 -14.921   4.475  1.00  0.00     0.165 C 
BRANCH   4   5
HETATM    5  C   UNL     1      41.374 -15.926   4.058  1.00  0.00    -0.040 A 
HETATM    6  C   UNL     1      42.354 -16.344   4.967  1.00  0.00     0.009 A 
HETATM    7  C   UNL     1      43.299 -17.305   4.599  1.00  0.00     0.007 A 
HETATM    8  C   UNL     1      43.284 -17.860   3.314  1.00  0.00    -0.062 A 
HETATM    9  C   UNL     1      44.293 -18.905   2.938  1.00  0.00     0.048 C 
HETATM   10  C   UNL     1      42.327 -17.422   2.395  1.00  0.00     0.007 A 
HETATM   11  C   UNL     1      41.384 -16.458   2.761  1.00  0.00     0.009 A 
ENDBRANCH   4   5
ENDBRANCH   1   4
BRANCH   1  12
HETATM   12  C   UNL     1      40.605 -12.859   3.095  1.00  0.00     0.229 C 
BRANCH  12  13
HETATM   13  C   UNL     1      41.833 -12.862   2.188  1.00  0.00     0.240 C 
HETATM   14  N   UNL     1      41.703 -12.868   0.827  1.00  0.00    -0.326 N 
HETATM   15  H   UNL     1      42.600 -12.702   0.384  1.00  0.00     0.169 HD
HETATM   16  O   UNL     1      42.978 -12.798   2.654  1.00  0.00    -0.271 OA
BRANCH  14  17
HETATM   17  C   UNL     1      40.604 -12.994  -0.044  1.00  0.00     0.034 A 
HETATM   18  C   UNL     1      40.297 -14.292  -0.472  1.00  0.00     0.032 A 
HETATM   19  C   UNL     1      39.229 -14.530  -1.345  1.00  0.00     0.039 A 
HETATM   20  C   UNL     1      38.439 -13.478  -1.802  1.00  0.00     0.068 A 
HETATM   21  C   UNL     1      38.709 -12.191  -1.348  1.00  0.00     0.039 A 
HETATM   22  C   UNL     1      39.783 -11.953  -0.476  1.00  0.00     0.032 A 
BRANCH  20  23
HETATM   23  O   UNL     1      37.435 -13.830  -2.659  1.00  0.00    -0.356 OA
HETATM   24  C   UNL     1      36.611 -12.771  -3.136  1.00  0.00     0.210 C 
ENDBRANCH  20  23
ENDBRANCH  14  17
ENDBRANCH  12  13
ENDBRANCH   1  12
BRANCH   2  25
HETATM   25  C   UNL     1      41.472 -11.531   5.763  1.00  0.00     0.250 C 
BRANCH  25  26
HETATM   26  N   UNL     1      42.789 -11.660   6.340  1.00  0.00    -0.263 N 
HETATM   27  N   UNL     1      43.573 -12.726   6.091  1.00  0.00     0.006 NA
HETATM   28  N   UNL     1      44.712 -12.549   6.750  1.00  0.00    -0.158 NA
HETATM   29  C   UNL     1      44.663 -11.328   7.369  1.00  0.00     0.102 A 
HETATM   30  C   UNL     1      43.438 -10.727   7.112  1.00  0.00     0.079 A 
HETATM   31  C   UNL     1      45.612 -10.656   8.153  1.00  0.00     0.035 A 
HETATM   32  C   UNL     1      43.094  -9.459   7.595  1.00  0.00     0.033 A 
HETATM   33  C   UNL     1      44.055  -8.795   8.365  1.00  0.00     0.002 A 
HETATM   34  C   UNL     1      45.292  -9.381   8.642  1.00  0.00     0.002 A 
ENDBRANCH  25  26
ENDBRANCH   2  25
TORSDOF 8
ENDMDL
MODEL 8
REMARK VINA RESULT:      -8.7      2.690      8.787
REMARK  8 active torsions:
REMARK  status: ('A' for Active; 'I' for Inactive)
REMARK    1  A    between atoms: C_5  and  C_6 
REMARK    2  A    between atoms: C_6  and  N_7 
REMARK       I    between atoms: N_7  and  C_8 
REMARK    3  A    between atoms: N_7  and  C_20 
REMARK    4  A    between atoms: C_8  and  C_9 
REMARK    5  A    between atoms: C_9  and  N_10 
REMARK    6  A    between atoms: C_20  and  C_21 
REMARK       I    between atoms: C_21  and  N_22 
REMARK    7  A    between atoms: N_22  and  C_23 
REMARK    8  A    between atoms: C_26  and  O_27 
ROOT
HETATM    1  N   UNL     1      41.488 -13.846   3.735  1.00  0.00    -0.338 N 
HETATM    2  C   UNL     1      41.615 -15.223   3.523  1.00  0.00     0.239 C 
HETATM    3  O   UNL     1      40.615 -15.949   3.454  1.00  0.00    -0.271 OA
ENDROOT
BRANCH   1   4
HETATM    4  C   UNL     1      40.118 -13.326   3.671  1.00  0.00     0.165 C 
BRANCH   4   5
HETATM    5  C   UNL     1      39.882 -12.119   4.552  1.00  0.00    -0.040 A 
HETATM    6  C   UNL     1      39.526 -12.282   5.897  1.00  0.00     0.009 A 
HETATM    7  C   UNL     1      39.352 -11.171   6.725  1.00  0.00     0.007 A 
HETATM    8  C   UNL     1      39.523  -9.876   6.222  1.00  0.00    -0.062 A 
HETATM    9  C   UNL     1      39.350  -8.692   7.126  1.00  0.00     0.048 C 
HETATM   10  C   UNL     1      39.847  -9.709   4.872  1.00  0.00     0.007 A 
HETATM   11  C   UNL     1      40.019 -10.820   4.043  1.00  0.00     0.009 A 
ENDBRANCH   4   5
ENDBRANCH   1   4
BRANCH   1  12
HETATM   12  C   UNL     1      42.410 -13.136   4.647  1.00  0.00     0.229 C 
BRANCH  12  13
HETATM   13  C   UNL     1      43.401 -12.188   3.978  1.00  0.00     0.240 C 
HETATM   14  N   UNL     1      44.191 -11.356   4.723  1.00  0.00    -0.326 N 
HETATM   15  H   UNL     1      44.898 -10.922   4.139  1.00  0.00     0.169 HD
HETATM   16  O   UNL     1      43.562 -12.184   2.751  1.00  0.00    -0.271 OA
BRANCH  14  17
HETATM   17  C   UNL     1      44.252 -11.044   6.094  1.00  0.00     0.034 A 
HETATM   18  C   UNL     1      43.084 -10.519   6.663  1.00  0.00     0.032 A 
HETATM   19  C   UNL     1      43.037 -10.167   8.018  1.00  0.00     0.039 A 
HETATM   20  C   UNL     1      44.152 -10.339   8.833  1.00  0.00     0.068 A 
HETATM   21  C   UNL     1      45.303 -10.899   8.287  1.00  0.00     0.039 A 
HETATM   22  C   UNL     1      45.349 -11.248   6.929  1.00  0.00     0.032 A 
BRANCH  20  23
HETATM   23  O   UNL     1      43.993  -9.948  10.133  1.00  0.00    -0.356 OA
HETATM   24  C   UNL     1      42.760  -9.312  10.455  1.00  0.00     0.210 C 
ENDBRANCH  20  23
ENDBRANCH  14  17
ENDBRANCH  12  13
ENDBRANCH   1  12
BRANCH   2  25
HETATM   25  C   UNL     1      42.964 -15.795   3.144  1.00  0.00     0.250 C 
BRANCH  25  26
HETATM   26  N   UNL     1      43.444 -16.917   3.917  1.00  0.00    -0.263 N 
HETATM   27  N   UNL     1      43.812 -16.787   5.206  1.00  0.00     0.006 NA
HETATM   28  N   UNL     1      44.193 -17.983   5.637  1.00  0.00    -0.158 NA
HETATM   29  C   UNL     1      44.002 -18.884   4.622  1.00  0.00     0.102 A 
HETATM   30  C   UNL     1      43.509 -18.225   3.504  1.00  0.00     0.079 A 
HETATM   31  C   UNL     1      44.211 -20.269   4.572  1.00  0.00     0.035 A 
HETATM   32  C   UNL     1      43.194 -18.882   2.308  1.00  0.00     0.033 A 
HETATM   33  C   UNL     1      43.397 -20.266   2.278  1.00  0.00     0.002 A 
HETATM   34  C   UNL     1      43.898 -20.950   3.387  1.00  0.00     0.002 A 
ENDBRANCH  25  26
ENDBRANCH   2  25
TORSDOF 8
ENDMDL
MODEL 9
REMARK VINA RESULT:      -8.5      3.749      7.971
REMARK  8 active torsions:
REMARK  status: ('A' for Active; 'I' for Inactive)
REMARK    1  A    between atoms: C_5  and  C_6 
REMARK    2  A    between atoms: C_6  and  N_7 
REMARK       I    between atoms: N_7  and  C_8 
REMARK    3  A    between atoms: N_7  and  C_20 
REMARK    4  A    between atoms: C_8  and  C_9 
REMARK    5  A    between atoms: C_9  and  N_10 
REMARK    6  A    between atoms: C_20  and  C_21 
REMARK       I    between atoms: C_21  and  N_22 
REMARK    7  A    between atoms: N_22  and  C_23 
REMARK    8  A    between atoms: C_26  and  O_27 
ROOT
HETATM    1  N   UNL     1      41.082 -12.517   1.451  1.00  0.00    -0.338 N 
HETATM    2  C   UNL     1      40.341 -11.783   0.518  1.00  0.00     0.239 C 
HETATM    3  O   UNL     1      39.328 -11.161   0.860  1.00  0.00    -0.271 OA
ENDROOT
BRANCH   1   4
HETATM    4  C   UNL     1      40.685 -12.332   2.851  1.00  0.00     0.165 C 
BRANCH   4   5
HETATM    5  C   UNL     1      41.853 -12.235   3.808  1.00  0.00    -0.040 A 
HETATM    6  C   UNL     1      43.029 -11.577   3.427  1.00  0.00     0.009 A 
HETATM    7  C   UNL     1      44.092 -11.446   4.324  1.00  0.00     0.007 A 
HETATM    8  C   UNL     1      44.000 -11.976   5.616  1.00  0.00    -0.062 A 
HETATM    9  C   UNL     1      45.141 -11.813   6.575  1.00  0.00     0.048 C 
HETATM   10  C   UNL     1      42.839 -12.660   5.989  1.00  0.00     0.007 A 
HETATM   11  C   UNL     1      41.777 -12.794   5.091  1.00  0.00     0.009 A 
ENDBRANCH   4   5
ENDBRANCH   1   4
BRANCH   1  12
HETATM   12  C   UNL     1      41.629 -13.845   1.102  1.00  0.00     0.229 C 
BRANCH  12  13
HETATM   13  C   UNL     1      40.614 -14.982   1.040  1.00  0.00     0.240 C 
HETATM   14  N   UNL     1      40.509 -15.887   2.060  1.00  0.00    -0.326 N 
HETATM   15  H   UNL     1      39.686 -16.467   1.937  1.00  0.00     0.169 HD
HETATM   16  O   UNL     1      39.818 -15.085   0.099  1.00  0.00    -0.271 OA
BRANCH  14  17
HETATM   17  C   UNL     1      41.255 -16.123   3.231  1.00  0.00     0.034 A 
HETATM   18  C   UNL     1      40.527 -16.188   4.427  1.00  0.00     0.032 A 
HETATM   19  C   UNL     1      41.170 -16.411   5.650  1.00  0.00     0.039 A 
HETATM   20  C   UNL     1      42.551 -16.583   5.704  1.00  0.00     0.068 A 
HETATM   21  C   UNL     1      43.276 -16.563   4.518  1.00  0.00     0.039 A 
HETATM   22  C   UNL     1      42.631 -16.335   3.292  1.00  0.00     0.032 A 
BRANCH  20  23
HETATM   23  O   UNL     1      43.067 -16.780   6.955  1.00  0.00    -0.356 OA
HETATM   24  C   UNL     1      42.986 -15.679   7.853  1.00  0.00     0.210 C 
ENDBRANCH  20  23
ENDBRANCH  14  17
ENDBRANCH  12  13
ENDBRANCH   1  12
BRANCH   2  25
HETATM   25  C   UNL     1      40.909 -11.555  -0.867  1.00  0.00     0.250 C 
BRANCH  25  26
HETATM   26  N   UNL     1      41.479 -10.257  -1.139  1.00  0.00    -0.263 N 
HETATM   27  N   UNL     1      42.262  -9.623  -0.245  1.00  0.00     0.006 NA
HETATM   28  N   UNL     1      42.634  -8.469  -0.785  1.00  0.00    -0.158 NA
HETATM   29  C   UNL     1      42.127  -8.408  -2.056  1.00  0.00     0.102 A 
HETATM   30  C   UNL     1      41.386  -9.554  -2.315  1.00  0.00     0.079 A 
HETATM   31  C   UNL     1      42.255  -7.429  -3.051  1.00  0.00     0.035 A 
HETATM   32  C   UNL     1      40.755  -9.794  -3.541  1.00  0.00     0.033 A 
HETATM   33  C   UNL     1      40.903  -8.813  -4.528  1.00  0.00     0.002 A 
HETATM   34  C   UNL     1      41.637  -7.649  -4.290  1.00  0.00     0.002 A 
ENDBRANCH  25  26
ENDBRANCH   2  25
TORSDOF 8
ENDMDL
MODEL 10
REMARK VINA RESULT:      -8.5     16.311     19.508
REMARK  8 active torsions:
REMARK  status: ('A' for Active; 'I' for Inactive)
REMARK    1  A    between atoms: C_5  and  C_6 
REMARK    2  A    between atoms: C_6  and  N_7 
REMARK       I    between atoms: N_7  and  C_8 
REMARK    3  A    between atoms: N_7  and  C_20 
REMARK    4  A    between atoms: C_8  and  C_9 
REMARK    5  A    between atoms: C_9  and  N_10 
REMARK    6  A    between atoms: C_20  and  C_21 
REMARK       I    between atoms: C_21  and  N_22 
REMARK    7  A    between atoms: N_22  and  C_23 
REMARK    8  A    between atoms: C_26  and  O_27 
ROOT
HETATM    1  N   UNL     1      45.751 -29.249   1.188  1.00  0.00    -0.338 N 
HETATM    2  C   UNL     1      44.465 -29.623   0.781  1.00  0.00     0.239 C 
HETATM    3  O   UNL     1      43.594 -29.908   1.613  1.00  0.00    -0.271 OA
ENDROOT
BRANCH   1   4
HETATM    4  C   UNL     1      45.914 -29.037   2.630  1.00  0.00     0.165 C 
BRANCH   4   5
HETATM    5  C   UNL     1      47.237 -29.532   3.173  1.00  0.00    -0.040 A 
HETATM    6  C   UNL     1      48.327 -28.660   3.289  1.00  0.00     0.009 A 
HETATM    7  C   UNL     1      49.535 -29.102   3.832  1.00  0.00     0.007 A 
HETATM    8  C   UNL     1      49.678 -30.426   4.264  1.00  0.00    -0.062 A 
HETATM    9  C   UNL     1      50.975 -30.882   4.862  1.00  0.00     0.048 C 
HETATM   10  C   UNL     1      48.602 -31.307   4.121  1.00  0.00     0.007 A 
HETATM   11  C   UNL     1      47.394 -30.866   3.574  1.00  0.00     0.009 A 
ENDBRANCH   4   5
ENDBRANCH   1   4
BRANCH   1  12
HETATM   12  C   UNL     1      46.942 -29.740   0.465  1.00  0.00     0.229 C 
BRANCH  12  13
HETATM   13  C   UNL     1      47.671 -28.705  -0.388  1.00  0.00     0.240 C 
HETATM   14  N   UNL     1      48.942 -28.933  -0.837  1.00  0.00    -0.326 N 
HETATM   15  H   UNL     1      49.209 -28.229  -1.517  1.00  0.00     0.169 HD
HETATM   16  O   UNL     1      47.115 -27.660  -0.748  1.00  0.00    -0.271 OA
BRANCH  14  17
HETATM   17  C   UNL     1      49.892 -29.944  -0.596  1.00  0.00     0.034 A 
HETATM   18  C   UNL     1      50.680 -30.327  -1.690  1.00  0.00     0.032 A 
HETATM   19  C   UNL     1      51.650 -31.329  -1.563  1.00  0.00     0.039 A 
HETATM   20  C   UNL     1      51.859 -31.962  -0.341  1.00  0.00     0.068 A 
HETATM   21  C   UNL     1      51.111 -31.559   0.760  1.00  0.00     0.039 A 
HETATM   22  C   UNL     1      50.136 -30.557   0.631  1.00  0.00     0.032 A 
BRANCH  20  23
HETATM   23  O   UNL     1      52.823 -32.932  -0.341  1.00  0.00    -0.356 OA
HETATM   24  C   UNL     1      53.832 -32.819  -1.339  1.00  0.00     0.210 C 
ENDBRANCH  20  23
ENDBRANCH  14  17
ENDBRANCH  12  13
ENDBRANCH   1  12
BRANCH   2  25
HETATM   25  C   UNL     1      44.067 -29.455  -0.669  1.00  0.00     0.250 C 
BRANCH  25  26
HETATM   26  N   UNL     1      44.159 -30.621  -1.517  1.00  0.00    -0.263 N 
HETATM   27  N   UNL     1      44.207 -31.867  -1.008  1.00  0.00     0.006 NA
HETATM   28  N   UNL     1      44.280 -32.713  -2.028  1.00  0.00    -0.158 NA
HETATM   29  C   UNL     1      44.216 -31.990  -3.190  1.00  0.00     0.102 A 
HETATM   30  C   UNL     1      44.126 -30.637  -2.890  1.00  0.00     0.079 A 
HETATM   31  C   UNL     1      44.216 -32.402  -4.530  1.00  0.00     0.035 A 
HETATM   32  C   UNL     1      44.026 -29.643  -3.870  1.00  0.00     0.033 A 
HETATM   33  C   UNL     1      44.016 -30.070  -5.202  1.00  0.00     0.002 A 
HETATM   34  C   UNL     1      44.111 -31.425  -5.530  1.00  0.00     0.002 A 
ENDBRANCH  25  26
ENDBRANCH   2  25
TORSDOF 8
ENDMDL
