MODEL 1
REMARK VINA RESULT:      -8.1      0.000      0.000
REMARK  4 active torsions:
REMARK  status: ('A' for Active; 'I' for Inactive)
REMARK       I    between atoms: C_2  and  N_3 
REMARK    1  A    between atoms: N_3  and  C_4 
REMARK    2  A    between atoms: C_4  and  C_5 
REMARK       I    between atoms: C_5  and  N_6 
REMARK    3  A    between atoms: N_6  and  C_7 
REMARK    4  A    between atoms: C_20  and  C_21 
ROOT
HETATM    1  C   UNL     1      41.190 -14.942   1.187  1.00  0.00     0.272 C 
HETATM    2  N   UNL     1      42.490 -15.320   1.425  1.00  0.00    -0.322 N 
HETATM    3  O   UNL     1      40.205 -15.643   1.411  1.00  0.00    -0.266 OA
HETATM    4  H   UNL     1      43.177 -14.942   0.776  1.00  0.00     0.169 HD
ENDROOT
BRANCH   1   5
HETATM    5  C   UNL     1      41.019 -13.545   0.624  1.00  0.00     0.104 C 
HETATM    6  C   UNL     1      40.886 -12.529   1.504  1.00  0.00     0.046 C 
BRANCH   5   7
HETATM    7  N   UNL     1      40.970 -13.239  -0.729  1.00  0.00    -0.323 N 
HETATM    8  C   UNL     1      39.991 -13.526  -1.653  1.00  0.00     0.218 C 
HETATM    9  C   UNL     1      40.238 -12.908  -3.007  1.00  0.00     0.117 C 
HETATM   10  O   UNL     1      39.026 -14.259  -1.466  1.00  0.00    -0.274 OA
HETATM   11  H   UNL     1      41.776 -12.738  -1.083  1.00  0.00     0.169 HD
ENDBRANCH   5   7
BRANCH   6  12
HETATM   12  C   UNL     1      40.965 -12.627   2.968  1.00  0.00    -0.034 A 
HETATM   13  C   UNL     1      42.204 -12.539   3.613  1.00  0.00     0.011 A 
HETATM   14  C   UNL     1      42.282 -12.654   5.002  1.00  0.00     0.001 A 
HETATM   15  C   UNL     1      41.125 -12.861   5.752  1.00  0.00     0.000 A 
HETATM   16  C   UNL     1      39.889 -12.949   5.115  1.00  0.00     0.001 A 
HETATM   17  C   UNL     1      39.807 -12.828   3.726  1.00  0.00     0.011 A 
ENDBRANCH   6  12
ENDBRANCH   1   5
BRANCH   2  18
HETATM   18  C   UNL     1      42.889 -16.399   2.234  1.00  0.00     0.035 A 
HETATM   19  C   UNL     1      43.065 -16.268   3.615  1.00  0.00     0.042 A 
HETATM   20  C   UNL     1      43.521 -17.350   4.377  1.00  0.00    -0.021 A 
HETATM   21  C   UNL     1      43.772 -17.175   5.789  1.00  0.00     0.010 A 
HETATM   22  C   UNL     1      43.776 -18.577   3.754  1.00  0.00     0.012 A 
HETATM   23  C   UNL     1      44.629 -16.277   6.461  1.00  0.00     0.152 A 
HETATM   24  C   UNL     1      43.157 -17.882   6.797  1.00  0.00     0.123 A 
HETATM   25  N   UNL     1      44.575 -16.417   7.790  1.00  0.00    -0.187 NA
HETATM   26  N   UNL     1      43.658 -17.385   7.964  1.00  0.00    -0.289 N 
HETATM   27  H   UNL     1      43.421 -17.653   8.914  1.00  0.00     0.188 HD
HETATM   28  C   UNL     1      43.608 -18.709   2.376  1.00  0.00     0.003 A 
HETATM   29  C   UNL     1      43.182 -17.617   1.614  1.00  0.00     0.029 A 
ENDBRANCH   2  18
TORSDOF 4
ENDMDL
MODEL 2
REMARK VINA RESULT:      -8.1      2.465      7.031
REMARK  4 active torsions:
REMARK  status: ('A' for Active; 'I' for Inactive)
REMARK       I    between atoms: C_2  and  N_3 
REMARK    1  A    between atoms: N_3  and  C_4 
REMARK    2  A    between atoms: C_4  and  C_5 
REMARK       I    between atoms: C_5  and  N_6 
REMARK    3  A    between atoms: N_6  and  C_7 
REMARK    4  A    between atoms: C_20  and  C_21 
ROOT
HETATM    1  C   UNL     1      42.732 -16.284   2.401  1.00  0.00     0.272 C 
HETATM    2  N   UNL     1      41.376 -16.095   2.287  1.00  0.00    -0.322 N 
HETATM    3  O   UNL     1      43.583 -15.623   1.807  1.00  0.00    -0.266 OA
HETATM    4  H   UNL     1      40.811 -16.938   2.373  1.00  0.00     0.169 HD
ENDROOT
BRANCH   1   5
HETATM    5  C   UNL     1      43.151 -17.388   3.351  1.00  0.00     0.104 C 
HETATM    6  C   UNL     1      42.936 -17.191   4.670  1.00  0.00     0.046 C 
BRANCH   5   7
HETATM    7  N   UNL     1      43.754 -18.577   2.965  1.00  0.00    -0.323 N 
HETATM    8  C   UNL     1      43.231 -19.627   2.243  1.00  0.00     0.218 C 
HETATM    9  C   UNL     1      44.244 -20.693   1.908  1.00  0.00     0.117 C 
HETATM   10  O   UNL     1      42.053 -19.763   1.934  1.00  0.00    -0.274 OA
HETATM   11  H   UNL     1      44.715 -18.685   3.265  1.00  0.00     0.169 HD
ENDBRANCH   5   7
BRANCH   6  12
HETATM   12  C   UNL     1      42.265 -16.036   5.282  1.00  0.00    -0.034 A 
HETATM   13  C   UNL     1      40.940 -16.143   5.719  1.00  0.00     0.011 A 
HETATM   14  C   UNL     1      40.295 -15.039   6.280  1.00  0.00     0.001 A 
HETATM   15  C   UNL     1      40.968 -13.825   6.404  1.00  0.00     0.000 A 
HETATM   16  C   UNL     1      42.288 -13.713   5.970  1.00  0.00     0.001 A 
HETATM   17  C   UNL     1      42.938 -14.816   5.415  1.00  0.00     0.011 A 
ENDBRANCH   6  12
ENDBRANCH   1   5
BRANCH   2  18
HETATM   18  C   UNL     1      40.755 -14.953   1.751  1.00  0.00     0.035 A 
HETATM   19  C   UNL     1      40.241 -14.927   0.450  1.00  0.00     0.042 A 
HETATM   20  C   UNL     1      39.684 -13.752  -0.068  1.00  0.00    -0.021 A 
HETATM   21  C   UNL     1      39.230 -13.720  -1.440  1.00  0.00     0.010 A 
HETATM   22  C   UNL     1      39.617 -12.606   0.732  1.00  0.00     0.012 A 
HETATM   23  C   UNL     1      39.926 -13.977  -2.640  1.00  0.00     0.152 A 
HETATM   24  C   UNL     1      37.943 -13.442  -1.843  1.00  0.00     0.123 A 
HETATM   25  N   UNL     1      39.147 -13.854  -3.719  1.00  0.00    -0.187 NA
HETATM   26  N   UNL     1      37.945 -13.548  -3.202  1.00  0.00    -0.289 N 
HETATM   27  H   UNL     1      37.166 -13.429  -3.842  1.00  0.00     0.188 HD
HETATM   28  C   UNL     1      40.134 -12.627   2.027  1.00  0.00     0.003 A 
HETATM   29  C   UNL     1      40.718 -13.793   2.529  1.00  0.00     0.029 A 
ENDBRANCH   2  18
TORSDOF 4
ENDMDL
MODEL 3
REMARK VINA RESULT:      -8.0      2.353      4.764
REMARK  4 active torsions:
REMARK  status: ('A' for Active; 'I' for Inactive)
REMARK       I    between atoms: C_2  and  N_3 
REMARK    1  A    between atoms: N_3  and  C_4 
REMARK    2  A    between atoms: C_4  and  C_5 
REMARK       I    between atoms: C_5  and  N_6 
REMARK    3  A    between atoms: N_6  and  C_7 
REMARK    4  A    between atoms: C_20  and  C_21 
ROOT
HETATM    1  C   UNL     1      40.517 -13.096   0.524  1.00  0.00     0.272 C 
HETATM    2  N   UNL     1      40.047 -12.657   1.739  1.00  0.00    -0.322 N 
HETATM    3  O   UNL     1      41.436 -12.571  -0.102  1.00  0.00    -0.266 OA
HETATM    4  H   UNL     1      39.051 -12.798   1.896  1.00  0.00     0.169 HD
ENDROOT
BRANCH   1   5
HETATM    5  C   UNL     1      39.824 -14.327  -0.027  1.00  0.00     0.104 C 
HETATM    6  C   UNL     1      40.071 -15.507   0.583  1.00  0.00     0.046 C 
BRANCH   5   7
HETATM    7  N   UNL     1      38.971 -14.331  -1.122  1.00  0.00    -0.323 N 
HETATM    8  C   UNL     1      39.275 -14.293  -2.464  1.00  0.00     0.218 C 
HETATM    9  C   UNL     1      38.071 -14.447  -3.361  1.00  0.00     0.117 C 
HETATM   10  O   UNL     1      40.387 -14.092  -2.938  1.00  0.00    -0.274 OA
HETATM   11  H   UNL     1      37.985 -14.358  -0.894  1.00  0.00     0.169 HD
ENDBRANCH   5   7
BRANCH   6  12
HETATM   12  C   UNL     1      40.892 -15.714   1.783  1.00  0.00    -0.034 A 
HETATM   13  C   UNL     1      42.285 -15.807   1.675  1.00  0.00     0.011 A 
HETATM   14  C   UNL     1      43.064 -16.025   2.813  1.00  0.00     0.001 A 
HETATM   15  C   UNL     1      42.456 -16.155   4.061  1.00  0.00     0.000 A 
HETATM   16  C   UNL     1      41.070 -16.063   4.174  1.00  0.00     0.001 A 
HETATM   17  C   UNL     1      40.289 -15.838   3.039  1.00  0.00     0.011 A 
ENDBRANCH   6  12
ENDBRANCH   1   5
BRANCH   2  18
HETATM   18  C   UNL     1      40.719 -11.770   2.599  1.00  0.00     0.035 A 
HETATM   19  C   UNL     1      41.660 -12.209   3.534  1.00  0.00     0.042 A 
HETATM   20  C   UNL     1      42.263 -11.302   4.414  1.00  0.00    -0.021 A 
HETATM   21  C   UNL     1      43.175 -11.784   5.426  1.00  0.00     0.010 A 
HETATM   22  C   UNL     1      41.939  -9.943   4.335  1.00  0.00     0.012 A 
HETATM   23  C   UNL     1      42.980 -12.729   6.456  1.00  0.00     0.152 A 
HETATM   24  C   UNL     1      44.491 -11.402   5.554  1.00  0.00     0.123 A 
HETATM   25  N   UNL     1      44.081 -12.917   7.191  1.00  0.00    -0.187 NA
HETATM   26  N   UNL     1      44.987 -12.113   6.607  1.00  0.00    -0.289 N 
HETATM   27  H   UNL     1      45.930 -12.104   6.981  1.00  0.00     0.188 HD
HETATM   28  C   UNL     1      40.995  -9.503   3.407  1.00  0.00     0.003 A 
HETATM   29  C   UNL     1      40.373 -10.417   2.553  1.00  0.00     0.029 A 
ENDBRANCH   2  18
TORSDOF 4
ENDMDL
MODEL 4
REMARK VINA RESULT:      -7.7      1.891      4.296
REMARK  4 active torsions:
REMARK  status: ('A' for Active; 'I' for Inactive)
REMARK       I    between atoms: C_2  and  N_3 
REMARK    1  A    between atoms: N_3  and  C_4 
REMARK    2  A    between atoms: C_4  and  C_5 
REMARK       I    between atoms: C_5  and  N_6 
REMARK    3  A    between atoms: N_6  and  C_7 
REMARK    4  A    between atoms: C_20  and  C_21 
ROOT
HETATM    1  C   UNL     1      40.695 -13.472   1.754  1.00  0.00     0.272 C 
HETATM    2  N   UNL     1      42.017 -13.834   1.845  1.00  0.00    -0.322 N 
HETATM    3  O   UNL     1      39.749 -14.256   1.804  1.00  0.00    -0.266 OA
HETATM    4  H   UNL     1      42.663 -13.261   1.306  1.00  0.00     0.169 HD
ENDROOT
BRANCH   1   5
HETATM    5  C   UNL     1      40.444 -11.985   1.596  1.00  0.00     0.104 C 
HETATM    6  C   UNL     1      40.000 -11.551   0.396  1.00  0.00     0.046 C 
BRANCH   5   7
HETATM    7  N   UNL     1      40.657 -11.037   2.588  1.00  0.00    -0.323 N 
HETATM    8  C   UNL     1      41.843 -10.552   3.091  1.00  0.00     0.218 C 
HETATM    9  C   UNL     1      41.665  -9.425   4.078  1.00  0.00     0.117 C 
HETATM   10  O   UNL     1      42.958 -10.999   2.845  1.00  0.00    -0.274 OA
HETATM   11  H   UNL     1      39.815 -10.657   3.002  1.00  0.00     0.169 HD
ENDBRANCH   5   7
BRANCH   6  12
HETATM   12  C   UNL     1      39.660 -12.387  -0.762  1.00  0.00    -0.034 A 
HETATM   13  C   UNL     1      38.320 -12.638  -1.079  1.00  0.00     0.011 A 
HETATM   14  C   UNL     1      37.996 -13.450  -2.168  1.00  0.00     0.001 A 
HETATM   15  C   UNL     1      39.008 -14.018  -2.941  1.00  0.00     0.000 A 
HETATM   16  C   UNL     1      40.344 -13.772  -2.630  1.00  0.00     0.001 A 
HETATM   17  C   UNL     1      40.671 -12.954  -1.546  1.00  0.00     0.011 A 
ENDBRANCH   6  12
ENDBRANCH   1   5
BRANCH   2  18
HETATM   18  C   UNL     1      42.492 -15.070   2.319  1.00  0.00     0.035 A 
HETATM   19  C   UNL     1      42.678 -15.322   3.682  1.00  0.00     0.042 A 
HETATM   20  C   UNL     1      43.209 -16.544   4.111  1.00  0.00    -0.021 A 
HETATM   21  C   UNL     1      43.468 -16.759   5.516  1.00  0.00     0.010 A 
HETATM   22  C   UNL     1      43.529 -17.528   3.168  1.00  0.00     0.012 A 
HETATM   23  C   UNL     1      44.278 -16.035   6.417  1.00  0.00     0.152 A 
HETATM   24  C   UNL     1      42.911 -17.757   6.282  1.00  0.00     0.123 A 
HETATM   25  N   UNL     1      44.251 -16.545   7.652  1.00  0.00    -0.187 NA
HETATM   26  N   UNL     1      43.397 -17.578   7.543  1.00  0.00    -0.289 N 
HETATM   27  H   UNL     1      43.189 -18.117   8.378  1.00  0.00     0.188 HD
HETATM   28  C   UNL     1      43.350 -17.277   1.808  1.00  0.00     0.003 A 
HETATM   29  C   UNL     1      42.849 -16.044   1.383  1.00  0.00     0.029 A 
ENDBRANCH   2  18
TORSDOF 4
ENDMDL
MODEL 5
REMARK VINA RESULT:      -7.7      2.699      7.398
REMARK  4 active torsions:
REMARK  status: ('A' for Active; 'I' for Inactive)
REMARK       I    between atoms: C_2  and  N_3 
REMARK    1  A    between atoms: N_3  and  C_4 
REMARK    2  A    between atoms: C_4  and  C_5 
REMARK       I    between atoms: C_5  and  N_6 
REMARK    3  A    between atoms: N_6  and  C_7 
REMARK    4  A    between atoms: C_20  and  C_21 
ROOT
HETATM    1  C   UNL     1      42.050 -14.541   5.797  1.00  0.00     0.272 C 
HETATM    2  N   UNL     1      42.382 -14.185   4.512  1.00  0.00    -0.322 N 
HETATM    3  O   UNL     1      40.959 -14.995   6.138  1.00  0.00    -0.266 OA
HETATM    4  H   UNL     1      43.029 -13.403   4.432  1.00  0.00     0.169 HD
ENDROOT
BRANCH   1   5
HETATM    5  C   UNL     1      43.152 -14.355   6.822  1.00  0.00     0.104 C 
HETATM    6  C   UNL     1      43.954 -15.412   7.074  1.00  0.00     0.046 C 
BRANCH   5   7
HETATM    7  N   UNL     1      43.382 -13.184   7.531  1.00  0.00    -0.323 N 
HETATM    8  C   UNL     1      44.190 -12.115   7.211  1.00  0.00     0.218 C 
HETATM    9  C   UNL     1      44.076 -10.962   8.177  1.00  0.00     0.117 C 
HETATM   10  O   UNL     1      44.989 -12.078   6.282  1.00  0.00    -0.274 OA
HETATM   11  H   UNL     1      42.888 -13.115   8.411  1.00  0.00     0.169 HD
ENDBRANCH   5   7
BRANCH   6  12
HETATM   12  C   UNL     1      43.917 -16.716   6.399  1.00  0.00    -0.034 A 
HETATM   13  C   UNL     1      43.339 -17.821   7.035  1.00  0.00     0.011 A 
HETATM   14  C   UNL     1      43.323 -19.066   6.402  1.00  0.00     0.001 A 
HETATM   15  C   UNL     1      43.887 -19.213   5.135  1.00  0.00     0.000 A 
HETATM   16  C   UNL     1      44.464 -18.116   4.498  1.00  0.00     0.001 A 
HETATM   17  C   UNL     1      44.475 -16.868   5.125  1.00  0.00     0.011 A 
ENDBRANCH   6  12
ENDBRANCH   1   5
BRANCH   2  18
HETATM   18  C   UNL     1      41.679 -14.564   3.354  1.00  0.00     0.035 A 
HETATM   19  C   UNL     1      41.138 -13.624   2.472  1.00  0.00     0.042 A 
HETATM   20  C   UNL     1      40.393 -14.040   1.362  1.00  0.00    -0.021 A 
HETATM   21  C   UNL     1      39.775 -13.055   0.504  1.00  0.00     0.010 A 
HETATM   22  C   UNL     1      40.214 -15.407   1.123  1.00  0.00     0.012 A 
HETATM   23  C   UNL     1      38.849 -12.034   0.804  1.00  0.00     0.152 A 
HETATM   24  C   UNL     1      40.020 -12.911  -0.842  1.00  0.00     0.123 A 
HETATM   25  N   UNL     1      38.518 -11.312  -0.271  1.00  0.00    -0.187 NA
HETATM   26  N   UNL     1      39.260 -11.855  -1.251  1.00  0.00    -0.289 N 
HETATM   27  H   UNL     1      39.198 -11.449  -2.179  1.00  0.00     0.188 HD
HETATM   28  C   UNL     1      40.747 -16.347   2.005  1.00  0.00     0.003 A 
HETATM   29  C   UNL     1      41.463 -15.925   3.128  1.00  0.00     0.029 A 
ENDBRANCH   2  18
TORSDOF 4
ENDMDL
MODEL 6
REMARK VINA RESULT:      -7.5      2.849      7.593
REMARK  4 active torsions:
REMARK  status: ('A' for Active; 'I' for Inactive)
REMARK       I    between atoms: C_2  and  N_3 
REMARK    1  A    between atoms: N_3  and  C_4 
REMARK    2  A    between atoms: C_4  and  C_5 
REMARK       I    between atoms: C_5  and  N_6 
REMARK    3  A    between atoms: N_6  and  C_7 
REMARK    4  A    between atoms: C_20  and  C_21 
ROOT
HETATM    1  C   UNL     1      40.692 -12.681   4.482  1.00  0.00     0.272 C 
HETATM    2  N   UNL     1      40.633 -11.747   3.476  1.00  0.00    -0.322 N 
HETATM    3  O   UNL     1      39.811 -13.504   4.726  1.00  0.00    -0.266 OA
HETATM    4  H   UNL     1      41.098 -10.864   3.676  1.00  0.00     0.169 HD
ENDROOT
BRANCH   1   5
HETATM    5  C   UNL     1      41.964 -12.658   5.308  1.00  0.00     0.104 C 
HETATM    6  C   UNL     1      42.916 -13.571   5.012  1.00  0.00     0.046 C 
BRANCH   5   7
HETATM    7  N   UNL     1      42.211 -11.782   6.355  1.00  0.00    -0.323 N 
HETATM    8  C   UNL     1      42.191 -10.405   6.364  1.00  0.00     0.218 C 
HETATM    9  C   UNL     1      42.384  -9.807   7.735  1.00  0.00     0.117 C 
HETATM   10  O   UNL     1      42.096  -9.688   5.375  1.00  0.00    -0.274 OA
HETATM   11  H   UNL     1      42.444 -12.225   7.235  1.00  0.00     0.169 HD
ENDBRANCH   5   7
BRANCH   6  12
HETATM   12  C   UNL     1      42.879 -14.545   3.914  1.00  0.00    -0.034 A 
HETATM   13  C   UNL     1      42.480 -15.864   4.157  1.00  0.00     0.011 A 
HETATM   14  C   UNL     1      42.465 -16.797   3.118  1.00  0.00     0.001 A 
HETATM   15  C   UNL     1      42.853 -16.417   1.834  1.00  0.00     0.000 A 
HETATM   16  C   UNL     1      43.251 -15.105   1.586  1.00  0.00     0.001 A 
HETATM   17  C   UNL     1      43.260 -14.168   2.621  1.00  0.00     0.011 A 
ENDBRANCH   6  12
ENDBRANCH   1   5
BRANCH   2  18
HETATM   18  C   UNL     1      39.743 -11.777   2.388  1.00  0.00     0.035 A 
HETATM   19  C   UNL     1      40.047 -12.439   1.195  1.00  0.00     0.042 A 
HETATM   20  C   UNL     1      39.160 -12.396   0.113  1.00  0.00    -0.021 A 
HETATM   21  C   UNL     1      39.525 -13.020  -1.138  1.00  0.00     0.010 A 
HETATM   22  C   UNL     1      37.949 -11.707   0.240  1.00  0.00     0.012 A 
HETATM   23  C   UNL     1      40.637 -12.799  -1.979  1.00  0.00     0.152 A 
HETATM   24  C   UNL     1      38.821 -14.026  -1.758  1.00  0.00     0.123 A 
HETATM   25  N   UNL     1      40.629 -13.591  -3.056  1.00  0.00    -0.187 NA
HETATM   26  N   UNL     1      39.524 -14.338  -2.884  1.00  0.00    -0.289 N 
HETATM   27  H   UNL     1      39.315 -15.048  -3.578  1.00  0.00     0.188 HD
HETATM   28  C   UNL     1      37.645 -11.040   1.426  1.00  0.00     0.003 A 
HETATM   29  C   UNL     1      38.548 -11.061   2.492  1.00  0.00     0.029 A 
ENDBRANCH   2  18
TORSDOF 4
ENDMDL
MODEL 7
REMARK VINA RESULT:      -7.4      3.925      7.004
REMARK  4 active torsions:
REMARK  status: ('A' for Active; 'I' for Inactive)
REMARK       I    between atoms: C_2  and  N_3 
REMARK    1  A    between atoms: N_3  and  C_4 
REMARK    2  A    between atoms: C_4  and  C_5 
REMARK       I    between atoms: C_5  and  N_6 
REMARK    3  A    between atoms: N_6  and  C_7 
REMARK    4  A    between atoms: C_20  and  C_21 
ROOT
HETATM    1  C   UNL     1      43.868 -12.081   7.230  1.00  0.00     0.272 C 
HETATM    2  N   UNL     1      43.132 -13.240   7.266  1.00  0.00    -0.322 N 
HETATM    3  O   UNL     1      44.965 -11.964   6.686  1.00  0.00    -0.266 OA
HETATM    4  H   UNL     1      42.571 -13.373   8.105  1.00  0.00     0.169 HD
ENDROOT
BRANCH   1   5
HETATM    5  C   UNL     1      43.226 -10.890   7.914  1.00  0.00     0.104 C 
HETATM    6  C   UNL     1      42.292 -10.202   7.221  1.00  0.00     0.046 C 
BRANCH   5   7
HETATM    7  N   UNL     1      43.543 -10.445   9.190  1.00  0.00    -0.323 N 
HETATM    8  C   UNL     1      44.598  -9.662   9.604  1.00  0.00     0.218 C 
HETATM    9  C   UNL     1      44.529  -9.279  11.062  1.00  0.00     0.117 C 
HETATM   10  O   UNL     1      45.557  -9.336   8.915  1.00  0.00    -0.274 OA
HETATM   11  H   UNL     1      42.908 -10.748   9.917  1.00  0.00     0.169 HD
ENDBRANCH   5   7
BRANCH   6  12
HETATM   12  C   UNL     1      41.774 -10.535   5.888  1.00  0.00    -0.034 A 
HETATM   13  C   UNL     1      40.590 -11.270   5.757  1.00  0.00     0.011 A 
HETATM   14  C   UNL     1      40.108 -11.606   4.490  1.00  0.00     0.001 A 
HETATM   15  C   UNL     1      40.808 -11.211   3.350  1.00  0.00     0.000 A 
HETATM   16  C   UNL     1      41.987 -10.479   3.475  1.00  0.00     0.001 A 
HETATM   17  C   UNL     1      42.467 -10.136   4.740  1.00  0.00     0.011 A 
ENDBRANCH   6  12
ENDBRANCH   1   5
BRANCH   2  18
HETATM   18  C   UNL     1      43.339 -14.362   6.443  1.00  0.00     0.035 A 
HETATM   19  C   UNL     1      42.965 -14.375   5.096  1.00  0.00     0.042 A 
HETATM   20  C   UNL     1      43.133 -15.531   4.325  1.00  0.00    -0.021 A 
HETATM   21  C   UNL     1      42.670 -15.552   2.956  1.00  0.00     0.010 A 
HETATM   22  C   UNL     1      43.703 -16.671   4.902  1.00  0.00     0.012 A 
HETATM   23  C   UNL     1      41.384 -15.324   2.423  1.00  0.00     0.152 A 
HETATM   24  C   UNL     1      43.461 -15.786   1.855  1.00  0.00     0.123 A 
HETATM   25  N   UNL     1      41.358 -15.424   1.090  1.00  0.00    -0.187 NA
HETATM   26  N   UNL     1      42.638 -15.686   0.772  1.00  0.00    -0.289 N 
HETATM   27  H   UNL     1      42.878 -15.780  -0.209  1.00  0.00     0.188 HD
HETATM   28  C   UNL     1      44.070 -16.664   6.248  1.00  0.00     0.003 A 
HETATM   29  C   UNL     1      43.872 -15.517   7.021  1.00  0.00     0.029 A 
ENDBRANCH   2  18
TORSDOF 4
ENDMDL
MODEL 8
REMARK VINA RESULT:      -7.2      1.864      2.304
REMARK  4 active torsions:
REMARK  status: ('A' for Active; 'I' for Inactive)
REMARK       I    between atoms: C_2  and  N_3 
REMARK    1  A    between atoms: N_3  and  C_4 
REMARK    2  A    between atoms: C_4  and  C_5 
REMARK       I    between atoms: C_5  and  N_6 
REMARK    3  A    between atoms: N_6  and  C_7 
REMARK    4  A    between atoms: C_20  and  C_21 
ROOT
HETATM    1  C   UNL     1      41.186 -12.804   2.552  1.00  0.00     0.272 C 
HETATM    2  N   UNL     1      42.203 -13.555   2.014  1.00  0.00    -0.322 N 
HETATM    3  O   UNL     1      40.300 -13.247   3.282  1.00  0.00    -0.266 OA
HETATM    4  H   UNL     1      42.525 -13.256   1.096  1.00  0.00     0.169 HD
ENDROOT
BRANCH   1   5
HETATM    5  C   UNL     1      41.216 -11.331   2.197  1.00  0.00     0.104 C 
HETATM    6  C   UNL     1      41.847 -10.496   3.053  1.00  0.00     0.046 C 
BRANCH   5   7
HETATM    7  N   UNL     1      40.628 -10.776   1.069  1.00  0.00    -0.323 N 
HETATM    8  C   UNL     1      40.565 -11.271  -0.214  1.00  0.00     0.218 C 
HETATM    9  C   UNL     1      39.719 -10.435  -1.143  1.00  0.00     0.117 C 
HETATM   10  O   UNL     1      41.170 -12.252  -0.631  1.00  0.00    -0.274 OA
HETATM   11  H   UNL     1      40.188  -9.876   1.216  1.00  0.00     0.169 HD
ENDBRANCH   5   7
BRANCH   6  12
HETATM   12  C   UNL     1      42.578 -10.882   4.267  1.00  0.00    -0.034 A 
HETATM   13  C   UNL     1      43.882 -11.382   4.174  1.00  0.00     0.011 A 
HETATM   14  C   UNL     1      44.570 -11.768   5.326  1.00  0.00     0.001 A 
HETATM   15  C   UNL     1      43.957 -11.660   6.574  1.00  0.00     0.000 A 
HETATM   16  C   UNL     1      42.659 -11.163   6.673  1.00  0.00     0.001 A 
HETATM   17  C   UNL     1      41.972 -10.769   5.523  1.00  0.00     0.011 A 
ENDBRANCH   6  12
ENDBRANCH   1   5
BRANCH   2  18
HETATM   18  C   UNL     1      42.586 -14.837   2.447  1.00  0.00     0.035 A 
HETATM   19  C   UNL     1      42.781 -15.139   3.798  1.00  0.00     0.042 A 
HETATM   20  C   UNL     1      43.220 -16.410   4.185  1.00  0.00    -0.021 A 
HETATM   21  C   UNL     1      43.492 -16.681   5.578  1.00  0.00     0.010 A 
HETATM   22  C   UNL     1      43.438 -17.392   3.212  1.00  0.00     0.012 A 
HETATM   23  C   UNL     1      44.378 -16.049   6.476  1.00  0.00     0.152 A 
HETATM   24  C   UNL     1      42.872 -17.650   6.333  1.00  0.00     0.123 A 
HETATM   25  N   UNL     1      44.336 -16.587   7.699  1.00  0.00    -0.187 NA
HETATM   26  N   UNL     1      43.399 -17.544   7.587  1.00  0.00    -0.289 N 
HETATM   27  H   UNL     1      43.167 -18.085   8.413  1.00  0.00     0.188 HD
HETATM   28  C   UNL     1      43.250 -17.093   1.863  1.00  0.00     0.003 A 
HETATM   29  C   UNL     1      42.842 -15.812   1.480  1.00  0.00     0.029 A 
ENDBRANCH   2  18
TORSDOF 4
ENDMDL
MODEL 9
REMARK VINA RESULT:      -7.2      9.482     12.688
REMARK  4 active torsions:
REMARK  status: ('A' for Active; 'I' for Inactive)
REMARK       I    between atoms: C_2  and  N_3 
REMARK    1  A    between atoms: N_3  and  C_4 
REMARK    2  A    between atoms: C_4  and  C_5 
REMARK       I    between atoms: C_5  and  N_6 
REMARK    3  A    between atoms: N_6  and  C_7 
REMARK    4  A    between atoms: C_20  and  C_21 
ROOT
HETATM    1  C   UNL     1      42.774  -7.820   9.836  1.00  0.00     0.272 C 
HETATM    2  N   UNL     1      41.431  -8.082   9.709  1.00  0.00    -0.322 N 
HETATM    3  O   UNL     1      43.277  -6.699   9.778  1.00  0.00    -0.266 OA
HETATM    4  H   UNL     1      41.202  -8.973   9.272  1.00  0.00     0.169 HD
ENDROOT
BRANCH   1   5
HETATM    5  C   UNL     1      43.647  -9.035  10.080  1.00  0.00     0.104 C 
HETATM    6  C   UNL     1      43.777  -9.464  11.355  1.00  0.00     0.046 C 
BRANCH   5   7
HETATM    7  N   UNL     1      44.336  -9.725   9.092  1.00  0.00    -0.323 N 
HETATM    8  C   UNL     1      45.378  -9.302   8.298  1.00  0.00     0.218 C 
HETATM    9  C   UNL     1      45.953 -10.390   7.426  1.00  0.00     0.117 C 
HETATM   10  O   UNL     1      45.793  -8.151   8.220  1.00  0.00    -0.274 OA
HETATM   11  H   UNL     1      44.018 -10.673   8.933  1.00  0.00     0.169 HD
ENDBRANCH   5   7
BRANCH   6  12
HETATM   12  C   UNL     1      43.094  -8.915  12.534  1.00  0.00    -0.034 A 
HETATM   13  C   UNL     1      41.943  -9.535  13.032  1.00  0.00     0.011 A 
HETATM   14  C   UNL     1      41.281  -9.001  14.140  1.00  0.00     0.001 A 
HETATM   15  C   UNL     1      41.764  -7.845  14.751  1.00  0.00     0.000 A 
HETATM   16  C   UNL     1      42.911  -7.224  14.260  1.00  0.00     0.001 A 
HETATM   17  C   UNL     1      43.578  -7.759  13.157  1.00  0.00     0.011 A 
ENDBRANCH   6  12
ENDBRANCH   1   5
BRANCH   2  18
HETATM   18  C   UNL     1      40.402  -7.130   9.812  1.00  0.00     0.035 A 
HETATM   19  C   UNL     1      39.916  -6.689  11.047  1.00  0.00     0.042 A 
HETATM   20  C   UNL     1      38.850  -5.784  11.107  1.00  0.00    -0.021 A 
HETATM   21  C   UNL     1      38.310  -5.400  12.391  1.00  0.00     0.010 A 
HETATM   22  C   UNL     1      38.286  -5.299   9.922  1.00  0.00     0.012 A 
HETATM   23  C   UNL     1      37.763  -6.189  13.426  1.00  0.00     0.152 A 
HETATM   24  C   UNL     1      38.255  -4.113  12.875  1.00  0.00     0.123 A 
HETATM   25  N   UNL     1      37.376  -5.458  14.476  1.00  0.00    -0.187 NA
HETATM   26  N   UNL     1      37.705  -4.203  14.120  1.00  0.00    -0.289 N 
HETATM   27  H   UNL     1      37.528  -3.456  14.783  1.00  0.00     0.188 HD
HETATM   28  C   UNL     1      38.764  -5.741   8.689  1.00  0.00     0.003 A 
HETATM   29  C   UNL     1      39.808  -6.669   8.634  1.00  0.00     0.029 A 
ENDBRANCH   2  18
TORSDOF 4
ENDMDL
MODEL 10
REMARK VINA RESULT:      -7.2      2.558      6.426
REMARK  4 active torsions:
REMARK  status: ('A' for Active; 'I' for Inactive)
REMARK       I    between atoms: C_2  and  N_3 
REMARK    1  A    between atoms: N_3  and  C_4 
REMARK    2  A    between atoms: C_4  and  C_5 
REMARK       I    between atoms: C_5  and  N_6 
REMARK    3  A    between atoms: N_6  and  C_7 
REMARK    4  A    between atoms: C_20  and  C_21 
ROOT
HETATM    1  C   UNL     1      42.378 -15.820   1.819  1.00  0.00     0.272 C 
HETATM    2  N   UNL     1      41.096 -15.533   1.413  1.00  0.00    -0.322 N 
HETATM    3  O   UNL     1      43.378 -15.196   1.470  1.00  0.00    -0.266 OA
HETATM    4  H   UNL     1      40.479 -16.338   1.322  1.00  0.00     0.169 HD
ENDROOT
BRANCH   1   5
HETATM    5  C   UNL     1      42.503 -16.988   2.776  1.00  0.00     0.104 C 
HETATM    6  C   UNL     1      42.365 -16.732   4.096  1.00  0.00     0.046 C 
BRANCH   5   7
HETATM    7  N   UNL     1      42.769 -18.297   2.396  1.00  0.00    -0.323 N 
HETATM    8  C   UNL     1      43.779 -19.136   2.808  1.00  0.00     0.218 C 
HETATM    9  C   UNL     1      43.658 -20.539   2.265  1.00  0.00     0.117 C 
HETATM   10  O   UNL     1      44.742 -18.811   3.493  1.00  0.00    -0.274 OA
HETATM   11  H   UNL     1      42.127 -18.681   1.714  1.00  0.00     0.169 HD
ENDBRANCH   5   7
BRANCH   6  12
HETATM   12  C   UNL     1      42.029 -15.437   4.702  1.00  0.00    -0.034 A 
HETATM   13  C   UNL     1      43.043 -14.530   5.032  1.00  0.00     0.011 A 
HETATM   14  C   UNL     1      42.725 -13.308   5.628  1.00  0.00     0.001 A 
HETATM   15  C   UNL     1      41.395 -12.988   5.900  1.00  0.00     0.000 A 
HETATM   16  C   UNL     1      40.382 -13.887   5.573  1.00  0.00     0.001 A 
HETATM   17  C   UNL     1      40.696 -15.107   4.971  1.00  0.00     0.011 A 
ENDBRANCH   6  12
ENDBRANCH   1   5
BRANCH   2  18
HETATM   18  C   UNL     1      40.681 -14.330   0.815  1.00  0.00     0.035 A 
HETATM   19  C   UNL     1      40.848 -13.091   1.441  1.00  0.00     0.042 A 
HETATM   20  C   UNL     1      40.368 -11.922   0.840  1.00  0.00    -0.021 A 
HETATM   21  C   UNL     1      40.480 -10.661   1.536  1.00  0.00     0.010 A 
HETATM   22  C   UNL     1      39.741 -11.994  -0.409  1.00  0.00     0.012 A 
HETATM   23  C   UNL     1      39.991 -10.269   2.801  1.00  0.00     0.152 A 
HETATM   24  C   UNL     1      41.151  -9.554   1.070  1.00  0.00     0.123 A 
HETATM   25  N   UNL     1      40.313  -9.007   3.105  1.00  0.00    -0.187 NA
HETATM   26  N   UNL     1      41.033  -8.606   2.043  1.00  0.00    -0.289 N 
HETATM   27  H   UNL     1      41.418  -7.667   2.054  1.00  0.00     0.188 HD
HETATM   28  C   UNL     1      39.567 -13.229  -1.033  1.00  0.00     0.003 A 
HETATM   29  C   UNL     1      40.020 -14.397  -0.414  1.00  0.00     0.029 A 
ENDBRANCH   2  18
TORSDOF 4
ENDMDL
