MODEL 1
REMARK VINA RESULT:      -8.9      0.000      0.000
REMARK  5 active torsions:
REMARK  status: ('A' for Active; 'I' for Inactive)
REMARK    1  A    between atoms: C_2  and  C_3 
REMARK    2  A    between atoms: C_8  and  C_9 
REMARK       I    between atoms: C_9  and  N_10 
REMARK    3  A    between atoms: N_10  and  C_11 
REMARK    4  A    between atoms: C_11  and  C_12 
REMARK    5  A    between atoms: C_19  and  C_20 
ROOT
HETATM    1  C   UNL     1      42.239 -14.595   2.729  1.00  0.00     0.118 C 
HETATM    2  N   UNL     1      40.910 -14.259   3.228  1.00  0.00    -0.366 N 
HETATM    3  C   UNL     1      40.727 -13.357   4.218  1.00  0.00     0.123 A 
HETATM    4  N   UNL     1      41.768 -12.625   4.724  1.00  0.00    -0.240 N 
HETATM    5  N   UNL     1      41.418 -11.834   5.752  1.00  0.00    -0.165 NA
HETATM    6  C   UNL     1      40.079 -11.998   5.847  1.00  0.00     0.148 A 
HETATM    7  C   UNL     1      39.615 -12.963   4.914  1.00  0.00     0.088 A 
HETATM    8  C   UNL     1      43.148 -12.793   4.305  1.00  0.00     0.221 C 
HETATM    9  C   UNL     1      43.194 -13.404   2.891  1.00  0.00     0.066 C 
HETATM   10  H   UNL     1      40.161 -14.895   2.957  1.00  0.00     0.161 HD
ENDROOT
BRANCH   6  11
HETATM   11  C   UNL     1      39.264 -11.238   6.809  1.00  0.00     0.272 C 
HETATM   12  N   UNL     1      40.014 -10.486   7.683  1.00  0.00    -0.353 N 
HETATM   13  H   UNL     1      41.017 -10.651   7.664  1.00  0.00     0.162 HD
HETATM   14  O   UNL     1      38.037 -11.265   6.816  1.00  0.00    -0.266 OA
BRANCH  12  15
HETATM   15  C   UNL     1      39.437  -9.677   8.735  1.00  0.00     0.155 C 
BRANCH  15  16
HETATM   16  C   UNL     1      40.495  -9.048   9.643  1.00  0.00     0.139 C 
HETATM   17  O   UNL     1      40.521  -9.707  10.926  1.00  0.00    -0.384 OA
HETATM   18  C   UNL     1      41.880  -9.745  11.388  1.00  0.00     0.168 C 
HETATM   19  C   UNL     1      42.737  -9.068  10.338  1.00  0.00     0.029 C 
HETATM   20  C   UNL     1      41.901  -9.200   9.091  1.00  0.00     0.035 C 
ENDBRANCH  15  16
ENDBRANCH  12  15
ENDBRANCH   6  11
BRANCH   8  21
HETATM   21  C   UNL     1      43.912 -11.486   4.315  1.00  0.00     0.409 C 
HETATM   22  F   UNL     1      44.432 -11.174   5.520  1.00  0.00    -0.169 F 
HETATM   23  F   UNL     1      44.968 -11.571   3.461  1.00  0.00    -0.169 F 
HETATM   24  F   UNL     1      43.161 -10.443   3.891  1.00  0.00    -0.169 F 
ENDBRANCH   8  21
BRANCH   1  25
HETATM   25  C   UNL     1      42.778 -15.884   3.331  1.00  0.00    -0.034 A 
HETATM   26  C   UNL     1      43.258 -15.973   4.647  1.00  0.00     0.011 A 
HETATM   27  C   UNL     1      43.739 -17.185   5.155  1.00  0.00     0.026 A 
HETATM   28  C   UNL     1      43.755 -18.329   4.356  1.00  0.00     0.055 A 
HETATM   29  C   UNL     1      43.290 -18.259   3.041  1.00  0.00     0.056 A 
HETATM   30 CL   UNL     1      44.354 -19.791   5.053  1.00  0.00    -0.083 Cl
HETATM   31  C   UNL     1      42.810 -17.044   2.536  1.00  0.00     0.034 A 
HETATM   32 CL   UNL     1      43.276 -19.627   1.987  1.00  0.00    -0.083 Cl
ENDBRANCH   1  25
TORSDOF 5
ENDMDL
MODEL 2
REMARK VINA RESULT:      -8.7      2.553      3.550
REMARK  5 active torsions:
REMARK  status: ('A' for Active; 'I' for Inactive)
REMARK    1  A    between atoms: C_2  and  C_3 
REMARK    2  A    between atoms: C_8  and  C_9 
REMARK       I    between atoms: C_9  and  N_10 
REMARK    3  A    between atoms: N_10  and  C_11 
REMARK    4  A    between atoms: C_11  and  C_12 
REMARK    5  A    between atoms: C_19  and  C_20 
ROOT
HETATM    1  C   UNL     1      41.230 -15.169   4.759  1.00  0.00     0.118 C 
HETATM    2  N   UNL     1      41.879 -14.809   6.015  1.00  0.00    -0.366 N 
HETATM    3  C   UNL     1      42.747 -13.777   6.098  1.00  0.00     0.123 A 
HETATM    4  N   UNL     1      42.975 -12.941   5.037  1.00  0.00    -0.240 N 
HETATM    5  N   UNL     1      43.922 -12.020   5.273  1.00  0.00    -0.165 NA
HETATM    6  C   UNL     1      44.248 -12.214   6.571  1.00  0.00     0.148 A 
HETATM    7  C   UNL     1      43.546 -13.322   7.114  1.00  0.00     0.088 A 
HETATM    8  C   UNL     1      42.372 -13.122   3.729  1.00  0.00     0.221 C 
HETATM    9  C   UNL     1      41.069 -13.935   3.860  1.00  0.00     0.066 C 
HETATM   10  H   UNL     1      41.822 -15.504   6.759  1.00  0.00     0.161 HD
ENDROOT
BRANCH   6  11
HETATM   11  C   UNL     1      45.209 -11.348   7.274  1.00  0.00     0.272 C 
HETATM   12  N   UNL     1      44.694 -10.778   8.416  1.00  0.00    -0.353 N 
HETATM   13  H   UNL     1      43.694 -10.896   8.559  1.00  0.00     0.162 HD
HETATM   14  O   UNL     1      46.359 -11.167   6.884  1.00  0.00    -0.266 OA
BRANCH  12  15
HETATM   15  C   UNL     1      45.441  -9.870   9.259  1.00  0.00     0.155 C 
BRANCH  15  16
HETATM   16  C   UNL     1      44.700  -9.520  10.550  1.00  0.00     0.139 C 
HETATM   17  O   UNL     1      43.690  -8.520  10.303  1.00  0.00    -0.384 OA
HETATM   18  C   UNL     1      42.564  -8.794  11.150  1.00  0.00     0.168 C 
HETATM   19  C   UNL     1      42.899 -10.024  11.969  1.00  0.00     0.029 C 
HETATM   20  C   UNL     1      43.949 -10.706  11.130  1.00  0.00     0.035 C 
ENDBRANCH  15  16
ENDBRANCH  12  15
ENDBRANCH   6  11
BRANCH   8  21
HETATM   21  C   UNL     1      42.077 -11.802   3.048  1.00  0.00     0.409 C 
HETATM   22  F   UNL     1      41.248 -11.914   1.990  1.00  0.00    -0.169 F 
HETATM   23  F   UNL     1      41.454 -10.968   3.926  1.00  0.00    -0.169 F 
HETATM   24  F   UNL     1      43.199 -11.164   2.646  1.00  0.00    -0.169 F 
ENDBRANCH   8  21
BRANCH   1  25
HETATM   25  C   UNL     1      41.916 -16.334   4.062  1.00  0.00    -0.034 A 
HETATM   26  C   UNL     1      41.792 -16.586   2.687  1.00  0.00     0.011 A 
HETATM   27  C   UNL     1      42.449 -17.670   2.094  1.00  0.00     0.026 A 
HETATM   28  C   UNL     1      43.239 -18.525   2.864  1.00  0.00     0.055 A 
HETATM   29  C   UNL     1      43.368 -18.297   4.236  1.00  0.00     0.056 A 
HETATM   30 CL   UNL     1      44.027 -19.836   2.062  1.00  0.00    -0.083 Cl
HETATM   31  C   UNL     1      42.708 -17.212   4.827  1.00  0.00     0.034 A 
HETATM   32 CL   UNL     1      44.324 -19.308   5.260  1.00  0.00    -0.083 Cl
ENDBRANCH   1  25
TORSDOF 5
ENDMDL
MODEL 3
REMARK VINA RESULT:      -8.7      5.274      8.032
REMARK  5 active torsions:
REMARK  status: ('A' for Active; 'I' for Inactive)
REMARK    1  A    between atoms: C_2  and  C_3 
REMARK    2  A    between atoms: C_8  and  C_9 
REMARK       I    between atoms: C_9  and  N_10 
REMARK    3  A    between atoms: N_10  and  C_11 
REMARK    4  A    between atoms: C_11  and  C_12 
REMARK    5  A    between atoms: C_19  and  C_20 
ROOT
HETATM    1  C   UNL     1      41.107 -14.762   5.318  1.00  0.00     0.118 C 
HETATM    2  N   UNL     1      40.182 -14.227   4.325  1.00  0.00    -0.366 N 
HETATM    3  C   UNL     1      40.387 -14.388   3.000  1.00  0.00     0.123 A 
HETATM    4  N   UNL     1      41.411 -15.160   2.520  1.00  0.00    -0.240 N 
HETATM    5  N   UNL     1      41.512 -15.146   1.181  1.00  0.00    -0.165 NA
HETATM    6  C   UNL     1      40.451 -14.408   0.783  1.00  0.00     0.148 A 
HETATM    7  C   UNL     1      39.735 -13.898   1.898  1.00  0.00     0.088 A 
HETATM    8  C   UNL     1      42.394 -15.810   3.369  1.00  0.00     0.221 C 
HETATM    9  C   UNL     1      41.812 -16.015   4.781  1.00  0.00     0.066 C 
HETATM   10  H   UNL     1      39.509 -13.542   4.670  1.00  0.00     0.161 HD
ENDROOT
BRANCH   6  11
HETATM   11  C   UNL     1      40.129 -14.204  -0.640  1.00  0.00     0.272 C 
HETATM   12  N   UNL     1      40.810 -13.151  -1.206  1.00  0.00    -0.353 N 
HETATM   13  H   UNL     1      41.328 -12.559  -0.562  1.00  0.00     0.162 HD
HETATM   14  O   UNL     1      39.342 -14.915  -1.257  1.00  0.00    -0.266 OA
BRANCH  12  15
HETATM   15  C   UNL     1      40.639 -12.742  -2.583  1.00  0.00     0.155 C 
BRANCH  15  16
HETATM   16  C   UNL     1      39.557 -11.674  -2.751  1.00  0.00     0.139 C 
HETATM   17  O   UNL     1      38.264 -12.285  -2.939  1.00  0.00    -0.384 OA
HETATM   18  C   UNL     1      37.277 -11.467  -2.293  1.00  0.00     0.168 C 
HETATM   19  C   UNL     1      37.998 -10.284  -1.677  1.00  0.00     0.029 C 
HETATM   20  C   UNL     1      39.405 -10.800  -1.518  1.00  0.00     0.035 C 
ENDBRANCH  15  16
ENDBRANCH  12  15
ENDBRANCH   6  11
BRANCH   8  21
HETATM   21  C   UNL     1      42.841 -17.143   2.808  1.00  0.00     0.409 C 
HETATM   22  F   UNL     1      43.831 -17.041   1.897  1.00  0.00    -0.169 F 
HETATM   23  F   UNL     1      43.336 -17.915   3.815  1.00  0.00    -0.169 F 
HETATM   24  F   UNL     1      41.823 -17.842   2.257  1.00  0.00    -0.169 F 
ENDBRANCH   8  21
BRANCH   1  25
HETATM   25  C   UNL     1      42.072 -13.708   5.842  1.00  0.00    -0.034 A 
HETATM   26  C   UNL     1      43.347 -14.016   6.339  1.00  0.00     0.011 A 
HETATM   27  C   UNL     1      44.198 -13.008   6.805  1.00  0.00     0.026 A 
HETATM   28  C   UNL     1      43.791 -11.673   6.786  1.00  0.00     0.055 A 
HETATM   29  C   UNL     1      42.522 -11.347   6.302  1.00  0.00     0.056 A 
HETATM   30 CL   UNL     1      44.898 -10.483   7.367  1.00  0.00    -0.083 Cl
HETATM   31  C   UNL     1      41.671 -12.359   5.838  1.00  0.00     0.034 A 
HETATM   32 CL   UNL     1      41.939  -9.722   6.246  1.00  0.00    -0.083 Cl
ENDBRANCH   1  25
TORSDOF 5
ENDMDL
MODEL 4
REMARK VINA RESULT:      -8.4      2.314      2.928
REMARK  5 active torsions:
REMARK  status: ('A' for Active; 'I' for Inactive)
REMARK    1  A    between atoms: C_2  and  C_3 
REMARK    2  A    between atoms: C_8  and  C_9 
REMARK       I    between atoms: C_9  and  N_10 
REMARK    3  A    between atoms: N_10  and  C_11 
REMARK    4  A    between atoms: C_11  and  C_12 
REMARK    5  A    between atoms: C_19  and  C_20 
ROOT
HETATM    1  C   UNL     1      40.138 -14.832   3.317  1.00  0.00     0.118 C 
HETATM    2  N   UNL     1      39.894 -14.180   4.599  1.00  0.00    -0.366 N 
HETATM    3  C   UNL     1      40.398 -12.959   4.885  1.00  0.00     0.123 A 
HETATM    4  N   UNL     1      41.067 -12.220   3.946  1.00  0.00    -0.240 N 
HETATM    5  N   UNL     1      41.564 -11.068   4.425  1.00  0.00    -0.165 NA
HETATM    6  C   UNL     1      41.115 -11.025   5.700  1.00  0.00     0.148 A 
HETATM    7  C   UNL     1      40.398 -12.206   6.030  1.00  0.00     0.088 A 
HETATM    8  C   UNL     1      41.353 -12.694   2.604  1.00  0.00     0.221 C 
HETATM    9  C   UNL     1      40.343 -13.789   2.210  1.00  0.00     0.066 C 
HETATM   10  H   UNL     1      39.524 -14.778   5.337  1.00  0.00     0.161 HD
ENDROOT
BRANCH   6  11
HETATM   11  C   UNL     1      41.364  -9.870   6.579  1.00  0.00     0.272 C 
HETATM   12  N   UNL     1      41.750 -10.228   7.851  1.00  0.00    -0.353 N 
HETATM   13  H   UNL     1      41.677 -11.217   8.075  1.00  0.00     0.162 HD
HETATM   14  O   UNL     1      41.251  -8.707   6.205  1.00  0.00    -0.266 OA
BRANCH  12  15
HETATM   15  C   UNL     1      42.025  -9.269   8.898  1.00  0.00     0.155 C 
BRANCH  15  16
HETATM   16  C   UNL     1      43.490  -9.280   9.339  1.00  0.00     0.139 C 
HETATM   17  O   UNL     1      44.078 -10.579   9.116  1.00  0.00    -0.384 OA
HETATM   18  C   UNL     1      45.448 -10.395   8.729  1.00  0.00     0.168 C 
HETATM   19  C   UNL     1      45.722  -8.904   8.716  1.00  0.00     0.029 C 
HETATM   20  C   UNL     1      44.346  -8.315   8.538  1.00  0.00     0.035 C 
ENDBRANCH  15  16
ENDBRANCH  12  15
ENDBRANCH   6  11
BRANCH   8  21
HETATM   21  C   UNL     1      41.311 -11.577   1.583  1.00  0.00     0.409 C 
HETATM   22  F   UNL     1      42.385 -10.761   1.632  1.00  0.00    -0.169 F 
HETATM   23  F   UNL     1      41.301 -12.109   0.330  1.00  0.00    -0.169 F 
HETATM   24  F   UNL     1      40.195 -10.821   1.686  1.00  0.00    -0.169 F 
ENDBRANCH   8  21
BRANCH   1  25
HETATM   25  C   UNL     1      41.260 -15.858   3.391  1.00  0.00    -0.034 A 
HETATM   26  C   UNL     1      41.841 -16.441   2.254  1.00  0.00     0.011 A 
HETATM   27  C   UNL     1      42.874 -17.377   2.377  1.00  0.00     0.026 A 
HETATM   28  C   UNL     1      43.343 -17.751   3.637  1.00  0.00     0.055 A 
HETATM   29  C   UNL     1      42.772 -17.188   4.780  1.00  0.00     0.056 A 
HETATM   30 CL   UNL     1      44.627 -18.904   3.710  1.00  0.00    -0.083 Cl
HETATM   31  C   UNL     1      41.737 -16.253   4.655  1.00  0.00     0.034 A 
HETATM   32 CL   UNL     1      43.293 -17.597   6.376  1.00  0.00    -0.083 Cl
ENDBRANCH   1  25
TORSDOF 5
ENDMDL
MODEL 5
REMARK VINA RESULT:      -8.2      5.099      8.092
REMARK  5 active torsions:
REMARK  status: ('A' for Active; 'I' for Inactive)
REMARK    1  A    between atoms: C_2  and  C_3 
REMARK    2  A    between atoms: C_8  and  C_9 
REMARK       I    between atoms: C_9  and  N_10 
REMARK    3  A    between atoms: N_10  and  C_11 
REMARK    4  A    between atoms: C_11  and  C_12 
REMARK    5  A    between atoms: C_19  and  C_20 
ROOT
HETATM    1  C   UNL     1      42.139 -13.142   6.136  1.00  0.00     0.118 C 
HETATM    2  N   UNL     1      40.958 -12.476   5.600  1.00  0.00    -0.366 N 
HETATM    3  C   UNL     1      40.767 -12.324   4.271  1.00  0.00     0.123 A 
HETATM    4  N   UNL     1      41.613 -12.889   3.354  1.00  0.00    -0.240 N 
HETATM    5  N   UNL     1      41.316 -12.572   2.083  1.00  0.00    -0.165 NA
HETATM    6  C   UNL     1      40.178 -11.850   2.186  1.00  0.00     0.148 A 
HETATM    7  C   UNL     1      39.816 -11.656   3.546  1.00  0.00     0.088 A 
HETATM    8  C   UNL     1      42.808 -13.630   3.714  1.00  0.00     0.221 C 
HETATM    9  C   UNL     1      42.669 -14.187   5.144  1.00  0.00     0.066 C 
HETATM   10  H   UNL     1      40.409 -11.938   6.271  1.00  0.00     0.161 HD
ENDROOT
BRANCH   6  11
HETATM   11  C   UNL     1      39.450 -11.363   1.001  1.00  0.00     0.272 C 
HETATM   12  N   UNL     1      38.680 -12.332   0.399  1.00  0.00    -0.353 N 
HETATM   13  H   UNL     1      38.814 -13.280   0.740  1.00  0.00     0.162 HD
HETATM   14  O   UNL     1      39.517 -10.204   0.605  1.00  0.00    -0.266 OA
BRANCH  12  15
HETATM   15  C   UNL     1      37.897 -12.098  -0.794  1.00  0.00     0.155 C 
BRANCH  15  16
HETATM   16  C   UNL     1      38.422 -12.871  -2.005  1.00  0.00     0.139 C 
HETATM   17  O   UNL     1      39.217 -13.999  -1.583  1.00  0.00    -0.384 OA
HETATM   18  C   UNL     1      38.996 -15.078  -2.504  1.00  0.00     0.168 C 
HETATM   19  C   UNL     1      38.017 -14.589  -3.553  1.00  0.00     0.029 C 
HETATM   20  C   UNL     1      37.305 -13.465  -2.845  1.00  0.00     0.035 C 
ENDBRANCH  15  16
ENDBRANCH  12  15
ENDBRANCH   6  11
BRANCH   8  21
HETATM   21  C   UNL     1      43.085 -14.768   2.754  1.00  0.00     0.409 C 
HETATM   22  F   UNL     1      43.696 -15.824   3.331  1.00  0.00    -0.169 F 
HETATM   23  F   UNL     1      41.908 -15.240   2.258  1.00  0.00    -0.169 F 
HETATM   24  F   UNL     1      43.820 -14.380   1.688  1.00  0.00    -0.169 F 
ENDBRANCH   8  21
BRANCH   1  25
HETATM   25  C   UNL     1      43.204 -12.157   6.596  1.00  0.00    -0.034 A 
HETATM   26  C   UNL     1      44.574 -12.464   6.620  1.00  0.00     0.011 A 
HETATM   27  C   UNL     1      45.513 -11.520   7.047  1.00  0.00     0.026 A 
HETATM   28  C   UNL     1      45.103 -10.252   7.464  1.00  0.00     0.055 A 
HETATM   29  C   UNL     1      43.745  -9.930   7.456  1.00  0.00     0.056 A 
HETATM   30 CL   UNL     1      46.320  -9.136   7.969  1.00  0.00    -0.083 Cl
HETATM   31  C   UNL     1      42.806 -10.878   7.029  1.00  0.00     0.034 A 
HETATM   32 CL   UNL     1      43.153  -8.386   7.957  1.00  0.00    -0.083 Cl
ENDBRANCH   1  25
TORSDOF 5
ENDMDL
MODEL 6
REMARK VINA RESULT:      -8.2      1.585      2.357
REMARK  5 active torsions:
REMARK  status: ('A' for Active; 'I' for Inactive)
REMARK    1  A    between atoms: C_2  and  C_3 
REMARK    2  A    between atoms: C_8  and  C_9 
REMARK       I    between atoms: C_9  and  N_10 
REMARK    3  A    between atoms: N_10  and  C_11 
REMARK    4  A    between atoms: C_11  and  C_12 
REMARK    5  A    between atoms: C_19  and  C_20 
ROOT
HETATM    1  C   UNL     1      43.000 -12.662   2.829  1.00  0.00     0.118 C 
HETATM    2  N   UNL     1      41.656 -12.179   3.121  1.00  0.00    -0.366 N 
HETATM    3  C   UNL     1      41.282 -11.822   4.369  1.00  0.00     0.123 A 
HETATM    4  N   UNL     1      42.177 -11.785   5.405  1.00  0.00    -0.240 N 
HETATM    5  N   UNL     1      41.617 -11.485   6.588  1.00  0.00    -0.165 NA
HETATM    6  C   UNL     1      40.326 -11.227   6.280  1.00  0.00     0.148 A 
HETATM    7  C   UNL     1      40.074 -11.450   4.900  1.00  0.00     0.088 A 
HETATM    8  C   UNL     1      43.568 -12.183   5.279  1.00  0.00     0.221 C 
HETATM    9  C   UNL     1      44.017 -12.060   3.810  1.00  0.00     0.066 C 
HETATM   10  H   UNL     1      40.960 -12.338   2.393  1.00  0.00     0.161 HD
ENDROOT
BRANCH   6  11
HETATM   11  C   UNL     1      39.357 -10.770   7.290  1.00  0.00     0.272 C 
HETATM   12  N   UNL     1      39.938 -10.081   8.329  1.00  0.00    -0.353 N 
HETATM   13  H   UNL     1      40.954 -10.094   8.358  1.00  0.00     0.162 HD
HETATM   14  O   UNL     1      38.150 -10.975   7.201  1.00  0.00    -0.266 OA
BRANCH  12  15
HETATM   15  C   UNL     1      39.192  -9.557   9.453  1.00  0.00     0.155 C 
BRANCH  15  16
HETATM   16  C   UNL     1      40.035  -9.456  10.725  1.00  0.00     0.139 C 
HETATM   17  O   UNL     1      39.963  -8.125  11.278  1.00  0.00    -0.384 OA
HETATM   18  C   UNL     1      39.990  -8.228  12.710  1.00  0.00     0.168 C 
HETATM   19  C   UNL     1      40.089  -9.699  13.059  1.00  0.00     0.029 C 
HETATM   20  C   UNL     1      39.535 -10.371  11.829  1.00  0.00     0.035 C 
ENDBRANCH  15  16
ENDBRANCH  12  15
ENDBRANCH   6  11
BRANCH   8  21
HETATM   21  C   UNL     1      44.481 -11.353   6.157  1.00  0.00     0.409 C 
HETATM   22  F   UNL     1      43.951 -10.166   6.517  1.00  0.00    -0.169 F 
HETATM   23  F   UNL     1      44.726 -12.023   7.317  1.00  0.00    -0.169 F 
HETATM   24  F   UNL     1      45.685 -11.128   5.585  1.00  0.00    -0.169 F 
ENDBRANCH   8  21
BRANCH   1  25
HETATM   25  C   UNL     1      43.069 -14.180   2.749  1.00  0.00    -0.034 A 
HETATM   26  C   UNL     1      43.295 -14.876   1.552  1.00  0.00     0.011 A 
HETATM   27  C   UNL     1      43.354 -16.274   1.534  1.00  0.00     0.026 A 
HETATM   28  C   UNL     1      43.183 -17.003   2.711  1.00  0.00     0.055 A 
HETATM   29  C   UNL     1      42.947 -16.330   3.912  1.00  0.00     0.056 A 
HETATM   30 CL   UNL     1      43.277 -18.725   2.614  1.00  0.00    -0.083 Cl
HETATM   31  C   UNL     1      42.888 -14.930   3.926  1.00  0.00     0.034 A 
HETATM   32 CL   UNL     1      42.723 -17.157   5.412  1.00  0.00    -0.083 Cl
ENDBRANCH   1  25
TORSDOF 5
ENDMDL
MODEL 7
REMARK VINA RESULT:      -8.1      4.152      6.730
REMARK  5 active torsions:
REMARK  status: ('A' for Active; 'I' for Inactive)
REMARK    1  A    between atoms: C_2  and  C_3 
REMARK    2  A    between atoms: C_8  and  C_9 
REMARK       I    between atoms: C_9  and  N_10 
REMARK    3  A    between atoms: N_10  and  C_11 
REMARK    4  A    between atoms: C_11  and  C_12 
REMARK    5  A    between atoms: C_19  and  C_20 
ROOT
HETATM    1  C   UNL     1      43.390 -14.729   3.665  1.00  0.00     0.118 C 
HETATM    2  N   UNL     1      43.000 -14.000   2.464  1.00  0.00    -0.366 N 
HETATM    3  C   UNL     1      41.736 -13.562   2.274  1.00  0.00     0.123 A 
HETATM    4  N   UNL     1      40.781 -13.678   3.249  1.00  0.00    -0.240 N 
HETATM    5  N   UNL     1      39.565 -13.262   2.860  1.00  0.00    -0.165 NA
HETATM    6  C   UNL     1      39.770 -12.773   1.617  1.00  0.00     0.148 A 
HETATM    7  C   UNL     1      41.117 -12.964   1.208  1.00  0.00     0.088 A 
HETATM    8  C   UNL     1      41.012 -14.330   4.525  1.00  0.00     0.221 C 
HETATM    9  C   UNL     1      42.516 -14.314   4.858  1.00  0.00     0.066 C 
HETATM   10  H   UNL     1      43.662 -14.037   1.689  1.00  0.00     0.161 HD
ENDROOT
BRANCH   6  11
HETATM   11  C   UNL     1      38.696 -12.129   0.842  1.00  0.00     0.272 C 
HETATM   12  N   UNL     1      38.590 -12.609  -0.443  1.00  0.00    -0.353 N 
HETATM   13  H   UNL     1      39.337 -13.227  -0.750  1.00  0.00     0.162 HD
HETATM   14  O   UNL     1      37.963 -11.261   1.306  1.00  0.00    -0.266 OA
BRANCH  12  15
HETATM   15  C   UNL     1      37.626 -12.112  -1.401  1.00  0.00     0.155 C 
BRANCH  15  16
HETATM   16  C   UNL     1      38.251 -11.168  -2.430  1.00  0.00     0.139 C 
HETATM   17  O   UNL     1      38.448  -9.856  -1.863  1.00  0.00    -0.384 OA
HETATM   18  C   UNL     1      39.658  -9.306  -2.406  1.00  0.00     0.168 C 
HETATM   19  C   UNL     1      40.236 -10.330  -3.363  1.00  0.00     0.029 C 
HETATM   20  C   UNL     1      39.631 -11.621  -2.872  1.00  0.00     0.035 C 
ENDBRANCH  15  16
ENDBRANCH  12  15
ENDBRANCH   6  11
BRANCH   8  21
HETATM   21  C   UNL     1      40.239 -13.673   5.650  1.00  0.00     0.409 C 
HETATM   22  F   UNL     1      39.127 -13.030   5.237  1.00  0.00    -0.169 F 
HETATM   23  F   UNL     1      39.819 -14.624   6.528  1.00  0.00    -0.169 F 
HETATM   24  F   UNL     1      40.995 -12.805   6.360  1.00  0.00    -0.169 F 
ENDBRANCH   8  21
BRANCH   1  25
HETATM   25  C   UNL     1      43.429 -16.234   3.445  1.00  0.00    -0.034 A 
HETATM   26  C   UNL     1      43.307 -16.827   2.179  1.00  0.00     0.011 A 
HETATM   27  C   UNL     1      43.355 -18.218   2.030  1.00  0.00     0.026 A 
HETATM   28  C   UNL     1      43.520 -19.043   3.144  1.00  0.00     0.055 A 
HETATM   29  C   UNL     1      43.633 -18.472   4.413  1.00  0.00     0.056 A 
HETATM   30 CL   UNL     1      43.578 -20.748   2.883  1.00  0.00    -0.083 Cl
HETATM   31  C   UNL     1      43.584 -17.080   4.559  1.00  0.00     0.034 A 
HETATM   32 CL   UNL     1      43.838 -19.421   5.843  1.00  0.00    -0.083 Cl
ENDBRANCH   1  25
TORSDOF 5
ENDMDL
MODEL 8
REMARK VINA RESULT:      -7.9      3.441      4.417
REMARK  5 active torsions:
REMARK  status: ('A' for Active; 'I' for Inactive)
REMARK    1  A    between atoms: C_2  and  C_3 
REMARK    2  A    between atoms: C_8  and  C_9 
REMARK       I    between atoms: C_9  and  N_10 
REMARK    3  A    between atoms: N_10  and  C_11 
REMARK    4  A    between atoms: C_11  and  C_12 
REMARK    5  A    between atoms: C_19  and  C_20 
ROOT
HETATM    1  C   UNL     1      42.387 -13.643   2.944  1.00  0.00     0.118 C 
HETATM    2  N   UNL     1      42.327 -12.291   3.486  1.00  0.00    -0.366 N 
HETATM    3  C   UNL     1      41.569 -11.987   4.563  1.00  0.00     0.123 A 
HETATM    4  N   UNL     1      40.908 -12.954   5.273  1.00  0.00    -0.240 N 
HETATM    5  N   UNL     1      40.144 -12.465   6.263  1.00  0.00    -0.165 NA
HETATM    6  C   UNL     1      40.399 -11.137   6.245  1.00  0.00     0.148 A 
HETATM    7  C   UNL     1      41.272 -10.798   5.177  1.00  0.00     0.088 A 
HETATM    8  C   UNL     1      40.903 -14.358   4.904  1.00  0.00     0.221 C 
HETATM    9  C   UNL     1      42.144 -14.681   4.049  1.00  0.00     0.066 C 
HETATM   10  H   UNL     1      42.698 -11.555   2.885  1.00  0.00     0.161 HD
ENDROOT
BRANCH   6  11
HETATM   11  C   UNL     1      39.821 -10.216   7.237  1.00  0.00     0.272 C 
HETATM   12  N   UNL     1      40.623 -10.028   8.338  1.00  0.00    -0.353 N 
HETATM   13  H   UNL     1      41.430 -10.643   8.410  1.00  0.00     0.162 HD
HETATM   14  O   UNL     1      38.736  -9.662   7.084  1.00  0.00    -0.266 OA
BRANCH  12  15
HETATM   15  C   UNL     1      40.255  -9.188   9.457  1.00  0.00     0.155 C 
BRANCH  15  16
HETATM   16  C   UNL     1      41.429  -8.912  10.399  1.00  0.00     0.139 C 
HETATM   17  O   UNL     1      41.367  -9.773  11.555  1.00  0.00    -0.384 OA
HETATM   18  C   UNL     1      42.708 -10.121  11.932  1.00  0.00     0.168 C 
HETATM   19  C   UNL     1      43.648  -9.434  10.962  1.00  0.00     0.029 C 
HETATM   20  C   UNL     1      42.773  -9.208   9.756  1.00  0.00     0.035 C 
ENDBRANCH  15  16
ENDBRANCH  12  15
ENDBRANCH   6  11
BRANCH   8  21
HETATM   21  C   UNL     1      40.873 -15.267   6.115  1.00  0.00     0.409 C 
HETATM   22  F   UNL     1      39.656 -15.363   6.688  1.00  0.00    -0.169 F 
HETATM   23  F   UNL     1      41.214 -16.531   5.742  1.00  0.00    -0.169 F 
HETATM   24  F   UNL     1      41.763 -14.896   7.063  1.00  0.00    -0.169 F 
ENDBRANCH   8  21
BRANCH   1  25
HETATM   25  C   UNL     1      41.477 -13.827   1.738  1.00  0.00    -0.034 A 
HETATM   26  C   UNL     1      40.887 -15.056   1.402  1.00  0.00     0.011 A 
HETATM   27  C   UNL     1      40.054 -15.170   0.284  1.00  0.00     0.026 A 
HETATM   28  C   UNL     1      39.797 -14.061  -0.522  1.00  0.00     0.055 A 
HETATM   29  C   UNL     1      40.381 -12.831  -0.211  1.00  0.00     0.056 A 
HETATM   30 CL   UNL     1      38.752 -14.275  -1.880  1.00  0.00    -0.083 Cl
HETATM   31  C   UNL     1      41.216 -12.720   0.909  1.00  0.00     0.034 A 
HETATM   32 CL   UNL     1      40.117 -11.411  -1.157  1.00  0.00    -0.083 Cl
ENDBRANCH   1  25
TORSDOF 5
ENDMDL
MODEL 9
REMARK VINA RESULT:      -7.8      4.780      6.350
REMARK  5 active torsions:
REMARK  status: ('A' for Active; 'I' for Inactive)
REMARK    1  A    between atoms: C_2  and  C_3 
REMARK    2  A    between atoms: C_8  and  C_9 
REMARK       I    between atoms: C_9  and  N_10 
REMARK    3  A    between atoms: N_10  and  C_11 
REMARK    4  A    between atoms: C_11  and  C_12 
REMARK    5  A    between atoms: C_19  and  C_20 
ROOT
HETATM    1  C   UNL     1      39.592 -15.401   2.205  1.00  0.00     0.118 C 
HETATM    2  N   UNL     1      39.172 -14.209   2.932  1.00  0.00    -0.366 N 
HETATM    3  C   UNL     1      39.479 -12.966   2.502  1.00  0.00     0.123 A 
HETATM    4  N   UNL     1      40.101 -12.754   1.300  1.00  0.00    -0.240 N 
HETATM    5  N   UNL     1      40.398 -11.465   1.069  1.00  0.00    -0.165 NA
HETATM    6  C   UNL     1      39.861 -10.813   2.125  1.00  0.00     0.148 A 
HETATM    7  C   UNL     1      39.295 -11.725   3.055  1.00  0.00     0.088 A 
HETATM    8  C   UNL     1      40.541 -13.825   0.424  1.00  0.00     0.221 C 
HETATM    9  C   UNL     1      39.724 -15.101   0.705  1.00  0.00     0.066 C 
HETATM   10  H   UNL     1      38.839 -14.365   3.884  1.00  0.00     0.161 HD
ENDROOT
BRANCH   6  11
HETATM   11  C   UNL     1      39.885  -9.345   2.233  1.00  0.00     0.272 C 
HETATM   12  N   UNL     1      40.342  -8.723   1.094  1.00  0.00    -0.353 N 
HETATM   13  H   UNL     1      40.739  -9.332   0.384  1.00  0.00     0.162 HD
HETATM   14  O   UNL     1      39.520  -8.741   3.238  1.00  0.00    -0.266 OA
BRANCH  12  15
HETATM   15  C   UNL     1      40.479  -7.288   0.972  1.00  0.00     0.155 C 
BRANCH  15  16
HETATM   16  C   UNL     1      41.279  -6.875  -0.265  1.00  0.00     0.139 C 
HETATM   17  O   UNL     1      42.181  -5.794   0.049  1.00  0.00    -0.384 OA
HETATM   18  C   UNL     1      43.383  -5.970  -0.714  1.00  0.00     0.168 C 
HETATM   19  C   UNL     1      43.214  -7.224  -1.549  1.00  0.00     0.029 C 
HETATM   20  C   UNL     1      42.167  -7.993  -0.784  1.00  0.00     0.035 C 
ENDBRANCH  15  16
ENDBRANCH  12  15
ENDBRANCH   6  11
BRANCH   8  21
HETATM   21  C   UNL     1      40.414 -13.455  -1.039  1.00  0.00     0.409 C 
HETATM   22  F   UNL     1      39.258 -12.827  -1.338  1.00  0.00    -0.169 F 
HETATM   23  F   UNL     1      41.409 -12.590  -1.376  1.00  0.00    -0.169 F 
HETATM   24  F   UNL     1      40.543 -14.525  -1.856  1.00  0.00    -0.169 F 
ENDBRANCH   8  21
BRANCH   1  25
HETATM   25  C   UNL     1      40.838 -16.038   2.801  1.00  0.00    -0.034 A 
HETATM   26  C   UNL     1      41.837 -16.644   2.023  1.00  0.00     0.011 A 
HETATM   27  C   UNL     1      42.967 -17.211   2.622  1.00  0.00     0.026 A 
HETATM   28  C   UNL     1      43.120 -17.188   4.009  1.00  0.00     0.055 A 
HETATM   29  C   UNL     1      42.133 -16.597   4.801  1.00  0.00     0.056 A 
HETATM   30 CL   UNL     1      44.544 -17.899   4.676  1.00  0.00    -0.083 Cl
HETATM   31  C   UNL     1      41.002 -16.031   4.199  1.00  0.00     0.034 A 
HETATM   32 CL   UNL     1      42.243 -16.527   6.524  1.00  0.00    -0.083 Cl
ENDBRANCH   1  25
TORSDOF 5
ENDMDL
MODEL 10
REMARK VINA RESULT:      -7.7      3.048      4.616
REMARK  5 active torsions:
REMARK  status: ('A' for Active; 'I' for Inactive)
REMARK    1  A    between atoms: C_2  and  C_3 
REMARK    2  A    between atoms: C_8  and  C_9 
REMARK       I    between atoms: C_9  and  N_10 
REMARK    3  A    between atoms: N_10  and  C_11 
REMARK    4  A    between atoms: C_11  and  C_12 
REMARK    5  A    between atoms: C_19  and  C_20 
ROOT
HETATM    1  C   UNL     1      43.009 -11.011   5.183  1.00  0.00     0.118 C 
HETATM    2  N   UNL     1      42.125  -9.914   5.559  1.00  0.00    -0.366 N 
HETATM    3  C   UNL     1      42.177  -9.344   6.784  1.00  0.00     0.123 A 
HETATM    4  N   UNL     1      43.139  -9.688   7.696  1.00  0.00    -0.240 N 
HETATM    5  N   UNL     1      42.994  -9.079   8.884  1.00  0.00    -0.165 NA
HETATM    6  C   UNL     1      41.950  -8.241   8.695  1.00  0.00     0.148 A 
HETATM    7  C   UNL     1      41.399  -8.396   7.395  1.00  0.00     0.088 A 
HETATM    8  C   UNL     1      44.131 -10.722   7.466  1.00  0.00     0.221 C 
HETATM    9  C   UNL     1      44.335 -10.926   5.952  1.00  0.00     0.066 C 
HETATM   10  H   UNL     1      41.327  -9.756   4.944  1.00  0.00     0.161 HD
ENDROOT
BRANCH   6  11
HETATM   11  C   UNL     1      41.497  -7.307   9.739  1.00  0.00     0.272 C 
HETATM   12  N   UNL     1      42.510  -6.884  10.568  1.00  0.00    -0.353 N 
HETATM   13  H   UNL     1      43.400  -7.365  10.463  1.00  0.00     0.162 HD
HETATM   14  O   UNL     1      40.332  -6.935   9.844  1.00  0.00    -0.266 OA
BRANCH  12  15
HETATM   15  C   UNL     1      42.303  -5.985  11.683  1.00  0.00     0.155 C 
BRANCH  15  16
HETATM   16  C   UNL     1      42.154  -6.723  13.015  1.00  0.00     0.139 C 
HETATM   17  O   UNL     1      40.798  -7.183  13.192  1.00  0.00    -0.384 OA
HETATM   18  C   UNL     1      40.834  -8.446  13.874  1.00  0.00     0.168 C 
HETATM   19  C   UNL     1      42.289  -8.781  14.136  1.00  0.00     0.029 C 
HETATM   20  C   UNL     1      43.010  -7.975  13.086  1.00  0.00     0.035 C 
ENDBRANCH  15  16
ENDBRANCH  12  15
ENDBRANCH   6  11
BRANCH   8  21
HETATM   21  C   UNL     1      45.460 -10.395   8.114  1.00  0.00     0.409 C 
HETATM   22  F   UNL     1      45.786  -9.088   8.046  1.00  0.00    -0.169 F 
HETATM   23  F   UNL     1      45.404 -10.700   9.440  1.00  0.00    -0.169 F 
HETATM   24  F   UNL     1      46.480 -11.117   7.599  1.00  0.00    -0.169 F 
ENDBRANCH   8  21
BRANCH   1  25
HETATM   25  C   UNL     1      42.333 -12.369   5.300  1.00  0.00    -0.034 A 
HETATM   26  C   UNL     1      41.051 -12.543   5.846  1.00  0.00     0.011 A 
HETATM   27  C   UNL     1      40.473 -13.814   5.926  1.00  0.00     0.026 A 
HETATM   28  C   UNL     1      41.164 -14.936   5.467  1.00  0.00     0.055 A 
HETATM   29  C   UNL     1      42.443 -14.785   4.928  1.00  0.00     0.056 A 
HETATM   30 CL   UNL     1      40.382 -16.471   5.590  1.00  0.00    -0.083 Cl
HETATM   31  C   UNL     1      43.021 -13.511   4.850  1.00  0.00     0.034 A 
HETATM   32 CL   UNL     1      43.366 -16.121   4.339  1.00  0.00    -0.083 Cl
ENDBRANCH   1  25
TORSDOF 5
ENDMDL
