MODEL 1
REMARK VINA RESULT:      -8.1      0.000      0.000
REMARK  3 active torsions:
REMARK  status: ('A' for Active; 'I' for Inactive)
REMARK    1  A    between atoms: C_3  and  N_4 
REMARK       I    between atoms: N_4  and  C_5 
REMARK       I    between atoms: C_5  and  N_6 
REMARK    2  A    between atoms: N_6  and  C_7 
REMARK    3  A    between atoms: C_7  and  C_8 
ROOT
HETATM    1  C   UNL     1      43.592 -16.551   5.141  1.00  0.00    -0.036 A 
HETATM    2  C   UNL     1      43.231 -16.365   3.799  1.00  0.00     0.011 A 
HETATM    3  C   UNL     1      43.272 -17.430   2.892  1.00  0.00     0.023 A 
HETATM    4  C   UNL     1      43.680 -18.699   3.311  1.00  0.00     0.044 A 
HETATM    5  C   UNL     1      43.715 -19.790   2.383  1.00  0.00     0.099 C 
HETATM    6  N   UNL     1      43.739 -20.675   1.632  1.00  0.00    -0.191 NA
HETATM    7  C   UNL     1      44.055 -18.898   4.640  1.00  0.00     0.023 A 
HETATM    8  C   UNL     1      44.013 -17.834   5.545  1.00  0.00     0.011 A 
ENDROOT
BRANCH   1   9
HETATM    9  C   UNL     1      43.555 -15.445   6.182  1.00  0.00     0.115 C 
HETATM   10  C   UNL     1      42.758 -15.750   7.455  1.00  0.00     0.037 C 
BRANCH   9  11
HETATM   11  N   UNL     1      43.041 -14.223   5.571  1.00  0.00    -0.335 N 
HETATM   12  C   UNL     1      43.168 -12.953   6.058  1.00  0.00     0.321 C 
HETATM   13  N   UNL     1      44.337 -12.708   6.723  1.00  0.00    -0.307 N 
HETATM   14  O   UNL     1      42.271 -12.147   5.840  1.00  0.00    -0.247 OA
HETATM   15  H   UNL     1      45.097 -13.317   6.473  1.00  0.00     0.170 HD
HETATM   16  H   UNL     1      42.174 -14.326   5.056  1.00  0.00     0.165 HD
BRANCH  13  17
HETATM   17  C   UNL     1      44.669 -11.547   7.457  1.00  0.00     0.059 A 
HETATM   18  C   UNL     1      45.850 -10.846   7.147  1.00  0.00    -0.032 A 
HETATM   19  C   UNL     1      46.762 -11.251   6.022  1.00  0.00     0.050 C 
HETATM   20  C   UNL     1      46.175  -9.708   7.898  1.00  0.00     0.028 A 
HETATM   21  C   UNL     1      45.336  -9.318   8.929  1.00  0.00     0.117 A 
HETATM   22  N   UNL     1      44.208  -9.972   9.259  1.00  0.00    -0.271 NA
HETATM   23  C   UNL     1      43.898 -11.066   8.517  1.00  0.00     0.146 A 
ENDBRANCH  13  17
ENDBRANCH   9  11
ENDBRANCH   1   9
TORSDOF 3
ENDMDL
MODEL 2
REMARK VINA RESULT:      -7.9      5.154      7.508
REMARK  3 active torsions:
REMARK  status: ('A' for Active; 'I' for Inactive)
REMARK    1  A    between atoms: C_3  and  N_4 
REMARK       I    between atoms: N_4  and  C_5 
REMARK       I    between atoms: C_5  and  N_6 
REMARK    2  A    between atoms: N_6  and  C_7 
REMARK    3  A    between atoms: C_7  and  C_8 
ROOT
HETATM    1  C   UNL     1      43.129 -16.430   2.647  1.00  0.00    -0.036 A 
HETATM    2  C   UNL     1      43.151 -17.681   2.014  1.00  0.00     0.011 A 
HETATM    3  C   UNL     1      43.505 -18.835   2.721  1.00  0.00     0.023 A 
HETATM    4  C   UNL     1      43.849 -18.758   4.073  1.00  0.00     0.044 A 
HETATM    5  C   UNL     1      44.206 -19.941   4.798  1.00  0.00     0.099 C 
HETATM    6  N   UNL     1      44.489 -20.901   5.386  1.00  0.00    -0.191 NA
HETATM    7  C   UNL     1      43.845 -17.518   4.714  1.00  0.00     0.023 A 
HETATM    8  C   UNL     1      43.491 -16.366   4.007  1.00  0.00     0.011 A 
ENDROOT
BRANCH   1   9
HETATM    9  C   UNL     1      42.739 -15.140   1.945  1.00  0.00     0.115 C 
HETATM   10  C   UNL     1      43.416 -13.866   2.460  1.00  0.00     0.037 C 
BRANCH   9  11
HETATM   11  N   UNL     1      41.289 -14.975   2.008  1.00  0.00    -0.335 N 
HETATM   12  C   UNL     1      40.529 -14.153   1.225  1.00  0.00     0.321 C 
HETATM   13  N   UNL     1      40.979 -14.003  -0.057  1.00  0.00    -0.307 N 
HETATM   14  O   UNL     1      39.516 -13.657   1.704  1.00  0.00    -0.247 OA
HETATM   15  H   UNL     1      41.557 -14.756  -0.389  1.00  0.00     0.170 HD
HETATM   16  H   UNL     1      40.879 -15.076   2.929  1.00  0.00     0.165 HD
BRANCH  13  17
HETATM   17  C   UNL     1      40.488 -13.104  -1.030  1.00  0.00     0.059 A 
HETATM   18  C   UNL     1      39.577 -13.563  -1.999  1.00  0.00    -0.032 A 
HETATM   19  C   UNL     1      39.055 -14.973  -2.019  1.00  0.00     0.050 C 
HETATM   20  C   UNL     1      39.115 -12.662  -2.970  1.00  0.00     0.028 A 
HETATM   21  C   UNL     1      39.579 -11.357  -2.955  1.00  0.00     0.117 A 
HETATM   22  N   UNL     1      40.459 -10.890  -2.050  1.00  0.00    -0.271 NA
HETATM   23  C   UNL     1      40.890 -11.769  -1.109  1.00  0.00     0.146 A 
ENDBRANCH  13  17
ENDBRANCH   9  11
ENDBRANCH   1   9
TORSDOF 3
ENDMDL
MODEL 3
REMARK VINA RESULT:      -7.8      3.571      5.312
REMARK  3 active torsions:
REMARK  status: ('A' for Active; 'I' for Inactive)
REMARK    1  A    between atoms: C_3  and  N_4 
REMARK       I    between atoms: N_4  and  C_5 
REMARK       I    between atoms: C_5  and  N_6 
REMARK    2  A    between atoms: N_6  and  C_7 
REMARK    3  A    between atoms: C_7  and  C_8 
ROOT
HETATM    1  C   UNL     1      43.270 -16.211   4.285  1.00  0.00    -0.036 A 
HETATM    2  C   UNL     1      43.791 -17.294   5.008  1.00  0.00     0.011 A 
HETATM    3  C   UNL     1      43.967 -18.542   4.400  1.00  0.00     0.023 A 
HETATM    4  C   UNL     1      43.618 -18.731   3.060  1.00  0.00     0.044 A 
HETATM    5  C   UNL     1      43.805 -20.008   2.438  1.00  0.00     0.099 C 
HETATM    6  N   UNL     1      43.960 -21.041   1.932  1.00  0.00    -0.191 NA
HETATM    7  C   UNL     1      43.086 -17.667   2.331  1.00  0.00     0.023 A 
HETATM    8  C   UNL     1      42.912 -16.420   2.939  1.00  0.00     0.011 A 
ENDROOT
BRANCH   1   9
HETATM    9  C   UNL     1      43.069 -14.826   4.877  1.00  0.00     0.115 C 
HETATM   10  C   UNL     1      43.514 -14.648   6.332  1.00  0.00     0.037 C 
BRANCH   9  11
HETATM   11  N   UNL     1      41.666 -14.445   4.750  1.00  0.00    -0.335 N 
HETATM   12  C   UNL     1      41.153 -13.488   3.920  1.00  0.00     0.321 C 
HETATM   13  N   UNL     1      41.800 -13.361   2.722  1.00  0.00    -0.307 N 
HETATM   14  O   UNL     1      40.166 -12.862   4.284  1.00  0.00    -0.247 OA
HETATM   15  H   UNL     1      42.304 -14.180   2.429  1.00  0.00     0.170 HD
HETATM   16  H   UNL     1      41.117 -14.516   5.599  1.00  0.00     0.165 HD
BRANCH  13  17
HETATM   17  C   UNL     1      41.590 -12.362   1.745  1.00  0.00     0.059 A 
HETATM   18  C   UNL     1      40.979 -12.705   0.525  1.00  0.00    -0.032 A 
HETATM   19  C   UNL     1      40.486 -14.094   0.227  1.00  0.00     0.050 C 
HETATM   20  C   UNL     1      40.797 -11.706  -0.442  1.00  0.00     0.028 A 
HETATM   21  C   UNL     1      41.236 -10.420  -0.174  1.00  0.00     0.117 A 
HETATM   22  N   UNL     1      41.834 -10.062   0.976  1.00  0.00    -0.271 NA
HETATM   23  C   UNL     1      41.995 -11.035   1.909  1.00  0.00     0.146 A 
ENDBRANCH  13  17
ENDBRANCH   9  11
ENDBRANCH   1   9
TORSDOF 3
ENDMDL
MODEL 4
REMARK VINA RESULT:      -7.7      1.681      2.401
REMARK  3 active torsions:
REMARK  status: ('A' for Active; 'I' for Inactive)
REMARK    1  A    between atoms: C_3  and  N_4 
REMARK       I    between atoms: N_4  and  C_5 
REMARK       I    between atoms: C_5  and  N_6 
REMARK    2  A    between atoms: N_6  and  C_7 
REMARK    3  A    between atoms: C_7  and  C_8 
ROOT
HETATM    1  C   UNL     1      42.659 -15.670   3.915  1.00  0.00    -0.036 A 
HETATM    2  C   UNL     1      43.566 -16.510   4.577  1.00  0.00     0.011 A 
HETATM    3  C   UNL     1      43.867 -17.779   4.072  1.00  0.00     0.023 A 
HETATM    4  C   UNL     1      43.261 -18.234   2.897  1.00  0.00     0.044 A 
HETATM    5  C   UNL     1      43.574 -19.531   2.377  1.00  0.00     0.099 C 
HETATM    6  N   UNL     1      43.832 -20.580   1.952  1.00  0.00    -0.191 NA
HETATM    7  C   UNL     1      42.346 -17.415   2.234  1.00  0.00     0.023 A 
HETATM    8  C   UNL     1      42.047 -16.147   2.740  1.00  0.00     0.011 A 
ENDROOT
BRANCH   1   9
HETATM    9  C   UNL     1      42.300 -14.275   4.399  1.00  0.00     0.115 C 
HETATM   10  C   UNL     1      40.848 -13.841   4.172  1.00  0.00     0.037 C 
BRANCH   9  11
HETATM   11  N   UNL     1      43.197 -13.303   3.781  1.00  0.00    -0.335 N 
HETATM   12  C   UNL     1      43.737 -12.199   4.377  1.00  0.00     0.321 C 
HETATM   13  N   UNL     1      44.023 -12.346   5.706  1.00  0.00    -0.307 N 
HETATM   14  O   UNL     1      43.949 -11.205   3.693  1.00  0.00    -0.247 OA
HETATM   15  H   UNL     1      44.162 -13.297   6.001  1.00  0.00     0.170 HD
HETATM   16  H   UNL     1      43.047 -13.141   2.792  1.00  0.00     0.165 HD
BRANCH  13  17
HETATM   17  C   UNL     1      44.438 -11.336   6.603  1.00  0.00     0.059 A 
HETATM   18  C   UNL     1      43.490 -10.427   7.107  1.00  0.00    -0.032 A 
HETATM   19  C   UNL     1      42.027 -10.511   6.772  1.00  0.00     0.050 C 
HETATM   20  C   UNL     1      43.922  -9.418   7.980  1.00  0.00     0.028 A 
HETATM   21  C   UNL     1      45.265  -9.338   8.307  1.00  0.00     0.117 A 
HETATM   22  N   UNL     1      46.199 -10.183   7.832  1.00  0.00    -0.271 NA
HETATM   23  C   UNL     1      45.767 -11.162   6.997  1.00  0.00     0.146 A 
ENDBRANCH  13  17
ENDBRANCH   9  11
ENDBRANCH   1   9
TORSDOF 3
ENDMDL
MODEL 5
REMARK VINA RESULT:      -7.6      3.247      4.419
REMARK  3 active torsions:
REMARK  status: ('A' for Active; 'I' for Inactive)
REMARK    1  A    between atoms: C_3  and  N_4 
REMARK       I    between atoms: N_4  and  C_5 
REMARK       I    between atoms: C_5  and  N_6 
REMARK    2  A    between atoms: N_6  and  C_7 
REMARK    3  A    between atoms: C_7  and  C_8 
ROOT
HETATM    1  C   UNL     1      43.165 -16.499   4.581  1.00  0.00    -0.036 A 
HETATM    2  C   UNL     1      43.998 -17.530   5.036  1.00  0.00     0.011 A 
HETATM    3  C   UNL     1      44.200 -18.681   4.265  1.00  0.00     0.023 A 
HETATM    4  C   UNL     1      43.566 -18.822   3.028  1.00  0.00     0.044 A 
HETATM    5  C   UNL     1      43.778 -19.998   2.237  1.00  0.00     0.099 C 
HETATM    6  N   UNL     1      43.954 -20.948   1.594  1.00  0.00    -0.191 NA
HETATM    7  C   UNL     1      42.723 -17.811   2.567  1.00  0.00     0.023 A 
HETATM    8  C   UNL     1      42.523 -16.662   3.338  1.00  0.00     0.011 A 
ENDROOT
BRANCH   1   9
HETATM    9  C   UNL     1      42.915 -15.217   5.357  1.00  0.00     0.115 C 
HETATM   10  C   UNL     1      43.811 -14.988   6.578  1.00  0.00     0.037 C 
BRANCH   9  11
HETATM   11  N   UNL     1      41.515 -15.166   5.769  1.00  0.00    -0.335 N 
HETATM   12  C   UNL     1      40.698 -14.071   5.742  1.00  0.00     0.321 C 
HETATM   13  N   UNL     1      40.931 -13.205   4.710  1.00  0.00    -0.307 N 
HETATM   14  O   UNL     1      39.824 -13.968   6.594  1.00  0.00    -0.247 OA
HETATM   15  H   UNL     1      41.384 -13.617   3.912  1.00  0.00     0.170 HD
HETATM   16  H   UNL     1      41.263 -15.784   6.530  1.00  0.00     0.165 HD
BRANCH  13  17
HETATM   17  C   UNL     1      40.352 -11.930   4.523  1.00  0.00     0.059 A 
HETATM   18  C   UNL     1      39.461 -11.725   3.453  1.00  0.00    -0.032 A 
HETATM   19  C   UNL     1      39.052 -12.827   2.515  1.00  0.00     0.050 C 
HETATM   20  C   UNL     1      38.911 -10.448   3.269  1.00  0.00     0.028 A 
HETATM   21  C   UNL     1      39.272  -9.428   4.134  1.00  0.00     0.117 A 
HETATM   22  N   UNL     1      40.129  -9.587   5.158  1.00  0.00    -0.271 NA
HETATM   23  C   UNL     1      40.647 -10.831   5.332  1.00  0.00     0.146 A 
ENDBRANCH  13  17
ENDBRANCH   9  11
ENDBRANCH   1   9
TORSDOF 3
ENDMDL
MODEL 6
REMARK VINA RESULT:      -7.6      1.851      8.241
REMARK  3 active torsions:
REMARK  status: ('A' for Active; 'I' for Inactive)
REMARK    1  A    between atoms: C_3  and  N_4 
REMARK       I    between atoms: N_4  and  C_5 
REMARK       I    between atoms: C_5  and  N_6 
REMARK    2  A    between atoms: N_6  and  C_7 
REMARK    3  A    between atoms: C_7  and  C_8 
ROOT
HETATM    1  C   UNL     1      43.397 -12.492   5.784  1.00  0.00    -0.036 A 
HETATM    2  C   UNL     1      44.520 -12.508   6.624  1.00  0.00     0.011 A 
HETATM    3  C   UNL     1      44.820 -11.412   7.440  1.00  0.00     0.023 A 
HETATM    4  C   UNL     1      44.004 -10.277   7.427  1.00  0.00     0.044 A 
HETATM    5  C   UNL     1      44.308  -9.158   8.267  1.00  0.00     0.099 C 
HETATM    6  N   UNL     1      44.551  -8.253   8.953  1.00  0.00    -0.191 NA
HETATM    7  C   UNL     1      42.890 -10.240   6.587  1.00  0.00     0.023 A 
HETATM    8  C   UNL     1      42.592 -11.337   5.772  1.00  0.00     0.011 A 
ENDROOT
BRANCH   1   9
HETATM    9  C   UNL     1      43.004 -13.653   4.886  1.00  0.00     0.115 C 
HETATM   10  C   UNL     1      42.102 -13.304   3.698  1.00  0.00     0.037 C 
BRANCH   9  11
HETATM   11  N   UNL     1      42.366 -14.692   5.689  1.00  0.00    -0.335 N 
HETATM   12  C   UNL     1      42.322 -16.027   5.406  1.00  0.00     0.321 C 
HETATM   13  N   UNL     1      43.429 -16.517   4.772  1.00  0.00    -0.307 N 
HETATM   14  O   UNL     1      41.341 -16.671   5.761  1.00  0.00    -0.247 OA
HETATM   15  H   UNL     1      44.265 -15.977   4.912  1.00  0.00     0.170 HD
HETATM   16  H   UNL     1      41.537 -14.402   6.194  1.00  0.00     0.165 HD
BRANCH  13  17
HETATM   17  C   UNL     1      43.593 -17.810   4.225  1.00  0.00     0.059 A 
HETATM   18  C   UNL     1      43.322 -18.024   2.861  1.00  0.00    -0.032 A 
HETATM   19  C   UNL     1      42.909 -16.916   1.933  1.00  0.00     0.050 C 
HETATM   20  C   UNL     1      43.470 -19.317   2.339  1.00  0.00     0.028 A 
HETATM   21  C   UNL     1      43.862 -20.344   3.183  1.00  0.00     0.117 A 
HETATM   22  N   UNL     1      44.116 -20.176   4.493  1.00  0.00    -0.271 NA
HETATM   23  C   UNL     1      43.980 -18.917   4.984  1.00  0.00     0.146 A 
ENDBRANCH  13  17
ENDBRANCH   9  11
ENDBRANCH   1   9
TORSDOF 3
ENDMDL
MODEL 7
REMARK VINA RESULT:      -7.5      3.556      6.224
REMARK  3 active torsions:
REMARK  status: ('A' for Active; 'I' for Inactive)
REMARK    1  A    between atoms: C_3  and  N_4 
REMARK       I    between atoms: N_4  and  C_5 
REMARK       I    between atoms: C_5  and  N_6 
REMARK    2  A    between atoms: N_6  and  C_7 
REMARK    3  A    between atoms: C_7  and  C_8 
ROOT
HETATM    1  C   UNL     1      43.170 -15.662   5.230  1.00  0.00    -0.036 A 
HETATM    2  C   UNL     1      43.293 -16.360   6.440  1.00  0.00     0.011 A 
HETATM    3  C   UNL     1      43.572 -17.731   6.450  1.00  0.00     0.023 A 
HETATM    4  C   UNL     1      43.728 -18.429   5.250  1.00  0.00     0.044 A 
HETATM    5  C   UNL     1      44.020 -19.832   5.261  1.00  0.00     0.099 C 
HETATM    6  N   UNL     1      44.262 -20.967   5.271  1.00  0.00    -0.191 NA
HETATM    7  C   UNL     1      43.595 -17.752   4.037  1.00  0.00     0.023 A 
HETATM    8  C   UNL     1      43.317 -16.382   4.028  1.00  0.00     0.011 A 
ENDROOT
BRANCH   1   9
HETATM    9  C   UNL     1      42.884 -14.172   5.146  1.00  0.00     0.115 C 
HETATM   10  C   UNL     1      43.430 -13.320   6.296  1.00  0.00     0.037 C 
BRANCH   9  11
HETATM   11  N   UNL     1      41.444 -13.961   5.029  1.00  0.00    -0.335 N 
HETATM   12  C   UNL     1      40.764 -13.599   3.901  1.00  0.00     0.321 C 
HETATM   13  N   UNL     1      41.277 -14.097   2.736  1.00  0.00    -0.307 N 
HETATM   14  O   UNL     1      39.759 -12.908   4.017  1.00  0.00    -0.247 OA
HETATM   15  H   UNL     1      41.828 -14.931   2.844  1.00  0.00     0.170 HD
HETATM   16  H   UNL     1      40.990 -13.594   5.857  1.00  0.00     0.165 HD
BRANCH  13  17
HETATM   17  C   UNL     1      40.877 -13.766   1.421  1.00  0.00     0.059 A 
HETATM   18  C   UNL     1      40.196 -14.722   0.644  1.00  0.00    -0.032 A 
HETATM   19  C   UNL     1      39.824 -16.080   1.171  1.00  0.00     0.050 C 
HETATM   20  C   UNL     1      39.825 -14.384  -0.665  1.00  0.00     0.028 A 
HETATM   21  C   UNL     1      40.151 -13.131  -1.157  1.00  0.00     0.117 A 
HETATM   22  N   UNL     1      40.812 -12.200  -0.445  1.00  0.00    -0.271 NA
HETATM   23  C   UNL     1      41.156 -12.535   0.825  1.00  0.00     0.146 A 
ENDBRANCH  13  17
ENDBRANCH   9  11
ENDBRANCH   1   9
TORSDOF 3
ENDMDL
MODEL 8
REMARK VINA RESULT:      -7.3     10.419     14.259
REMARK  3 active torsions:
REMARK  status: ('A' for Active; 'I' for Inactive)
REMARK    1  A    between atoms: C_3  and  N_4 
REMARK       I    between atoms: N_4  and  C_5 
REMARK       I    between atoms: C_5  and  N_6 
REMARK    2  A    between atoms: N_6  and  C_7 
REMARK    3  A    between atoms: C_7  and  C_8 
ROOT
HETATM    1  C   UNL     1      41.747  -7.863  15.338  1.00  0.00    -0.036 A 
HETATM    2  C   UNL     1      42.787  -7.053  14.861  1.00  0.00     0.011 A 
HETATM    3  C   UNL     1      43.408  -7.330  13.638  1.00  0.00     0.023 A 
HETATM    4  C   UNL     1      43.002  -8.426  12.872  1.00  0.00     0.044 A 
HETATM    5  C   UNL     1      43.633  -8.705  11.616  1.00  0.00     0.099 C 
HETATM    6  N   UNL     1      44.141  -8.927  10.597  1.00  0.00    -0.191 NA
HETATM    7  C   UNL     1      41.977  -9.250  13.339  1.00  0.00     0.023 A 
HETATM    8  C   UNL     1      41.358  -8.972  14.561  1.00  0.00     0.011 A 
ENDROOT
BRANCH   1   9
HETATM    9  C   UNL     1      41.019  -7.612  16.648  1.00  0.00     0.115 C 
HETATM   10  C   UNL     1      39.947  -6.518  16.618  1.00  0.00     0.037 C 
BRANCH   9  11
HETATM   11  N   UNL     1      41.994  -7.305  17.691  1.00  0.00    -0.335 N 
HETATM   12  C   UNL     1      41.835  -7.495  19.034  1.00  0.00     0.321 C 
HETATM   13  N   UNL     1      41.087  -8.587  19.376  1.00  0.00    -0.307 N 
HETATM   14  O   UNL     1      42.384  -6.719  19.807  1.00  0.00    -0.247 OA
HETATM   15  H   UNL     1      41.055  -9.308  18.676  1.00  0.00     0.170 HD
HETATM   16  H   UNL     1      42.589  -6.506  17.508  1.00  0.00     0.165 HD
BRANCH  13  17
HETATM   17  C   UNL     1      40.634  -8.937  20.668  1.00  0.00     0.059 A 
HETATM   18  C   UNL     1      41.259  -9.993  21.358  1.00  0.00    -0.032 A 
HETATM   19  C   UNL     1      42.435 -10.744  20.799  1.00  0.00     0.050 C 
HETATM   20  C   UNL     1      40.783 -10.340  22.631  1.00  0.00     0.028 A 
HETATM   21  C   UNL     1      39.708  -9.647  23.161  1.00  0.00     0.117 A 
HETATM   22  N   UNL     1      39.081  -8.642  22.523  1.00  0.00    -0.271 NA
HETATM   23  C   UNL     1      39.557  -8.308  21.297  1.00  0.00     0.146 A 
ENDBRANCH  13  17
ENDBRANCH   9  11
ENDBRANCH   1   9
TORSDOF 3
ENDMDL
MODEL 9
REMARK VINA RESULT:      -7.2     15.719     17.559
REMARK  3 active torsions:
REMARK  status: ('A' for Active; 'I' for Inactive)
REMARK    1  A    between atoms: C_3  and  N_4 
REMARK       I    between atoms: N_4  and  C_5 
REMARK       I    between atoms: C_5  and  N_6 
REMARK    2  A    between atoms: N_6  and  C_7 
REMARK    3  A    between atoms: C_7  and  C_8 
ROOT
HETATM    1  C   UNL     1      44.300 -29.831  -1.422  1.00  0.00    -0.036 A 
HETATM    2  C   UNL     1      44.292 -28.803  -2.377  1.00  0.00     0.011 A 
HETATM    3  C   UNL     1      44.238 -29.096  -3.744  1.00  0.00     0.023 A 
HETATM    4  C   UNL     1      44.196 -30.423  -4.181  1.00  0.00     0.044 A 
HETATM    5  C   UNL     1      44.134 -30.722  -5.581  1.00  0.00     0.099 C 
HETATM    6  N   UNL     1      44.079 -30.964  -6.715  1.00  0.00    -0.191 NA
HETATM    7  C   UNL     1      44.216 -31.457  -3.244  1.00  0.00     0.023 A 
HETATM    8  C   UNL     1      44.270 -31.163  -1.879  1.00  0.00     0.011 A 
ENDROOT
BRANCH   1   9
HETATM    9  C   UNL     1      44.340 -29.584   0.077  1.00  0.00     0.115 C 
HETATM   10  C   UNL     1      42.992 -29.291   0.743  1.00  0.00     0.037 C 
BRANCH   9  11
HETATM   11  N   UNL     1      45.269 -28.494   0.362  1.00  0.00    -0.335 N 
HETATM   12  C   UNL     1      46.520 -28.610   0.897  1.00  0.00     0.321 C 
HETATM   13  N   UNL     1      47.198 -29.741   0.534  1.00  0.00    -0.307 N 
HETATM   14  O   UNL     1      46.941 -27.707   1.610  1.00  0.00    -0.247 OA
HETATM   15  H   UNL     1      46.890 -30.154  -0.329  1.00  0.00     0.170 HD
HETATM   16  H   UNL     1      44.840 -27.618   0.637  1.00  0.00     0.165 HD
BRANCH  13  17
HETATM   17  C   UNL     1      48.432 -30.195   1.051  1.00  0.00     0.059 A 
HETATM   18  C   UNL     1      49.564 -30.220   0.216  1.00  0.00    -0.032 A 
HETATM   19  C   UNL     1      49.535 -29.732  -1.206  1.00  0.00     0.050 C 
HETATM   20  C   UNL     1      50.777 -30.693   0.738  1.00  0.00     0.028 A 
HETATM   21  C   UNL     1      50.819 -31.133   2.051  1.00  0.00     0.117 A 
HETATM   22  N   UNL     1      49.753 -31.135   2.871  1.00  0.00    -0.271 NA
HETATM   23  C   UNL     1      48.588 -30.664   2.357  1.00  0.00     0.146 A 
ENDBRANCH  13  17
ENDBRANCH   9  11
ENDBRANCH   1   9
TORSDOF 3
ENDMDL
MODEL 10
REMARK VINA RESULT:      -7.2      2.340      3.523
REMARK  3 active torsions:
REMARK  status: ('A' for Active; 'I' for Inactive)
REMARK    1  A    between atoms: C_3  and  N_4 
REMARK       I    between atoms: N_4  and  C_5 
REMARK       I    between atoms: C_5  and  N_6 
REMARK    2  A    between atoms: N_6  and  C_7 
REMARK    3  A    between atoms: C_7  and  C_8 
ROOT
HETATM    1  C   UNL     1      42.828 -15.742   3.310  1.00  0.00    -0.036 A 
HETATM    2  C   UNL     1      43.202 -15.946   4.646  1.00  0.00     0.011 A 
HETATM    3  C   UNL     1      43.670 -17.192   5.076  1.00  0.00     0.023 A 
HETATM    4  C   UNL     1      43.767 -18.259   4.179  1.00  0.00     0.044 A 
HETATM    5  C   UNL     1      44.252 -19.533   4.619  1.00  0.00     0.099 C 
HETATM    6  N   UNL     1      44.651 -20.564   4.975  1.00  0.00    -0.191 NA
HETATM    7  C   UNL     1      43.385 -18.077   2.849  1.00  0.00     0.023 A 
HETATM    8  C   UNL     1      42.918 -16.831   2.420  1.00  0.00     0.011 A 
ENDROOT
BRANCH   1   9
HETATM    9  C   UNL     1      42.327 -14.413   2.771  1.00  0.00     0.115 C 
HETATM   10  C   UNL     1      41.814 -14.426   1.328  1.00  0.00     0.037 C 
BRANCH   9  11
HETATM   11  N   UNL     1      43.382 -13.411   2.900  1.00  0.00    -0.335 N 
HETATM   12  C   UNL     1      43.360 -12.304   3.700  1.00  0.00     0.321 C 
HETATM   13  N   UNL     1      42.698 -12.465   4.885  1.00  0.00    -0.307 N 
HETATM   14  O   UNL     1      43.946 -11.296   3.324  1.00  0.00    -0.247 OA
HETATM   15  H   UNL     1      42.631 -13.417   5.202  1.00  0.00     0.170 HD
HETATM   16  H   UNL     1      43.922 -13.238   2.060  1.00  0.00     0.165 HD
BRANCH  13  17
HETATM   17  C   UNL     1      42.385 -11.459   5.827  1.00  0.00     0.059 A 
HETATM   18  C   UNL     1      41.089 -10.913   5.852  1.00  0.00    -0.032 A 
HETATM   19  C   UNL     1      39.989 -11.392   4.945  1.00  0.00     0.050 C 
HETATM   20  C   UNL     1      40.801  -9.902   6.780  1.00  0.00     0.028 A 
HETATM   21  C   UNL     1      41.803  -9.461   7.629  1.00  0.00     0.117 A 
HETATM   22  N   UNL     1      43.055  -9.953   7.622  1.00  0.00    -0.271 NA
HETATM   23  C   UNL     1      43.318 -10.939   6.727  1.00  0.00     0.146 A 
ENDBRANCH  13  17
ENDBRANCH   9  11
ENDBRANCH   1   9
TORSDOF 3
ENDMDL
