MODEL 1
REMARK VINA RESULT:      -9.8      0.000      0.000
REMARK  9 active torsions:
REMARK  status: ('A' for Active; 'I' for Inactive)
REMARK    1  A    between atoms: C_11  and  S_12 
REMARK    2  A    between atoms: S_12  and  C_13 
REMARK    3  A    between atoms: C_13  and  C_14 
REMARK       I    between atoms: C_14  and  N_15 
REMARK    4  A    between atoms: N_15  and  N_16 
REMARK    5  A    between atoms: N_16  and  C_17 
REMARK    6  A    between atoms: C_17  and  N_18 
REMARK    7  A    between atoms: N_18  and  C_19 
REMARK    8  A    between atoms: C_22  and  O_23 
REMARK    9  A    between atoms: O_23  and  C_24 
ROOT
HETATM    1  C   UNL     1      43.354 -12.589   6.149  1.00  0.00     0.245 C 
HETATM    2  N   UNL     1      42.012 -12.256   6.287  1.00  0.00    -0.267 N 
HETATM    3  O   UNL     1      43.764 -13.742   6.248  1.00  0.00    -0.271 OA
HETATM    4  H   UNL     1      41.685 -11.306   6.435  1.00  0.00     0.190 HD
ENDROOT
BRANCH   2   5
HETATM    5  N   UNL     1      41.075 -13.286   6.417  1.00  0.00    -0.274 N 
HETATM    6  H   UNL     1      40.653 -13.366   7.335  1.00  0.00     0.189 HD
BRANCH   5   7
HETATM    7  C   UNL     1      40.427 -13.821   5.331  1.00  0.00     0.191 C 
HETATM    8  S   UNL     1      39.775 -12.917   4.078  1.00  0.00    -0.039 SA
BRANCH   7   9
HETATM    9  N   UNL     1      40.450 -15.186   5.203  1.00  0.00    -0.332 N 
HETATM   10  H   UNL     1      39.726 -15.650   5.743  1.00  0.00     0.168 HD
BRANCH   9  11
HETATM   11  C   UNL     1      41.327 -16.027   4.490  1.00  0.00     0.034 A 
HETATM   12  C   UNL     1      41.252 -16.238   3.112  1.00  0.00     0.032 A 
HETATM   13  C   UNL     1      42.138 -17.119   2.482  1.00  0.00     0.039 A 
HETATM   14  C   UNL     1      43.129 -17.781   3.210  1.00  0.00     0.078 A 
HETATM   15  C   UNL     1      43.248 -17.520   4.574  1.00  0.00     0.039 A 
HETATM   16  C   UNL     1      42.360 -16.638   5.205  1.00  0.00     0.032 A 
BRANCH  14  17
HETATM   17  O   UNL     1      43.903 -18.628   2.472  1.00  0.00    -0.255 OA
BRANCH  17  18
HETATM   18  C   UNL     1      43.498 -19.983   2.380  1.00  0.00     0.530 C 
HETATM   19  F   UNL     1      42.219 -20.079   1.959  1.00  0.00    -0.144 F 
HETATM   20  F   UNL     1      44.302 -20.679   1.547  1.00  0.00    -0.144 F 
HETATM   21  F   UNL     1      43.581 -20.545   3.607  1.00  0.00    -0.144 F 
ENDBRANCH  17  18
ENDBRANCH  14  17
ENDBRANCH   9  11
ENDBRANCH   7   9
ENDBRANCH   5   7
ENDBRANCH   2   5
BRANCH   1  22
HETATM   22  C   UNL     1      44.210 -11.379   5.798  1.00  0.00     0.187 C 
BRANCH  22  23
HETATM   23  S   UNL     1      45.638 -11.122   6.891  1.00  0.00    -0.079 SA
BRANCH  23  24
HETATM   24  C   UNL     1      44.846 -10.306   8.264  1.00  0.00     0.211 A 
HETATM   25  N   UNL     1      44.978  -8.951   8.371  1.00  0.00    -0.122 NA
HETATM   26  N   UNL     1      44.518  -8.301   9.445  1.00  0.00    -0.143 NA
HETATM   27  C   UNL     1      43.914  -9.064  10.393  1.00  0.00     0.137 A 
HETATM   28  C   UNL     1      43.367  -8.753  11.665  1.00  0.00     0.025 A 
HETATM   29  C   UNL     1      43.765 -10.423  10.188  1.00  0.00     0.162 A 
HETATM   30  C   UNL     1      43.248  -7.574  12.429  1.00  0.00     0.016 A 
HETATM   31  C   UNL     1      42.872  -9.950  12.197  1.00  0.00     0.046 A 
HETATM   32  C   UNL     1      42.645  -7.634  13.691  1.00  0.00     0.001 A 
HETATM   33  C   UNL     1      42.158  -8.840  14.191  1.00  0.00     0.002 A 
HETATM   34  C   UNL     1      42.260 -10.022  13.453  1.00  0.00     0.030 A 
HETATM   35  N   UNL     1      43.121 -10.942  11.272  1.00  0.00    -0.338 N 
HETATM   36  H   UNL     1      42.892 -11.920  11.378  1.00  0.00     0.167 HD
HETATM   37  N   UNL     1      44.195 -11.118   9.124  1.00  0.00    -0.201 NA
ENDBRANCH  23  24
ENDBRANCH  22  23
ENDBRANCH   1  22
TORSDOF 9
ENDMDL
MODEL 2
REMARK VINA RESULT:      -9.1      5.637     11.018
REMARK  9 active torsions:
REMARK  status: ('A' for Active; 'I' for Inactive)
REMARK    1  A    between atoms: C_11  and  S_12 
REMARK    2  A    between atoms: S_12  and  C_13 
REMARK    3  A    between atoms: C_13  and  C_14 
REMARK       I    between atoms: C_14  and  N_15 
REMARK    4  A    between atoms: N_15  and  N_16 
REMARK    5  A    between atoms: N_16  and  C_17 
REMARK    6  A    between atoms: C_17  and  N_18 
REMARK    7  A    between atoms: N_18  and  C_19 
REMARK    8  A    between atoms: C_22  and  O_23 
REMARK    9  A    between atoms: O_23  and  C_24 
ROOT
HETATM    1  C   UNL     1      41.928 -11.968   6.004  1.00  0.00     0.245 C 
HETATM    2  N   UNL     1      42.774 -12.854   6.661  1.00  0.00    -0.267 N 
HETATM    3  O   UNL     1      41.738 -10.820   6.395  1.00  0.00    -0.271 OA
HETATM    4  H   UNL     1      42.771 -13.856   6.494  1.00  0.00     0.190 HD
ENDROOT
BRANCH   2   5
HETATM    5  N   UNL     1      43.536 -12.382   7.734  1.00  0.00    -0.274 N 
HETATM    6  H   UNL     1      43.718 -13.065   8.461  1.00  0.00     0.189 HD
BRANCH   5   7
HETATM    7  C   UNL     1      44.360 -11.290   7.617  1.00  0.00     0.191 C 
HETATM    8  S   UNL     1      45.681 -11.209   6.587  1.00  0.00    -0.039 SA
BRANCH   7   9
HETATM    9  N   UNL     1      43.982 -10.151   8.278  1.00  0.00    -0.332 N 
HETATM   10  H   UNL     1      44.145  -9.305   7.741  1.00  0.00     0.168 HD
BRANCH   9  11
HETATM   11  C   UNL     1      43.454  -9.973   9.572  1.00  0.00     0.034 A 
HETATM   12  C   UNL     1      43.941 -10.624  10.707  1.00  0.00     0.032 A 
HETATM   13  C   UNL     1      43.337 -10.422  11.953  1.00  0.00     0.039 A 
HETATM   14  C   UNL     1      42.258  -9.547  12.092  1.00  0.00     0.078 A 
HETATM   15  C   UNL     1      41.814  -8.844  10.974  1.00  0.00     0.039 A 
HETATM   16  C   UNL     1      42.417  -9.048   9.725  1.00  0.00     0.032 A 
BRANCH  14  17
HETATM   17  O   UNL     1      41.754  -9.468  13.358  1.00  0.00    -0.255 OA
BRANCH  17  18
HETATM   18  C   UNL     1      42.032  -8.299  14.109  1.00  0.00     0.530 C 
HETATM   19  F   UNL     1      43.292  -7.870  13.888  1.00  0.00    -0.144 F 
HETATM   20  F   UNL     1      41.160  -7.309  13.816  1.00  0.00    -0.144 F 
HETATM   21  F   UNL     1      41.910  -8.588  15.424  1.00  0.00    -0.144 F 
ENDBRANCH  17  18
ENDBRANCH  14  17
ENDBRANCH   9  11
ENDBRANCH   7   9
ENDBRANCH   5   7
ENDBRANCH   2   5
BRANCH   1  22
HETATM   22  C   UNL     1      41.343 -12.572   4.734  1.00  0.00     0.187 C 
BRANCH  22  23
HETATM   23  S   UNL     1      42.434 -12.487   3.285  1.00  0.00    -0.079 SA
BRANCH  23  24
HETATM   24  C   UNL     1      42.880 -14.205   3.119  1.00  0.00     0.211 A 
HETATM   25  N   UNL     1      42.808 -14.773   1.880  1.00  0.00    -0.122 NA
HETATM   26  N   UNL     1      43.004 -16.085   1.715  1.00  0.00    -0.143 NA
HETATM   27  C   UNL     1      43.286 -16.793   2.838  1.00  0.00     0.137 A 
HETATM   28  C   UNL     1      43.493 -18.179   3.069  1.00  0.00     0.025 A 
HETATM   29  C   UNL     1      43.401 -16.140   4.052  1.00  0.00     0.162 A 
HETATM   30  C   UNL     1      43.475 -19.330   2.256  1.00  0.00     0.016 A 
HETATM   31  C   UNL     1      43.754 -18.328   4.437  1.00  0.00     0.046 A 
HETATM   32  C   UNL     1      43.716 -20.581   2.835  1.00  0.00     0.001 A 
HETATM   33  C   UNL     1      43.978 -20.696   4.199  1.00  0.00     0.002 A 
HETATM   34  C   UNL     1      44.004 -19.571   5.027  1.00  0.00     0.030 A 
HETATM   35  N   UNL     1      43.701 -17.071   5.002  1.00  0.00    -0.338 N 
HETATM   36  H   UNL     1      43.833 -16.856   5.980  1.00  0.00     0.167 HD
HETATM   37  N   UNL     1      43.228 -14.827   4.266  1.00  0.00    -0.201 NA
ENDBRANCH  23  24
ENDBRANCH  22  23
ENDBRANCH   1  22
TORSDOF 9
ENDMDL
MODEL 3
REMARK VINA RESULT:      -9.1      4.635      5.784
REMARK  9 active torsions:
REMARK  status: ('A' for Active; 'I' for Inactive)
REMARK    1  A    between atoms: C_11  and  S_12 
REMARK    2  A    between atoms: S_12  and  C_13 
REMARK    3  A    between atoms: C_13  and  C_14 
REMARK       I    between atoms: C_14  and  N_15 
REMARK    4  A    between atoms: N_15  and  N_16 
REMARK    5  A    between atoms: N_16  and  C_17 
REMARK    6  A    between atoms: C_17  and  N_18 
REMARK    7  A    between atoms: N_18  and  C_19 
REMARK    8  A    between atoms: C_22  and  O_23 
REMARK    9  A    between atoms: O_23  and  C_24 
ROOT
HETATM    1  C   UNL     1      40.772  -9.413   3.414  1.00  0.00     0.245 C 
HETATM    2  N   UNL     1      42.017  -9.983   3.170  1.00  0.00    -0.267 N 
HETATM    3  O   UNL     1      39.870  -9.412   2.581  1.00  0.00    -0.271 OA
HETATM    4  H   UNL     1      42.836  -9.798   3.741  1.00  0.00     0.190 HD
ENDROOT
BRANCH   2   5
HETATM    5  N   UNL     1      42.207 -10.693   1.980  1.00  0.00    -0.274 N 
HETATM    6  H   UNL     1      43.019 -10.414   1.442  1.00  0.00     0.189 HD
BRANCH   5   7
HETATM    7  C   UNL     1      41.668 -11.941   1.784  1.00  0.00     0.191 C 
HETATM    8  S   UNL     1      40.800 -12.394   0.423  1.00  0.00    -0.039 SA
BRANCH   7   9
HETATM    9  N   UNL     1      41.994 -12.909   2.698  1.00  0.00    -0.332 N 
HETATM   10  H   UNL     1      42.198 -12.536   3.620  1.00  0.00     0.168 HD
BRANCH   9  11
HETATM   11  C   UNL     1      42.127 -14.304   2.551  1.00  0.00     0.034 A 
HETATM   12  C   UNL     1      41.175 -15.226   2.988  1.00  0.00     0.032 A 
HETATM   13  C   UNL     1      41.399 -16.600   2.839  1.00  0.00     0.039 A 
HETATM   14  C   UNL     1      42.561 -17.073   2.226  1.00  0.00     0.078 A 
HETATM   15  C   UNL     1      43.482 -16.153   1.728  1.00  0.00     0.039 A 
HETATM   16  C   UNL     1      43.258 -14.777   1.880  1.00  0.00     0.032 A 
BRANCH  14  17
HETATM   17  O   UNL     1      42.658 -18.434   2.172  1.00  0.00    -0.255 OA
BRANCH  17  18
HETATM   18  C   UNL     1      43.654 -19.058   2.962  1.00  0.00     0.530 C 
HETATM   19  F   UNL     1      43.581 -20.402   2.863  1.00  0.00    -0.144 F 
HETATM   20  F   UNL     1      44.891 -18.646   2.608  1.00  0.00    -0.144 F 
HETATM   21  F   UNL     1      43.456 -18.720   4.256  1.00  0.00    -0.144 F 
ENDBRANCH  17  18
ENDBRANCH  14  17
ENDBRANCH   9  11
ENDBRANCH   7   9
ENDBRANCH   5   7
ENDBRANCH   2   5
BRANCH   1  22
HETATM   22  C   UNL     1      40.660  -8.871   4.832  1.00  0.00     0.187 C 
BRANCH  22  23
HETATM   23  S   UNL     1      39.421  -9.707   5.864  1.00  0.00    -0.079 SA
BRANCH  23  24
HETATM   24  C   UNL     1      40.115 -11.348   5.930  1.00  0.00     0.211 A 
HETATM   25  N   UNL     1      39.273 -12.395   6.173  1.00  0.00    -0.122 NA
HETATM   26  N   UNL     1      39.750 -13.629   6.362  1.00  0.00    -0.143 NA
HETATM   27  C   UNL     1      41.099 -13.766   6.284  1.00  0.00     0.137 A 
HETATM   28  C   UNL     1      41.960 -14.878   6.480  1.00  0.00     0.025 A 
HETATM   29  C   UNL     1      41.885 -12.671   5.976  1.00  0.00     0.162 A 
HETATM   30  C   UNL     1      41.766 -16.229   6.834  1.00  0.00     0.016 A 
HETATM   31  C   UNL     1      43.266 -14.423   6.260  1.00  0.00     0.046 A 
HETATM   32  C   UNL     1      42.877 -17.071   6.956  1.00  0.00     0.001 A 
HETATM   33  C   UNL     1      44.165 -16.590   6.725  1.00  0.00     0.002 A 
HETATM   34  C   UNL     1      44.385 -15.256   6.371  1.00  0.00     0.030 A 
HETATM   35  N   UNL     1      43.185 -13.083   5.946  1.00  0.00    -0.338 N 
HETATM   36  H   UNL     1      43.965 -12.473   5.749  1.00  0.00     0.167 HD
HETATM   37  N   UNL     1      41.453 -11.419   5.764  1.00  0.00    -0.201 NA
ENDBRANCH  23  24
ENDBRANCH  22  23
ENDBRANCH   1  22
TORSDOF 9
ENDMDL
MODEL 4
REMARK VINA RESULT:      -9.0      5.195      6.256
REMARK  9 active torsions:
REMARK  status: ('A' for Active; 'I' for Inactive)
REMARK    1  A    between atoms: C_11  and  S_12 
REMARK    2  A    between atoms: S_12  and  C_13 
REMARK    3  A    between atoms: C_13  and  C_14 
REMARK       I    between atoms: C_14  and  N_15 
REMARK    4  A    between atoms: N_15  and  N_16 
REMARK    5  A    between atoms: N_16  and  C_17 
REMARK    6  A    between atoms: C_17  and  N_18 
REMARK    7  A    between atoms: N_18  and  C_19 
REMARK    8  A    between atoms: C_22  and  O_23 
REMARK    9  A    between atoms: O_23  and  C_24 
ROOT
HETATM    1  C   UNL     1      39.647 -10.204   0.521  1.00  0.00     0.245 C 
HETATM    2  N   UNL     1      40.655 -11.160   0.572  1.00  0.00    -0.267 N 
HETATM    3  O   UNL     1      38.830 -10.151  -0.394  1.00  0.00    -0.271 OA
HETATM    4  H   UNL     1      41.463 -11.086   1.182  1.00  0.00     0.190 HD
ENDROOT
BRANCH   2   5
HETATM    5  N   UNL     1      40.661 -12.178  -0.387  1.00  0.00    -0.274 N 
HETATM    6  H   UNL     1      41.354 -12.069  -1.119  1.00  0.00     0.189 HD
BRANCH   5   7
HETATM    7  C   UNL     1      40.149 -13.425  -0.128  1.00  0.00     0.191 C 
HETATM    8  S   UNL     1      39.631 -14.499  -1.307  1.00  0.00    -0.039 SA
BRANCH   7   9
HETATM    9  N   UNL     1      40.207 -13.864   1.170  1.00  0.00    -0.332 N 
HETATM   10  H   UNL     1      39.522 -13.419   1.772  1.00  0.00     0.168 HD
BRANCH   9  11
HETATM   11  C   UNL     1      41.076 -14.782   1.791  1.00  0.00     0.034 A 
HETATM   12  C   UNL     1      42.461 -14.782   1.616  1.00  0.00     0.032 A 
HETATM   13  C   UNL     1      43.254 -15.753   2.238  1.00  0.00     0.039 A 
HETATM   14  C   UNL     1      42.682 -16.720   3.067  1.00  0.00     0.078 A 
HETATM   15  C   UNL     1      41.308 -16.681   3.298  1.00  0.00     0.039 A 
HETATM   16  C   UNL     1      40.514 -15.709   2.672  1.00  0.00     0.032 A 
BRANCH  14  17
HETATM   17  O   UNL     1      43.570 -17.617   3.586  1.00  0.00    -0.255 OA
BRANCH  17  18
HETATM   18  C   UNL     1      43.687 -18.876   2.948  1.00  0.00     0.530 C 
HETATM   19  F   UNL     1      43.571 -19.884   3.838  1.00  0.00    -0.144 F 
HETATM   20  F   UNL     1      42.759 -19.022   1.978  1.00  0.00    -0.144 F 
HETATM   21  F   UNL     1      44.908 -18.960   2.374  1.00  0.00    -0.144 F 
ENDBRANCH  17  18
ENDBRANCH  14  17
ENDBRANCH   9  11
ENDBRANCH   7   9
ENDBRANCH   5   7
ENDBRANCH   2   5
BRANCH   1  22
HETATM   22  C   UNL     1      39.650  -9.305   1.750  1.00  0.00     0.187 C 
BRANCH  22  23
HETATM   23  S   UNL     1      38.589  -9.878   3.108  1.00  0.00    -0.079 SA
BRANCH  23  24
HETATM   24  C   UNL     1      39.717 -10.970   3.954  1.00  0.00     0.211 A 
HETATM   25  N   UNL     1      41.057 -10.775   3.779  1.00  0.00    -0.122 NA
HETATM   26  N   UNL     1      41.946 -11.637   4.282  1.00  0.00    -0.143 NA
HETATM   27  C   UNL     1      41.435 -12.688   4.974  1.00  0.00     0.137 A 
HETATM   28  C   UNL     1      42.041 -13.813   5.590  1.00  0.00     0.025 A 
HETATM   29  C   UNL     1      40.068 -12.788   5.161  1.00  0.00     0.162 A 
HETATM   30  C   UNL     1      43.366 -14.279   5.712  1.00  0.00     0.016 A 
HETATM   31  C   UNL     1      41.009 -14.567   6.163  1.00  0.00     0.046 A 
HETATM   32  C   UNL     1      43.611 -15.475   6.397  1.00  0.00     0.001 A 
HETATM   33  C   UNL     1      42.563 -16.200   6.962  1.00  0.00     0.002 A 
HETATM   34  C   UNL     1      41.241 -15.760   6.857  1.00  0.00     0.030 A 
HETATM   35  N   UNL     1      39.827 -13.912   5.894  1.00  0.00    -0.338 N 
HETATM   36  H   UNL     1      38.905 -14.220   6.166  1.00  0.00     0.167 HD
HETATM   37  N   UNL     1      39.139 -11.943   4.690  1.00  0.00    -0.201 NA
ENDBRANCH  23  24
ENDBRANCH  22  23
ENDBRANCH   1  22
TORSDOF 9
ENDMDL
MODEL 5
REMARK VINA RESULT:      -8.9      6.542     12.059
REMARK  9 active torsions:
REMARK  status: ('A' for Active; 'I' for Inactive)
REMARK    1  A    between atoms: C_11  and  S_12 
REMARK    2  A    between atoms: S_12  and  C_13 
REMARK    3  A    between atoms: C_13  and  C_14 
REMARK       I    between atoms: C_14  and  N_15 
REMARK    4  A    between atoms: N_15  and  N_16 
REMARK    5  A    between atoms: N_16  and  C_17 
REMARK    6  A    between atoms: C_17  and  N_18 
REMARK    7  A    between atoms: N_18  and  C_19 
REMARK    8  A    between atoms: C_22  and  O_23 
REMARK    9  A    between atoms: O_23  and  C_24 
ROOT
HETATM    1  C   UNL     1      44.597 -11.523   7.544  1.00  0.00     0.245 C 
HETATM    2  N   UNL     1      43.388 -11.174   8.134  1.00  0.00    -0.267 N 
HETATM    3  O   UNL     1      45.683 -11.223   8.032  1.00  0.00    -0.271 OA
HETATM    4  H   UNL     1      42.498 -11.208   7.645  1.00  0.00     0.190 HD
ENDROOT
BRANCH   2   5
HETATM    5  N   UNL     1      43.407 -10.569   9.395  1.00  0.00    -0.274 N 
HETATM    6  H   UNL     1      44.277 -10.673   9.904  1.00  0.00     0.189 HD
BRANCH   5   7
HETATM    7  C   UNL     1      42.556  -9.543   9.723  1.00  0.00     0.191 C 
HETATM    8  S   UNL     1      42.487  -8.076   8.913  1.00  0.00    -0.039 SA
BRANCH   7   9
HETATM    9  N   UNL     1      41.609  -9.802  10.679  1.00  0.00    -0.332 N 
HETATM   10  H   UNL     1      40.891 -10.448  10.365  1.00  0.00     0.168 HD
BRANCH   9  11
HETATM   11  C   UNL     1      41.455  -9.290  11.982  1.00  0.00     0.034 A 
HETATM   12  C   UNL     1      42.408  -9.437  12.992  1.00  0.00     0.032 A 
HETATM   13  C   UNL     1      42.164  -8.933  14.274  1.00  0.00     0.039 A 
HETATM   14  C   UNL     1      40.981  -8.249  14.562  1.00  0.00     0.078 A 
HETATM   15  C   UNL     1      40.058  -8.042  13.538  1.00  0.00     0.039 A 
HETATM   16  C   UNL     1      40.302  -8.549  12.254  1.00  0.00     0.032 A 
BRANCH  14  17
HETATM   17  O   UNL     1      40.867  -7.836  15.858  1.00  0.00    -0.255 OA
BRANCH  17  18
HETATM   18  C   UNL     1      41.438  -6.587  16.206  1.00  0.00     0.530 C 
HETATM   19  F   UNL     1      41.600  -5.807  15.116  1.00  0.00    -0.144 F 
HETATM   20  F   UNL     1      40.681  -5.938  17.116  1.00  0.00    -0.144 F 
HETATM   21  F   UNL     1      42.656  -6.804  16.752  1.00  0.00    -0.144 F 
ENDBRANCH  17  18
ENDBRANCH  14  17
ENDBRANCH   9  11
ENDBRANCH   7   9
ENDBRANCH   5   7
ENDBRANCH   2   5
BRANCH   1  22
HETATM   22  C   UNL     1      44.400 -12.363   6.290  1.00  0.00     0.187 C 
BRANCH  22  23
HETATM   23  S   UNL     1      42.719 -13.015   6.074  1.00  0.00    -0.079 SA
BRANCH  23  24
HETATM   24  C   UNL     1      43.074 -14.536   5.214  1.00  0.00     0.211 A 
HETATM   25  N   UNL     1      42.869 -14.576   3.864  1.00  0.00    -0.122 NA
HETATM   26  N   UNL     1      42.993 -15.721   3.186  1.00  0.00    -0.143 NA
HETATM   27  C   UNL     1      43.342 -16.813   3.915  1.00  0.00     0.137 A 
HETATM   28  C   UNL     1      43.510 -18.180   3.571  1.00  0.00     0.025 A 
HETATM   29  C   UNL     1      43.592 -16.684   5.270  1.00  0.00     0.162 A 
HETATM   30  C   UNL     1      43.371 -18.924   2.381  1.00  0.00     0.016 A 
HETATM   31  C   UNL     1      43.883 -18.851   4.742  1.00  0.00     0.046 A 
HETATM   32  C   UNL     1      43.608 -20.303   2.404  1.00  0.00     0.001 A 
HETATM   33  C   UNL     1      43.984 -20.941   3.585  1.00  0.00     0.002 A 
HETATM   34  C   UNL     1      44.131 -20.227   4.777  1.00  0.00     0.030 A 
HETATM   35  N   UNL     1      43.934 -17.913   5.751  1.00  0.00    -0.338 N 
HETATM   36  H   UNL     1      44.161 -18.096   6.718  1.00  0.00     0.167 HD
HETATM   37  N   UNL     1      43.495 -15.557   5.991  1.00  0.00    -0.201 NA
ENDBRANCH  23  24
ENDBRANCH  22  23
ENDBRANCH   1  22
TORSDOF 9
ENDMDL
MODEL 6
REMARK VINA RESULT:      -8.8      5.892      9.100
REMARK  9 active torsions:
REMARK  status: ('A' for Active; 'I' for Inactive)
REMARK    1  A    between atoms: C_11  and  S_12 
REMARK    2  A    between atoms: S_12  and  C_13 
REMARK    3  A    between atoms: C_13  and  C_14 
REMARK       I    between atoms: C_14  and  N_15 
REMARK    4  A    between atoms: N_15  and  N_16 
REMARK    5  A    between atoms: N_16  and  C_17 
REMARK    6  A    between atoms: C_17  and  N_18 
REMARK    7  A    between atoms: N_18  and  C_19 
REMARK    8  A    between atoms: C_22  and  O_23 
REMARK    9  A    between atoms: O_23  and  C_24 
ROOT
HETATM    1  C   UNL     1      41.865 -10.820   4.098  1.00  0.00     0.245 C 
HETATM    2  N   UNL     1      42.065 -10.188   2.876  1.00  0.00    -0.267 N 
HETATM    3  O   UNL     1      40.828 -10.698   4.744  1.00  0.00    -0.271 OA
HETATM    4  H   UNL     1      42.978 -10.089   2.442  1.00  0.00     0.190 HD
ENDROOT
BRANCH   2   5
HETATM    5  N   UNL     1      40.998  -9.490   2.299  1.00  0.00    -0.274 N 
HETATM    6  H   UNL     1      40.542  -8.826   2.914  1.00  0.00     0.189 HD
BRANCH   5   7
HETATM    7  C   UNL     1      40.877  -9.340   0.940  1.00  0.00     0.191 C 
HETATM    8  S   UNL     1      40.091  -8.059   0.196  1.00  0.00    -0.039 SA
BRANCH   7   9
HETATM    9  N   UNL     1      41.572 -10.221   0.153  1.00  0.00    -0.332 N 
HETATM   10  H   UNL     1      42.575 -10.065   0.170  1.00  0.00     0.168 HD
BRANCH   9  11
HETATM   11  C   UNL     1      41.119 -11.255  -0.689  1.00  0.00     0.034 A 
HETATM   12  C   UNL     1      40.855 -12.554  -0.252  1.00  0.00     0.032 A 
HETATM   13  C   UNL     1      40.444 -13.537  -1.159  1.00  0.00     0.039 A 
HETATM   14  C   UNL     1      40.261 -13.234  -2.509  1.00  0.00     0.078 A 
HETATM   15  C   UNL     1      40.458 -11.922  -2.936  1.00  0.00     0.039 A 
HETATM   16  C   UNL     1      40.873 -10.938  -2.028  1.00  0.00     0.032 A 
BRANCH  14  17
HETATM   17  O   UNL     1      39.883 -14.294  -3.282  1.00  0.00    -0.255 OA
BRANCH  17  18
HETATM   18  C   UNL     1      38.547 -14.751  -3.168  1.00  0.00     0.530 C 
HETATM   19  F   UNL     1      38.031 -15.045  -4.381  1.00  0.00    -0.144 F 
HETATM   20  F   UNL     1      38.466 -15.836  -2.368  1.00  0.00    -0.144 F 
HETATM   21  F   UNL     1      37.797 -13.769  -2.619  1.00  0.00    -0.144 F 
ENDBRANCH  17  18
ENDBRANCH  14  17
ENDBRANCH   9  11
ENDBRANCH   7   9
ENDBRANCH   5   7
ENDBRANCH   2   5
BRANCH   1  22
HETATM   22  C   UNL     1      43.038 -11.711   4.479  1.00  0.00     0.187 C 
BRANCH  22  23
HETATM   23  S   UNL     1      42.683 -12.904   5.802  1.00  0.00    -0.079 SA
BRANCH  23  24
HETATM   24  C   UNL     1      43.011 -14.434   4.948  1.00  0.00     0.211 A 
HETATM   25  N   UNL     1      42.738 -14.499   3.612  1.00  0.00    -0.122 NA
HETATM   26  N   UNL     1      42.841 -15.654   2.946  1.00  0.00    -0.143 NA
HETATM   27  C   UNL     1      43.238 -16.729   3.674  1.00  0.00     0.137 A 
HETATM   28  C   UNL     1      43.403 -18.100   3.343  1.00  0.00     0.025 A 
HETATM   29  C   UNL     1      43.555 -16.576   5.011  1.00  0.00     0.162 A 
HETATM   30  C   UNL     1      43.213 -18.864   2.173  1.00  0.00     0.016 A 
HETATM   31  C   UNL     1      43.843 -18.748   4.504  1.00  0.00     0.046 A 
HETATM   32  C   UNL     1      43.466 -20.240   2.206  1.00  0.00     0.001 A 
HETATM   33  C   UNL     1      43.909 -20.856   3.377  1.00  0.00     0.002 A 
HETATM   34  C   UNL     1      44.107 -20.121   4.548  1.00  0.00     0.030 A 
HETATM   35  N   UNL     1      43.935 -17.793   5.494  1.00  0.00    -0.338 N 
HETATM   36  H   UNL     1      44.212 -17.958   6.451  1.00  0.00     0.167 HD
HETATM   37  N   UNL     1      43.482 -15.438   5.718  1.00  0.00    -0.201 NA
ENDBRANCH  23  24
ENDBRANCH  22  23
ENDBRANCH   1  22
TORSDOF 9
ENDMDL
MODEL 7
REMARK VINA RESULT:      -8.6      2.522      3.066
REMARK  9 active torsions:
REMARK  status: ('A' for Active; 'I' for Inactive)
REMARK    1  A    between atoms: C_11  and  S_12 
REMARK    2  A    between atoms: S_12  and  C_13 
REMARK    3  A    between atoms: C_13  and  C_14 
REMARK       I    between atoms: C_14  and  N_15 
REMARK    4  A    between atoms: N_15  and  N_16 
REMARK    5  A    between atoms: N_16  and  C_17 
REMARK    6  A    between atoms: C_17  and  N_18 
REMARK    7  A    between atoms: N_18  and  C_19 
REMARK    8  A    between atoms: C_22  and  O_23 
REMARK    9  A    between atoms: O_23  and  C_24 
ROOT
HETATM    1  C   UNL     1      39.694 -12.238   6.088  1.00  0.00     0.245 C 
HETATM    2  N   UNL     1      40.876 -11.599   5.731  1.00  0.00    -0.267 N 
HETATM    3  O   UNL     1      39.587 -13.460   6.125  1.00  0.00    -0.271 OA
HETATM    4  H   UNL     1      40.924 -10.617   5.475  1.00  0.00     0.190 HD
ENDROOT
BRANCH   2   5
HETATM    5  N   UNL     1      42.022 -12.374   5.529  1.00  0.00    -0.274 N 
HETATM    6  H   UNL     1      42.342 -12.883   6.346  1.00  0.00     0.189 HD
BRANCH   5   7
HETATM    7  C   UNL     1      42.400 -12.803   4.281  1.00  0.00     0.191 C 
HETATM    8  S   UNL     1      43.620 -12.101   3.368  1.00  0.00    -0.039 SA
BRANCH   7   9
HETATM    9  N   UNL     1      41.838 -13.968   3.827  1.00  0.00    -0.332 N 
HETATM   10  H   UNL     1      40.839 -13.892   3.664  1.00  0.00     0.168 HD
BRANCH   9  11
HETATM   11  C   UNL     1      42.410 -15.235   3.597  1.00  0.00     0.034 A 
HETATM   12  C   UNL     1      42.691 -16.155   4.608  1.00  0.00     0.032 A 
HETATM   13  C   UNL     1      43.296 -17.380   4.303  1.00  0.00     0.039 A 
HETATM   14  C   UNL     1      43.602 -17.718   2.983  1.00  0.00     0.078 A 
HETATM   15  C   UNL     1      43.260 -16.829   1.965  1.00  0.00     0.039 A 
HETATM   16  C   UNL     1      42.657 -15.601   2.272  1.00  0.00     0.032 A 
BRANCH  14  17
HETATM   17  O   UNL     1      44.211 -18.930   2.836  1.00  0.00    -0.255 OA
BRANCH  17  18
HETATM   18  C   UNL     1      43.439 -19.999   2.317  1.00  0.00     0.530 C 
HETATM   19  F   UNL     1      42.191 -19.590   2.007  1.00  0.00    -0.144 F 
HETATM   20  F   UNL     1      44.022 -20.539   1.225  1.00  0.00    -0.144 F 
HETATM   21  F   UNL     1      43.343 -20.963   3.260  1.00  0.00    -0.144 F 
ENDBRANCH  17  18
ENDBRANCH  14  17
ENDBRANCH   9  11
ENDBRANCH   7   9
ENDBRANCH   5   7
ENDBRANCH   2   5
BRANCH   1  22
HETATM   22  C   UNL     1      38.607 -11.248   6.484  1.00  0.00     0.187 C 
BRANCH  22  23
HETATM   23  S   UNL     1      39.044  -9.504   6.231  1.00  0.00    -0.079 SA
BRANCH  23  24
HETATM   24  C   UNL     1      39.847  -9.148   7.783  1.00  0.00     0.211 A 
HETATM   25  N   UNL     1      41.173  -8.822   7.763  1.00  0.00    -0.122 NA
HETATM   26  N   UNL     1      41.859  -8.671   8.900  1.00  0.00    -0.143 NA
HETATM   27  C   UNL     1      41.158  -8.849  10.049  1.00  0.00     0.137 A 
HETATM   28  C   UNL     1      41.540  -8.831  11.416  1.00  0.00     0.025 A 
HETATM   29  C   UNL     1      39.803  -9.120   9.993  1.00  0.00     0.162 A 
HETATM   30  C   UNL     1      42.759  -8.643  12.099  1.00  0.00     0.016 A 
HETATM   31  C   UNL     1      40.382  -9.076  12.165  1.00  0.00     0.046 A 
HETATM   32  C   UNL     1      42.778  -8.707  13.497  1.00  0.00     0.001 A 
HETATM   33  C   UNL     1      41.607  -8.946  14.215  1.00  0.00     0.002 A 
HETATM   34  C   UNL     1      40.386  -9.134  13.563  1.00  0.00     0.030 A 
HETATM   35  N   UNL     1      39.345  -9.236  11.272  1.00  0.00    -0.338 N 
HETATM   36  H   UNL     1      38.385  -9.439  11.510  1.00  0.00     0.167 HD
HETATM   37  N   UNL     1      39.068  -9.266   8.879  1.00  0.00    -0.201 NA
ENDBRANCH  23  24
ENDBRANCH  22  23
ENDBRANCH   1  22
TORSDOF 9
ENDMDL
MODEL 8
REMARK VINA RESULT:      -8.6      1.798      2.518
REMARK  9 active torsions:
REMARK  status: ('A' for Active; 'I' for Inactive)
REMARK    1  A    between atoms: C_11  and  S_12 
REMARK    2  A    between atoms: S_12  and  C_13 
REMARK    3  A    between atoms: C_13  and  C_14 
REMARK       I    between atoms: C_14  and  N_15 
REMARK    4  A    between atoms: N_15  and  N_16 
REMARK    5  A    between atoms: N_16  and  C_17 
REMARK    6  A    between atoms: C_17  and  N_18 
REMARK    7  A    between atoms: N_18  and  C_19 
REMARK    8  A    between atoms: C_22  and  O_23 
REMARK    9  A    between atoms: O_23  and  C_24 
ROOT
HETATM    1  C   UNL     1      41.853 -12.809   5.426  1.00  0.00     0.245 C 
HETATM    2  N   UNL     1      42.249 -12.795   4.094  1.00  0.00    -0.267 N 
HETATM    3  O   UNL     1      40.674 -12.777   5.767  1.00  0.00    -0.271 OA
HETATM    4  H   UNL     1      43.198 -12.592   3.796  1.00  0.00     0.190 HD
ENDROOT
BRANCH   2   5
HETATM    5  N   UNL     1      41.266 -12.877   3.102  1.00  0.00    -0.274 N 
HETATM    6  H   UNL     1      41.065 -12.003   2.628  1.00  0.00     0.189 HD
BRANCH   5   7
HETATM    7  C   UNL     1      40.951 -14.063   2.486  1.00  0.00     0.191 C 
HETATM    8  S   UNL     1      40.910 -14.284   0.825  1.00  0.00    -0.039 SA
BRANCH   7   9
HETATM    9  N   UNL     1      40.809 -15.163   3.291  1.00  0.00    -0.332 N 
HETATM   10  H   UNL     1      39.881 -15.243   3.696  1.00  0.00     0.168 HD
BRANCH   9  11
HETATM   11  C   UNL     1      41.738 -16.152   3.669  1.00  0.00     0.034 A 
HETATM   12  C   UNL     1      42.092 -16.421   4.992  1.00  0.00     0.032 A 
HETATM   13  C   UNL     1      43.054 -17.395   5.284  1.00  0.00     0.039 A 
HETATM   14  C   UNL     1      43.655 -18.135   4.264  1.00  0.00     0.078 A 
HETATM   15  C   UNL     1      43.255 -17.915   2.947  1.00  0.00     0.039 A 
HETATM   16  C   UNL     1      42.293 -16.938   2.655  1.00  0.00     0.032 A 
BRANCH  14  17
HETATM   17  O   UNL     1      44.592 -19.031   4.691  1.00  0.00    -0.255 OA
BRANCH  17  18
HETATM   18  C   UNL     1      44.155 -20.338   5.021  1.00  0.00     0.530 C 
HETATM   19  F   UNL     1      43.353 -20.321   6.107  1.00  0.00    -0.144 F 
HETATM   20  F   UNL     1      43.503 -20.912   3.987  1.00  0.00    -0.144 F 
HETATM   21  F   UNL     1      45.235 -21.097   5.308  1.00  0.00    -0.144 F 
ENDBRANCH  17  18
ENDBRANCH  14  17
ENDBRANCH   9  11
ENDBRANCH   7   9
ENDBRANCH   5   7
ENDBRANCH   2   5
BRANCH   1  22
HETATM   22  C   UNL     1      43.038 -12.936   6.373  1.00  0.00     0.187 C 
BRANCH  22  23
HETATM   23  S   UNL     1      44.359 -11.719   6.099  1.00  0.00    -0.079 SA
BRANCH  23  24
HETATM   24  C   UNL     1      44.226 -10.761   7.597  1.00  0.00     0.211 A 
HETATM   25  N   UNL     1      44.717 -11.299   8.752  1.00  0.00    -0.122 NA
HETATM   26  N   UNL     1      44.532 -10.687   9.925  1.00  0.00    -0.143 NA
HETATM   27  C   UNL     1      43.849  -9.514   9.887  1.00  0.00     0.137 A 
HETATM   28  C   UNL     1      43.415  -8.625  10.905  1.00  0.00     0.025 A 
HETATM   29  C   UNL     1      43.432  -9.001   8.672  1.00  0.00     0.162 A 
HETATM   30  C   UNL     1      43.506  -8.615  12.312  1.00  0.00     0.016 A 
HETATM   31  C   UNL     1      42.754  -7.568  10.267  1.00  0.00     0.046 A 
HETATM   32  C   UNL     1      42.936  -7.555  13.027  1.00  0.00     0.001 A 
HETATM   33  C   UNL     1      42.289  -6.514  12.363  1.00  0.00     0.002 A 
HETATM   34  C   UNL     1      42.187  -6.499  10.969  1.00  0.00     0.030 A 
HETATM   35  N   UNL     1      42.792  -7.821   8.913  1.00  0.00    -0.338 N 
HETATM   36  H   UNL     1      42.385  -7.244   8.192  1.00  0.00     0.167 HD
HETATM   37  N   UNL     1      43.606  -9.569   7.469  1.00  0.00    -0.201 NA
ENDBRANCH  23  24
ENDBRANCH  22  23
ENDBRANCH   1  22
TORSDOF 9
ENDMDL
MODEL 9
REMARK VINA RESULT:      -8.5      7.670     10.505
REMARK  9 active torsions:
REMARK  status: ('A' for Active; 'I' for Inactive)
REMARK    1  A    between atoms: C_11  and  S_12 
REMARK    2  A    between atoms: S_12  and  C_13 
REMARK    3  A    between atoms: C_13  and  C_14 
REMARK       I    between atoms: C_14  and  N_15 
REMARK    4  A    between atoms: N_15  and  N_16 
REMARK    5  A    between atoms: N_16  and  C_17 
REMARK    6  A    between atoms: C_17  and  N_18 
REMARK    7  A    between atoms: N_18  and  C_19 
REMARK    8  A    between atoms: C_22  and  O_23 
REMARK    9  A    between atoms: O_23  and  C_24 
ROOT
HETATM    1  C   UNL     1      39.558 -12.758   2.040  1.00  0.00     0.245 C 
HETATM    2  N   UNL     1      39.854 -13.721   1.083  1.00  0.00    -0.267 N 
HETATM    3  O   UNL     1      38.726 -11.874   1.855  1.00  0.00    -0.271 OA
HETATM    4  H   UNL     1      40.681 -14.309   1.120  1.00  0.00     0.190 HD
ENDROOT
BRANCH   2   5
HETATM    5  N   UNL     1      39.086 -13.763  -0.086  1.00  0.00    -0.274 N 
HETATM    6  H   UNL     1      38.142 -13.406   0.011  1.00  0.00     0.189 HD
BRANCH   5   7
HETATM    7  C   UNL     1      39.660 -13.813  -1.332  1.00  0.00     0.191 C 
HETATM    8  S   UNL     1      38.980 -14.583  -2.657  1.00  0.00    -0.039 SA
BRANCH   7   9
HETATM    9  N   UNL     1      40.787 -13.057  -1.528  1.00  0.00    -0.332 N 
HETATM   10  H   UNL     1      41.636 -13.611  -1.577  1.00  0.00     0.168 HD
BRANCH   9  11
HETATM   11  C   UNL     1      40.951 -11.661  -1.628  1.00  0.00     0.034 A 
HETATM   12  C   UNL     1      41.339 -10.846  -0.564  1.00  0.00     0.032 A 
HETATM   13  C   UNL     1      41.443  -9.461  -0.734  1.00  0.00     0.039 A 
HETATM   14  C   UNL     1      41.190  -8.871  -1.974  1.00  0.00     0.078 A 
HETATM   15  C   UNL     1      40.868  -9.689  -3.055  1.00  0.00     0.039 A 
HETATM   16  C   UNL     1      40.762 -11.077  -2.884  1.00  0.00     0.032 A 
BRANCH  14  17
HETATM   17  O   UNL     1      41.304  -7.511  -1.988  1.00  0.00    -0.255 OA
BRANCH  17  18
HETATM   18  C   UNL     1      42.607  -6.958  -2.047  1.00  0.00     0.530 C 
HETATM   19  F   UNL     1      42.590  -5.738  -2.626  1.00  0.00    -0.144 F 
HETATM   20  F   UNL     1      43.157  -6.865  -0.817  1.00  0.00    -0.144 F 
HETATM   21  F   UNL     1      43.389  -7.768  -2.795  1.00  0.00    -0.144 F 
ENDBRANCH  17  18
ENDBRANCH  14  17
ENDBRANCH   9  11
ENDBRANCH   7   9
ENDBRANCH   5   7
ENDBRANCH   2   5
BRANCH   1  22
HETATM   22  C   UNL     1      40.328 -12.982   3.334  1.00  0.00     0.187 C 
BRANCH  22  23
HETATM   23  S   UNL     1      42.123 -12.746   3.196  1.00  0.00    -0.079 SA
BRANCH  23  24
HETATM   24  C   UNL     1      42.660 -14.442   3.077  1.00  0.00     0.211 A 
HETATM   25  N   UNL     1      42.611 -15.050   1.856  1.00  0.00    -0.122 NA
HETATM   26  N   UNL     1      42.877 -16.354   1.729  1.00  0.00    -0.143 NA
HETATM   27  C   UNL     1      43.205 -17.011   2.871  1.00  0.00     0.137 A 
HETATM   28  C   UNL     1      43.490 -18.376   3.142  1.00  0.00     0.025 A 
HETATM   29  C   UNL     1      43.293 -16.316   4.064  1.00  0.00     0.162 A 
HETATM   30  C   UNL     1      43.529 -19.551   2.364  1.00  0.00     0.016 A 
HETATM   31  C   UNL     1      43.768 -18.468   4.512  1.00  0.00     0.046 A 
HETATM   32  C   UNL     1      43.842 -20.768   2.978  1.00  0.00     0.001 A 
HETATM   33  C   UNL     1      44.120 -20.827   4.343  1.00  0.00     0.002 A 
HETATM   34  C   UNL     1      44.090 -19.678   5.136  1.00  0.00     0.030 A 
HETATM   35  N   UNL     1      43.650 -17.200   5.039  1.00  0.00    -0.338 N 
HETATM   36  H   UNL     1      43.778 -16.948   6.008  1.00  0.00     0.167 HD
HETATM   37  N   UNL     1      43.050 -15.008   4.239  1.00  0.00    -0.201 NA
ENDBRANCH  23  24
ENDBRANCH  22  23
ENDBRANCH   1  22
TORSDOF 9
ENDMDL
MODEL 10
REMARK VINA RESULT:      -8.5      4.814      9.514
REMARK  9 active torsions:
REMARK  status: ('A' for Active; 'I' for Inactive)
REMARK    1  A    between atoms: C_11  and  S_12 
REMARK    2  A    between atoms: S_12  and  C_13 
REMARK    3  A    between atoms: C_13  and  C_14 
REMARK       I    between atoms: C_14  and  N_15 
REMARK    4  A    between atoms: N_15  and  N_16 
REMARK    5  A    between atoms: N_16  and  C_17 
REMARK    6  A    between atoms: C_17  and  N_18 
REMARK    7  A    between atoms: N_18  and  C_19 
REMARK    8  A    between atoms: C_22  and  O_23 
REMARK    9  A    between atoms: O_23  and  C_24 
ROOT
HETATM    1  C   UNL     1      39.372  -9.602   8.114  1.00  0.00     0.245 C 
HETATM    2  N   UNL     1      39.243 -10.317   9.299  1.00  0.00    -0.267 N 
HETATM    3  O   UNL     1      39.047  -8.422   8.014  1.00  0.00    -0.271 OA
HETATM    4  H   UNL     1      39.287 -11.330   9.347  1.00  0.00     0.190 HD
ENDROOT
BRANCH   2   5
HETATM    5  N   UNL     1      38.846  -9.634  10.454  1.00  0.00    -0.274 N 
HETATM    6  H   UNL     1      37.843  -9.561  10.583  1.00  0.00     0.189 HD
BRANCH   5   7
HETATM    7  C   UNL     1      39.674  -9.502  11.541  1.00  0.00     0.191 C 
HETATM    8  S   UNL     1      39.628 -10.494  12.892  1.00  0.00    -0.039 SA
BRANCH   7   9
HETATM    9  N   UNL     1      40.693  -8.591  11.439  1.00  0.00    -0.332 N 
HETATM   10  H   UNL     1      40.461  -7.686  11.836  1.00  0.00     0.168 HD
BRANCH   9  11
HETATM   11  C   UNL     1      41.967  -8.700  10.846  1.00  0.00     0.034 A 
HETATM   12  C   UNL     1      42.952  -9.588  11.279  1.00  0.00     0.032 A 
HETATM   13  C   UNL     1      44.207  -9.610  10.661  1.00  0.00     0.039 A 
HETATM   14  C   UNL     1      44.489  -8.767   9.584  1.00  0.00     0.078 A 
HETATM   15  C   UNL     1      43.485  -7.927   9.106  1.00  0.00     0.039 A 
HETATM   16  C   UNL     1      42.228  -7.905   9.727  1.00  0.00     0.032 A 
BRANCH  14  17
HETATM   17  O   UNL     1      45.759  -8.877   9.096  1.00  0.00    -0.255 OA
BRANCH  17  18
HETATM   18  C   UNL     1      46.011  -9.879   8.127  1.00  0.00     0.530 C 
HETATM   19  F   UNL     1      47.203  -9.683   7.524  1.00  0.00    -0.144 F 
HETATM   20  F   UNL     1      45.980 -11.112   8.677  1.00  0.00    -0.144 F 
HETATM   21  F   UNL     1      45.047  -9.820   7.181  1.00  0.00    -0.144 F 
ENDBRANCH  17  18
ENDBRANCH  14  17
ENDBRANCH   9  11
ENDBRANCH   7   9
ENDBRANCH   5   7
ENDBRANCH   2   5
BRANCH   1  22
HETATM   22  C   UNL     1      40.018 -10.432   7.014  1.00  0.00     0.187 C 
BRANCH  22  23
HETATM   23  S   UNL     1      41.560  -9.738   6.350  1.00  0.00    -0.079 SA
BRANCH  23  24
HETATM   24  C   UNL     1      42.127 -11.108   5.360  1.00  0.00     0.211 A 
HETATM   25  N   UNL     1      42.764 -10.834   4.184  1.00  0.00    -0.122 NA
HETATM   26  N   UNL     1      43.096 -11.815   3.340  1.00  0.00    -0.143 NA
HETATM   27  C   UNL     1      42.775 -13.075   3.731  1.00  0.00     0.137 A 
HETATM   28  C   UNL     1      42.909 -14.338   3.097  1.00  0.00     0.025 A 
HETATM   29  C   UNL     1      42.183 -13.282   4.964  1.00  0.00     0.162 A 
HETATM   30  C   UNL     1      43.398 -14.769   1.847  1.00  0.00     0.016 A 
HETATM   31  C   UNL     1      42.405 -15.295   3.987  1.00  0.00     0.046 A 
HETATM   32  C   UNL     1      43.366 -16.132   1.532  1.00  0.00     0.001 A 
HETATM   33  C   UNL     1      42.864 -17.062   2.442  1.00  0.00     0.002 A 
HETATM   34  C   UNL     1      42.374 -16.661   3.688  1.00  0.00     0.030 A 
HETATM   35  N   UNL     1      41.983 -14.622   5.114  1.00  0.00    -0.338 N 
HETATM   36  H   UNL     1      41.558 -15.041   5.928  1.00  0.00     0.167 HD
HETATM   37  N   UNL     1      41.844 -12.333   5.851  1.00  0.00    -0.201 NA
ENDBRANCH  23  24
ENDBRANCH  22  23
ENDBRANCH   1  22
TORSDOF 9
ENDMDL
