MODEL 1
REMARK VINA RESULT:      -8.3      0.000      0.000
REMARK  5 active torsions:
REMARK  status: ('A' for Active; 'I' for Inactive)
REMARK    1  A    between atoms: O_2  and  C_3 
REMARK    2  A    between atoms: C_7  and  C_8 
REMARK    3  A    between atoms: C_8  and  N_9 
REMARK       I    between atoms: N_9  and  C_10 
REMARK    4  A    between atoms: C_10  and  C_11 
REMARK    5  A    between atoms: C_13  and  C_14 
ROOT
HETATM    1  N   UNL     1      42.702 -13.948   2.858  1.00  0.00    -0.353 N 
HETATM    2  C   UNL     1      42.380 -14.298   4.149  1.00  0.00     0.251 C 
HETATM    3  O   UNL     1      41.604 -13.657   4.848  1.00  0.00    -0.268 OA
HETATM    4  H   UNL     1      43.381 -14.477   2.331  1.00  0.00     0.163 HD
ENDROOT
BRANCH   2   5
HETATM    5  C   UNL     1      43.057 -15.502   4.704  1.00  0.00     0.032 A 
HETATM    6  C   UNL     1      43.073 -16.667   3.924  1.00  0.00     0.029 A 
HETATM    7  C   UNL     1      43.704 -17.831   4.385  1.00  0.00    -0.023 A 
HETATM    8  C   UNL     1      44.324 -17.806   5.642  1.00  0.00     0.012 A 
HETATM    9  C   UNL     1      44.324 -16.643   6.417  1.00  0.00     0.002 A 
HETATM   10  C   UNL     1      43.694 -15.489   5.950  1.00  0.00     0.017 A 
BRANCH   7  11
HETATM   11  C   UNL     1      43.697 -19.034   3.568  1.00  0.00    -0.002 A 
HETATM   12  C   UNL     1      43.985 -20.301   4.034  1.00  0.00     0.153 A 
HETATM   13  O   UNL     1      43.906 -21.216   3.033  1.00  0.00    -0.334 OA
HETATM   14  C   UNL     1      43.574 -20.538   1.907  1.00  0.00     0.142 A 
HETATM   15  C   UNL     1      43.438 -19.197   2.177  1.00  0.00     0.038 A 
ENDBRANCH   7  11
ENDBRANCH   2   5
BRANCH   1  16
HETATM   16  C   UNL     1      42.078 -12.814   2.215  1.00  0.00     0.161 C 
BRANCH  16  17
HETATM   17  C   UNL     1      41.185 -13.251   1.083  1.00  0.00    -0.037 A 
HETATM   18  C   UNL     1      40.673 -14.553   1.029  1.00  0.00     0.054 A 
HETATM   19  C   UNL     1      39.824 -14.937  -0.010  1.00  0.00     0.150 A 
HETATM   20  C   UNL     1      39.465 -14.039  -1.017  1.00  0.00     0.106 A 
HETATM   21  F   UNL     1      39.371 -16.199  -0.001  1.00  0.00    -0.203 F 
HETATM   22  C   UNL     1      39.984 -12.742  -0.969  1.00  0.00     0.040 A 
HETATM   23  C   UNL     1      40.831 -12.348   0.072  1.00  0.00     0.012 A 
BRANCH  20  24
HETATM   24  O   UNL     1      38.644 -14.274  -2.086  1.00  0.00    -0.353 OA
HETATM   25  C   UNL     1      37.825 -13.195  -2.520  1.00  0.00     0.210 C 
ENDBRANCH  20  24
ENDBRANCH  16  17
ENDBRANCH   1  16
TORSDOF 5
ENDMDL
MODEL 2
REMARK VINA RESULT:      -7.9      5.151      8.779
REMARK  5 active torsions:
REMARK  status: ('A' for Active; 'I' for Inactive)
REMARK    1  A    between atoms: O_2  and  C_3 
REMARK    2  A    between atoms: C_7  and  C_8 
REMARK    3  A    between atoms: C_8  and  N_9 
REMARK       I    between atoms: N_9  and  C_10 
REMARK    4  A    between atoms: C_10  and  C_11 
REMARK    5  A    between atoms: C_13  and  C_14 
ROOT
HETATM    1  N   UNL     1      42.746 -13.456   6.866  1.00  0.00    -0.353 N 
HETATM    2  C   UNL     1      43.486 -12.486   6.231  1.00  0.00     0.251 C 
HETATM    3  O   UNL     1      43.486 -12.325   5.016  1.00  0.00    -0.268 OA
HETATM    4  H   UNL     1      42.808 -13.586   7.865  1.00  0.00     0.163 HD
ENDROOT
BRANCH   2   5
HETATM    5  C   UNL     1      44.348 -11.631   7.092  1.00  0.00     0.032 A 
HETATM    6  C   UNL     1      43.825 -11.190   8.316  1.00  0.00     0.029 A 
HETATM    7  C   UNL     1      44.590 -10.392   9.178  1.00  0.00    -0.023 A 
HETATM    8  C   UNL     1      45.893 -10.046   8.794  1.00  0.00     0.012 A 
HETATM    9  C   UNL     1      46.424 -10.495   7.582  1.00  0.00     0.002 A 
HETATM   10  C   UNL     1      45.656 -11.290   6.730  1.00  0.00     0.017 A 
BRANCH   7  11
HETATM   11  C   UNL     1      44.024  -9.932  10.436  1.00  0.00    -0.002 A 
HETATM   12  C   UNL     1      43.610 -10.760  11.460  1.00  0.00     0.153 A 
HETATM   13  O   UNL     1      43.118 -10.038  12.500  1.00  0.00    -0.334 OA
HETATM   14  C   UNL     1      43.204  -8.731  12.146  1.00  0.00     0.142 A 
HETATM   15  C   UNL     1      43.747  -8.610  10.889  1.00  0.00     0.038 A 
ENDBRANCH   7  11
ENDBRANCH   2   5
BRANCH   1  16
HETATM   16  C   UNL     1      41.854 -14.319   6.125  1.00  0.00     0.161 C 
BRANCH  16  17
HETATM   17  C   UNL     1      42.521 -15.624   5.775  1.00  0.00    -0.037 A 
HETATM   18  C   UNL     1      42.643 -16.648   6.722  1.00  0.00     0.054 A 
HETATM   19  C   UNL     1      43.238 -17.863   6.378  1.00  0.00     0.150 A 
HETATM   20  C   UNL     1      43.725 -18.088   5.088  1.00  0.00     0.106 A 
HETATM   21  F   UNL     1      43.323 -18.801   7.333  1.00  0.00    -0.203 F 
HETATM   22  C   UNL     1      43.612 -17.062   4.145  1.00  0.00     0.040 A 
HETATM   23  C   UNL     1      43.013 -15.844   4.481  1.00  0.00     0.012 A 
BRANCH  20  24
HETATM   24  O   UNL     1      44.322 -19.223   4.611  1.00  0.00    -0.353 OA
HETATM   25  C   UNL     1      43.989 -19.620   3.287  1.00  0.00     0.210 C 
ENDBRANCH  20  24
ENDBRANCH  16  17
ENDBRANCH   1  16
TORSDOF 5
ENDMDL
MODEL 3
REMARK VINA RESULT:      -7.9      4.699      8.155
REMARK  5 active torsions:
REMARK  status: ('A' for Active; 'I' for Inactive)
REMARK    1  A    between atoms: O_2  and  C_3 
REMARK    2  A    between atoms: C_7  and  C_8 
REMARK    3  A    between atoms: C_8  and  N_9 
REMARK       I    between atoms: N_9  and  C_10 
REMARK    4  A    between atoms: C_10  and  C_11 
REMARK    5  A    between atoms: C_13  and  C_14 
ROOT
HETATM    1  N   UNL     1      43.327 -13.328   5.256  1.00  0.00    -0.353 N 
HETATM    2  C   UNL     1      43.625 -11.985   5.220  1.00  0.00     0.251 C 
HETATM    3  O   UNL     1      43.322 -11.252   4.286  1.00  0.00    -0.268 OA
HETATM    4  H   UNL     1      43.633 -13.907   6.024  1.00  0.00     0.163 HD
ENDROOT
BRANCH   2   5
HETATM    5  C   UNL     1      44.387 -11.438   6.376  1.00  0.00     0.032 A 
HETATM    6  C   UNL     1      43.678 -11.129   7.546  1.00  0.00     0.029 A 
HETATM    7  C   UNL     1      44.339 -10.622   8.673  1.00  0.00    -0.023 A 
HETATM    8  C   UNL     1      45.727 -10.432   8.609  1.00  0.00     0.012 A 
HETATM    9  C   UNL     1      46.440 -10.752   7.450  1.00  0.00     0.002 A 
HETATM   10  C   UNL     1      45.774 -11.257   6.333  1.00  0.00     0.017 A 
BRANCH   7  11
HETATM   11  C   UNL     1      43.585 -10.293   9.872  1.00  0.00    -0.002 A 
HETATM   12  C   UNL     1      42.510  -9.427   9.910  1.00  0.00     0.153 A 
HETATM   13  O   UNL     1      42.021  -9.316  11.173  1.00  0.00    -0.334 OA
HETATM   14  C   UNL     1      42.788 -10.109  11.962  1.00  0.00     0.142 A 
HETATM   15  C   UNL     1      43.764 -10.727  11.216  1.00  0.00     0.038 A 
ENDBRANCH   7  11
ENDBRANCH   2   5
BRANCH   1  16
HETATM   16  C   UNL     1      42.564 -13.951   4.199  1.00  0.00     0.161 C 
BRANCH  16  17
HETATM   17  C   UNL     1      42.982 -15.384   3.995  1.00  0.00    -0.037 A 
HETATM   18  C   UNL     1      43.411 -16.171   5.071  1.00  0.00     0.054 A 
HETATM   19  C   UNL     1      43.770 -17.505   4.873  1.00  0.00     0.150 A 
HETATM   20  C   UNL     1      43.710 -18.088   3.606  1.00  0.00     0.106 A 
HETATM   21  F   UNL     1      44.173 -18.201   5.947  1.00  0.00    -0.203 F 
HETATM   22  C   UNL     1      43.291 -17.300   2.529  1.00  0.00     0.040 A 
HETATM   23  C   UNL     1      42.926 -15.964   2.720  1.00  0.00     0.012 A 
BRANCH  20  24
HETATM   24  O   UNL     1      44.023 -19.376   3.267  1.00  0.00    -0.353 OA
HETATM   25  C   UNL     1      43.357 -19.927   2.138  1.00  0.00     0.210 C 
ENDBRANCH  20  24
ENDBRANCH  16  17
ENDBRANCH   1  16
TORSDOF 5
ENDMDL
MODEL 4
REMARK VINA RESULT:      -7.9      4.006      6.652
REMARK  5 active torsions:
REMARK  status: ('A' for Active; 'I' for Inactive)
REMARK    1  A    between atoms: O_2  and  C_3 
REMARK    2  A    between atoms: C_7  and  C_8 
REMARK    3  A    between atoms: C_8  and  N_9 
REMARK       I    between atoms: N_9  and  C_10 
REMARK    4  A    between atoms: C_10  and  C_11 
REMARK    5  A    between atoms: C_13  and  C_14 
ROOT
HETATM    1  N   UNL     1      42.291 -13.140   4.522  1.00  0.00    -0.353 N 
HETATM    2  C   UNL     1      42.166 -14.484   4.786  1.00  0.00     0.251 C 
HETATM    3  O   UNL     1      41.708 -14.927   5.833  1.00  0.00    -0.268 OA
HETATM    4  H   UNL     1      42.714 -12.816   3.665  1.00  0.00     0.163 HD
ENDROOT
BRANCH   2   5
HETATM    5  C   UNL     1      42.656 -15.420   3.737  1.00  0.00     0.032 A 
HETATM    6  C   UNL     1      42.937 -16.741   4.112  1.00  0.00     0.029 A 
HETATM    7  C   UNL     1      43.392 -17.674   3.169  1.00  0.00    -0.023 A 
HETATM    8  C   UNL     1      43.556 -17.260   1.840  1.00  0.00     0.012 A 
HETATM    9  C   UNL     1      43.263 -15.948   1.458  1.00  0.00     0.002 A 
HETATM   10  C   UNL     1      42.811 -15.026   2.403  1.00  0.00     0.017 A 
BRANCH   7  11
HETATM   11  C   UNL     1      43.692 -19.036   3.581  1.00  0.00    -0.002 A 
HETATM   12  C   UNL     1      43.610 -20.141   2.757  1.00  0.00     0.153 A 
HETATM   13  O   UNL     1      43.942 -21.274   3.429  1.00  0.00    -0.334 OA
HETATM   14  C   UNL     1      44.233 -20.904   4.701  1.00  0.00     0.142 A 
HETATM   15  C   UNL     1      44.091 -19.544   4.849  1.00  0.00     0.038 A 
ENDBRANCH   7  11
ENDBRANCH   2   5
BRANCH   1  16
HETATM   16  C   UNL     1      41.817 -12.149   5.461  1.00  0.00     0.161 C 
BRANCH  16  17
HETATM   17  C   UNL     1      42.959 -11.530   6.224  1.00  0.00    -0.037 A 
HETATM   18  C   UNL     1      44.289 -11.818   5.893  1.00  0.00     0.054 A 
HETATM   19  C   UNL     1      45.338 -11.216   6.590  1.00  0.00     0.150 A 
HETATM   20  C   UNL     1      45.092 -10.316   7.629  1.00  0.00     0.106 A 
HETATM   21  F   UNL     1      46.587 -11.538   6.221  1.00  0.00    -0.203 F 
HETATM   22  C   UNL     1      43.764 -10.035   7.966  1.00  0.00     0.040 A 
HETATM   23  C   UNL     1      42.708 -10.631   7.270  1.00  0.00     0.012 A 
BRANCH  20  24
HETATM   24  O   UNL     1      46.015  -9.652   8.389  1.00  0.00    -0.353 OA
HETATM   25  C   UNL     1      45.639  -9.324   9.721  1.00  0.00     0.210 C 
ENDBRANCH  20  24
ENDBRANCH  16  17
ENDBRANCH   1  16
TORSDOF 5
ENDMDL
MODEL 5
REMARK VINA RESULT:      -7.6      2.098      7.326
REMARK  5 active torsions:
REMARK  status: ('A' for Active; 'I' for Inactive)
REMARK    1  A    between atoms: O_2  and  C_3 
REMARK    2  A    between atoms: C_7  and  C_8 
REMARK    3  A    between atoms: C_8  and  N_9 
REMARK       I    between atoms: N_9  and  C_10 
REMARK    4  A    between atoms: C_10  and  C_11 
REMARK    5  A    between atoms: C_13  and  C_14 
ROOT
HETATM    1  N   UNL     1      41.417 -13.887   3.136  1.00  0.00    -0.353 N 
HETATM    2  C   UNL     1      42.074 -12.766   2.682  1.00  0.00     0.251 C 
HETATM    3  O   UNL     1      43.033 -12.267   3.259  1.00  0.00    -0.268 OA
HETATM    4  H   UNL     1      40.602 -14.240   2.656  1.00  0.00     0.163 HD
ENDROOT
BRANCH   2   5
HETATM    5  C   UNL     1      41.540 -12.133   1.445  1.00  0.00     0.032 A 
HETATM    6  C   UNL     1      40.933 -12.961   0.491  1.00  0.00     0.029 A 
HETATM    7  C   UNL     1      40.402 -12.425  -0.690  1.00  0.00    -0.023 A 
HETATM    8  C   UNL     1      40.484 -11.041  -0.898  1.00  0.00     0.012 A 
HETATM    9  C   UNL     1      41.075 -10.210   0.058  1.00  0.00     0.002 A 
HETATM   10  C   UNL     1      41.602 -10.752   1.231  1.00  0.00     0.017 A 
BRANCH   7  11
HETATM   11  C   UNL     1      39.789 -13.303  -1.676  1.00  0.00    -0.002 A 
HETATM   12  C   UNL     1      39.581 -12.972  -3.000  1.00  0.00     0.153 A 
HETATM   13  O   UNL     1      38.981 -13.992  -3.667  1.00  0.00    -0.334 OA
HETATM   14  C   UNL     1      38.789 -14.989  -2.768  1.00  0.00     0.142 A 
HETATM   15  C   UNL     1      39.262 -14.617  -1.531  1.00  0.00     0.038 A 
ENDBRANCH   7  11
ENDBRANCH   2   5
BRANCH   1  16
HETATM   16  C   UNL     1      41.872 -14.594   4.311  1.00  0.00     0.161 C 
BRANCH  16  17
HETATM   17  C   UNL     1      42.522 -15.902   3.943  1.00  0.00    -0.037 A 
HETATM   18  C   UNL     1      43.113 -16.714   4.919  1.00  0.00     0.054 A 
HETATM   19  C   UNL     1      43.688 -17.938   4.570  1.00  0.00     0.150 A 
HETATM   20  C   UNL     1      43.687 -18.383   3.246  1.00  0.00     0.106 A 
HETATM   21  F   UNL     1      44.237 -18.664   5.554  1.00  0.00    -0.203 F 
HETATM   22  C   UNL     1      43.106 -17.568   2.269  1.00  0.00     0.040 A 
HETATM   23  C   UNL     1      42.524 -16.343   2.613  1.00  0.00     0.012 A 
BRANCH  20  24
HETATM   24  O   UNL     1      44.204 -19.553   2.763  1.00  0.00    -0.353 OA
HETATM   25  C   UNL     1      43.366 -20.328   1.915  1.00  0.00     0.210 C 
ENDBRANCH  20  24
ENDBRANCH  16  17
ENDBRANCH   1  16
TORSDOF 5
ENDMDL
MODEL 6
REMARK VINA RESULT:      -7.5      4.063      6.922
REMARK  5 active torsions:
REMARK  status: ('A' for Active; 'I' for Inactive)
REMARK    1  A    between atoms: O_2  and  C_3 
REMARK    2  A    between atoms: C_7  and  C_8 
REMARK    3  A    between atoms: C_8  and  N_9 
REMARK       I    between atoms: N_9  and  C_10 
REMARK    4  A    between atoms: C_10  and  C_11 
REMARK    5  A    between atoms: C_13  and  C_14 
ROOT
HETATM    1  N   UNL     1      41.363 -11.822   4.374  1.00  0.00    -0.353 N 
HETATM    2  C   UNL     1      40.596 -12.931   4.645  1.00  0.00     0.251 C 
HETATM    3  O   UNL     1      39.899 -13.041   5.647  1.00  0.00    -0.268 OA
HETATM    4  H   UNL     1      41.959 -11.789   3.560  1.00  0.00     0.163 HD
ENDROOT
BRANCH   2   5
HETATM    5  C   UNL     1      40.670 -14.051   3.666  1.00  0.00     0.032 A 
HETATM    6  C   UNL     1      41.620 -15.058   3.889  1.00  0.00     0.029 A 
HETATM    7  C   UNL     1      41.732 -16.144   3.010  1.00  0.00    -0.023 A 
HETATM    8  C   UNL     1      40.872 -16.207   1.905  1.00  0.00     0.012 A 
HETATM    9  C   UNL     1      39.914 -15.213   1.687  1.00  0.00     0.002 A 
HETATM   10  C   UNL     1      39.809 -14.135   2.567  1.00  0.00     0.017 A 
BRANCH   7  11
HETATM   11  C   UNL     1      42.733 -17.172   3.250  1.00  0.00    -0.002 A 
HETATM   12  C   UNL     1      43.525 -17.249   4.379  1.00  0.00     0.153 A 
HETATM   13  O   UNL     1      44.370 -18.310   4.308  1.00  0.00    -0.334 OA
HETATM   14  C   UNL     1      44.132 -18.922   3.121  1.00  0.00     0.142 A 
HETATM   15  C   UNL     1      43.142 -18.263   2.431  1.00  0.00     0.038 A 
ENDBRANCH   7  11
ENDBRANCH   2   5
BRANCH   1  16
HETATM   16  C   UNL     1      41.340 -10.668   5.245  1.00  0.00     0.161 C 
BRANCH  16  17
HETATM   17  C   UNL     1      42.464 -10.716   6.246  1.00  0.00    -0.037 A 
HETATM   18  C   UNL     1      43.637 -11.432   5.980  1.00  0.00     0.054 A 
HETATM   19  C   UNL     1      44.683 -11.446   6.905  1.00  0.00     0.150 A 
HETATM   20  C   UNL     1      44.588 -10.751   8.112  1.00  0.00     0.106 A 
HETATM   21  F   UNL     1      45.778 -12.153   6.586  1.00  0.00    -0.203 F 
HETATM   22  C   UNL     1      43.412 -10.044   8.382  1.00  0.00     0.040 A 
HETATM   23  C   UNL     1      42.363 -10.021   7.459  1.00  0.00     0.012 A 
BRANCH  20  24
HETATM   24  O   UNL     1      45.529 -10.671   9.101  1.00  0.00    -0.353 OA
HETATM   25  C   UNL     1      45.140 -10.035  10.313  1.00  0.00     0.210 C 
ENDBRANCH  20  24
ENDBRANCH  16  17
ENDBRANCH   1  16
TORSDOF 5
ENDMDL
MODEL 7
REMARK VINA RESULT:      -7.5      4.369      8.224
REMARK  5 active torsions:
REMARK  status: ('A' for Active; 'I' for Inactive)
REMARK    1  A    between atoms: O_2  and  C_3 
REMARK    2  A    between atoms: C_7  and  C_8 
REMARK    3  A    between atoms: C_8  and  N_9 
REMARK       I    between atoms: N_9  and  C_10 
REMARK    4  A    between atoms: C_10  and  C_11 
REMARK    5  A    between atoms: C_13  and  C_14 
ROOT
HETATM    1  N   UNL     1      43.844 -15.992   6.850  1.00  0.00    -0.353 N 
HETATM    2  C   UNL     1      42.801 -15.115   6.661  1.00  0.00     0.251 C 
HETATM    3  O   UNL     1      41.623 -15.437   6.762  1.00  0.00    -0.268 OA
HETATM    4  H   UNL     1      44.800 -15.699   6.713  1.00  0.00     0.163 HD
ENDROOT
BRANCH   2   5
HETATM    5  C   UNL     1      43.160 -13.722   6.277  1.00  0.00     0.032 A 
HETATM    6  C   UNL     1      43.704 -12.887   7.263  1.00  0.00     0.029 A 
HETATM    7  C   UNL     1      44.073 -11.569   6.963  1.00  0.00    -0.023 A 
HETATM    8  C   UNL     1      43.891 -11.101   5.654  1.00  0.00     0.012 A 
HETATM    9  C   UNL     1      43.362 -11.934   4.664  1.00  0.00     0.002 A 
HETATM   10  C   UNL     1      42.998 -13.246   4.972  1.00  0.00     0.017 A 
BRANCH   7  11
HETATM   11  C   UNL     1      44.623 -10.713   8.002  1.00  0.00    -0.002 A 
HETATM   12  C   UNL     1      45.812 -10.018   7.900  1.00  0.00     0.153 A 
HETATM   13  O   UNL     1      46.063  -9.316   9.036  1.00  0.00    -0.334 OA
HETATM   14  C   UNL     1      45.035  -9.563   9.885  1.00  0.00     0.142 A 
HETATM   15  C   UNL     1      44.128 -10.417   9.304  1.00  0.00     0.038 A 
ENDBRANCH   7  11
ENDBRANCH   2   5
BRANCH   1  16
HETATM   16  C   UNL     1      43.605 -17.359   7.254  1.00  0.00     0.161 C 
BRANCH  16  17
HETATM   17  C   UNL     1      43.701 -18.300   6.082  1.00  0.00    -0.037 A 
HETATM   18  C   UNL     1      43.947 -17.820   4.790  1.00  0.00     0.054 A 
HETATM   19  C   UNL     1      44.061 -18.705   3.716  1.00  0.00     0.150 A 
HETATM   20  C   UNL     1      43.935 -20.083   3.900  1.00  0.00     0.106 A 
HETATM   21  F   UNL     1      44.296 -18.178   2.505  1.00  0.00    -0.203 F 
HETATM   22  C   UNL     1      43.679 -20.562   5.189  1.00  0.00     0.040 A 
HETATM   23  C   UNL     1      43.568 -19.682   6.270  1.00  0.00     0.012 A 
BRANCH  20  24
HETATM   24  O   UNL     1      44.028 -21.061   2.949  1.00  0.00    -0.353 OA
HETATM   25  C   UNL     1      43.576 -20.734   1.640  1.00  0.00     0.210 C 
ENDBRANCH  20  24
ENDBRANCH  16  17
ENDBRANCH   1  16
TORSDOF 5
ENDMDL
MODEL 8
REMARK VINA RESULT:      -7.4      5.398      7.877
REMARK  5 active torsions:
REMARK  status: ('A' for Active; 'I' for Inactive)
REMARK    1  A    between atoms: O_2  and  C_3 
REMARK    2  A    between atoms: C_7  and  C_8 
REMARK    3  A    between atoms: C_8  and  N_9 
REMARK       I    between atoms: N_9  and  C_10 
REMARK    4  A    between atoms: C_10  and  C_11 
REMARK    5  A    between atoms: C_13  and  C_14 
ROOT
HETATM    1  N   UNL     1      44.248 -12.556   6.392  1.00  0.00    -0.353 N 
HETATM    2  C   UNL     1      43.240 -12.703   5.467  1.00  0.00     0.251 C 
HETATM    3  O   UNL     1      42.909 -11.820   4.684  1.00  0.00    -0.268 OA
HETATM    4  H   UNL     1      44.459 -13.292   7.050  1.00  0.00     0.163 HD
ENDROOT
BRANCH   2   5
HETATM    5  C   UNL     1      42.510 -14.001   5.474  1.00  0.00     0.032 A 
HETATM    6  C   UNL     1      43.134 -15.110   4.886  1.00  0.00     0.029 A 
HETATM    7  C   UNL     1      42.505 -16.362   4.869  1.00  0.00    -0.023 A 
HETATM    8  C   UNL     1      41.238 -16.486   5.457  1.00  0.00     0.012 A 
HETATM    9  C   UNL     1      40.618 -15.386   6.057  1.00  0.00     0.002 A 
HETATM   10  C   UNL     1      41.252 -14.143   6.069  1.00  0.00     0.017 A 
BRANCH   7  11
HETATM   11  C   UNL     1      43.162 -17.498   4.242  1.00  0.00    -0.002 A 
HETATM   12  C   UNL     1      43.943 -18.420   4.909  1.00  0.00     0.153 A 
HETATM   13  O   UNL     1      44.427 -19.357   4.053  1.00  0.00    -0.334 OA
HETATM   14  C   UNL     1      43.964 -19.037   2.819  1.00  0.00     0.142 A 
HETATM   15  C   UNL     1      43.188 -17.904   2.877  1.00  0.00     0.038 A 
ENDBRANCH   7  11
ENDBRANCH   2   5
BRANCH   1  16
HETATM   16  C   UNL     1      45.038 -11.347   6.449  1.00  0.00     0.161 C 
BRANCH  16  17
HETATM   17  C   UNL     1      44.661 -10.504   7.639  1.00  0.00    -0.037 A 
HETATM   18  C   UNL     1      45.555 -10.312   8.700  1.00  0.00     0.054 A 
HETATM   19  C   UNL     1      45.205  -9.506   9.784  1.00  0.00     0.150 A 
HETATM   20  C   UNL     1      43.961  -8.872   9.839  1.00  0.00     0.106 A 
HETATM   21  F   UNL     1      46.108  -9.366  10.765  1.00  0.00    -0.203 F 
HETATM   22  C   UNL     1      43.065  -9.071   8.785  1.00  0.00     0.040 A 
HETATM   23  C   UNL     1      43.411  -9.873   7.693  1.00  0.00     0.012 A 
BRANCH  20  24
HETATM   24  O   UNL     1      43.489  -8.055  10.829  1.00  0.00    -0.353 OA
HETATM   25  C   UNL     1      43.186  -8.662  12.079  1.00  0.00     0.210 C 
ENDBRANCH  20  24
ENDBRANCH  16  17
ENDBRANCH   1  16
TORSDOF 5
ENDMDL
MODEL 9
REMARK VINA RESULT:      -7.3      2.500      8.408
REMARK  5 active torsions:
REMARK  status: ('A' for Active; 'I' for Inactive)
REMARK    1  A    between atoms: O_2  and  C_3 
REMARK    2  A    between atoms: C_7  and  C_8 
REMARK    3  A    between atoms: C_8  and  N_9 
REMARK       I    between atoms: N_9  and  C_10 
REMARK    4  A    between atoms: C_10  and  C_11 
REMARK    5  A    between atoms: C_13  and  C_14 
ROOT
HETATM    1  N   UNL     1      41.580 -14.421   2.110  1.00  0.00    -0.353 N 
HETATM    2  C   UNL     1      40.376 -13.902   1.693  1.00  0.00     0.251 C 
HETATM    3  O   UNL     1      39.441 -13.672   2.452  1.00  0.00    -0.268 OA
HETATM    4  H   UNL     1      42.309 -14.638   1.447  1.00  0.00     0.163 HD
ENDROOT
BRANCH   2   5
HETATM    5  C   UNL     1      40.224 -13.655   0.233  1.00  0.00     0.032 A 
HETATM    6  C   UNL     1      40.611 -12.403  -0.267  1.00  0.00     0.029 A 
HETATM    7  C   UNL     1      40.503 -12.112  -1.634  1.00  0.00    -0.023 A 
HETATM    8  C   UNL     1      40.005 -13.100  -2.495  1.00  0.00     0.012 A 
HETATM    9  C   UNL     1      39.633 -14.354  -2.003  1.00  0.00     0.002 A 
HETATM   10  C   UNL     1      39.744 -14.636  -0.641  1.00  0.00     0.017 A 
BRANCH   7  11
HETATM   11  C   UNL     1      40.895 -10.802  -2.131  1.00  0.00    -0.002 A 
HETATM   12  C   UNL     1      41.710  -9.917  -1.454  1.00  0.00     0.153 A 
HETATM   13  O   UNL     1      41.886  -8.775  -2.168  1.00  0.00    -0.334 OA
HETATM   14  C   UNL     1      41.173  -8.915  -3.313  1.00  0.00     0.142 A 
HETATM   15  C   UNL     1      40.543 -10.137  -3.339  1.00  0.00     0.038 A 
ENDBRANCH   7  11
ENDBRANCH   2   5
BRANCH   1  16
HETATM   16  C   UNL     1      41.840 -14.669   3.510  1.00  0.00     0.161 C 
BRANCH  16  17
HETATM   17  C   UNL     1      42.580 -15.966   3.707  1.00  0.00    -0.037 A 
HETATM   18  C   UNL     1      42.540 -16.974   2.736  1.00  0.00     0.054 A 
HETATM   19  C   UNL     1      43.252 -18.161   2.918  1.00  0.00     0.150 A 
HETATM   20  C   UNL     1      44.018 -18.373   4.066  1.00  0.00     0.106 A 
HETATM   21  F   UNL     1      43.169 -19.084   1.948  1.00  0.00    -0.203 F 
HETATM   22  C   UNL     1      44.050 -17.371   5.041  1.00  0.00     0.040 A 
HETATM   23  C   UNL     1      43.344 -16.178   4.863  1.00  0.00     0.012 A 
BRANCH  20  24
HETATM   24  O   UNL     1      44.767 -19.476   4.373  1.00  0.00    -0.353 OA
HETATM   25  C   UNL     1      44.094 -20.557   5.007  1.00  0.00     0.210 C 
ENDBRANCH  20  24
ENDBRANCH  16  17
ENDBRANCH   1  16
TORSDOF 5
ENDMDL
MODEL 10
REMARK VINA RESULT:      -7.3      2.307      7.092
REMARK  5 active torsions:
REMARK  status: ('A' for Active; 'I' for Inactive)
REMARK    1  A    between atoms: O_2  and  C_3 
REMARK    2  A    between atoms: C_7  and  C_8 
REMARK    3  A    between atoms: C_8  and  N_9 
REMARK       I    between atoms: N_9  and  C_10 
REMARK    4  A    between atoms: C_10  and  C_11 
REMARK    5  A    between atoms: C_13  and  C_14 
ROOT
HETATM    1  N   UNL     1      42.468 -14.536   4.277  1.00  0.00    -0.353 N 
HETATM    2  C   UNL     1      41.134 -14.328   4.539  1.00  0.00     0.251 C 
HETATM    3  O   UNL     1      40.540 -14.854   5.473  1.00  0.00    -0.268 OA
HETATM    4  H   UNL     1      42.910 -14.120   3.470  1.00  0.00     0.163 HD
ENDROOT
BRANCH   2   5
HETATM    5  C   UNL     1      40.397 -13.443   3.596  1.00  0.00     0.032 A 
HETATM    6  C   UNL     1      40.492 -13.718   2.224  1.00  0.00     0.029 A 
HETATM    7  C   UNL     1      39.814 -12.928   1.285  1.00  0.00    -0.023 A 
HETATM    8  C   UNL     1      39.033 -11.858   1.745  1.00  0.00     0.012 A 
HETATM    9  C   UNL     1      38.923 -11.590   3.113  1.00  0.00     0.002 A 
HETATM   10  C   UNL     1      39.602 -12.381   4.040  1.00  0.00     0.017 A 
BRANCH   7  11
HETATM   11  C   UNL     1      39.937 -13.220  -0.134  1.00  0.00    -0.002 A 
HETATM   12  C   UNL     1      39.761 -14.469  -0.697  1.00  0.00     0.153 A 
HETATM   13  O   UNL     1      39.952 -14.426  -2.042  1.00  0.00    -0.334 OA
HETATM   14  C   UNL     1      40.262 -13.143  -2.353  1.00  0.00     0.142 A 
HETATM   15  C   UNL     1      40.271 -12.363  -1.221  1.00  0.00     0.038 A 
ENDBRANCH   7  11
ENDBRANCH   2   5
BRANCH   1  16
HETATM   16  C   UNL     1      43.281 -15.355   5.148  1.00  0.00     0.161 C 
BRANCH  16  17
HETATM   17  C   UNL     1      43.470 -16.737   4.581  1.00  0.00    -0.037 A 
HETATM   18  C   UNL     1      43.876 -17.802   5.394  1.00  0.00     0.054 A 
HETATM   19  C   UNL     1      44.021 -19.084   4.862  1.00  0.00     0.150 A 
HETATM   20  C   UNL     1      43.766 -19.338   3.513  1.00  0.00     0.106 A 
HETATM   21  F   UNL     1      44.414 -20.057   5.697  1.00  0.00    -0.203 F 
HETATM   22  C   UNL     1      43.369 -18.273   2.698  1.00  0.00     0.040 A 
HETATM   23  C   UNL     1      43.217 -16.987   3.225  1.00  0.00     0.012 A 
BRANCH  20  24
HETATM   24  O   UNL     1      43.859 -20.537   2.861  1.00  0.00    -0.353 OA
HETATM   25  C   UNL     1      43.583 -20.536   1.466  1.00  0.00     0.210 C 
ENDBRANCH  20  24
ENDBRANCH  16  17
ENDBRANCH   1  16
TORSDOF 5
ENDMDL
