MODEL 1
REMARK VINA RESULT:      -8.8      0.000      0.000
REMARK  12 active torsions:
REMARK  status: ('A' for Active; 'I' for Inactive)
REMARK    1  A    between atoms: C_2  and  N_3 
REMARK    2  A    between atoms: N_3  and  C_5 
REMARK    3  A    between atoms: N_3  and  C_37 
REMARK    4  A    between atoms: C_5  and  C_6 
REMARK    5  A    between atoms: C_6  and  C_7 
REMARK    6  A    between atoms: C_7  and  N_8 
REMARK    7  A    between atoms: N_8  and  C_9 
REMARK    8  A    between atoms: C_9  and  N_10 
REMARK    9  A    between atoms: N_10  and  C_11 
REMARK   10  A    between atoms: N_10  and  C_26 
REMARK   11  A    between atoms: C_11  and  C_12 
REMARK   12  A    between atoms: C_26  and  C_27 
ROOT
HETATM    1  N   UNL     1      42.200 -15.091   5.123  1.00  0.00    -0.350 N 
ENDROOT
BRANCH   1   2
HETATM    2  C   UNL     1      42.450 -14.696   6.451  1.00  0.00     0.170 C 
HETATM    3  S   UNL     1      42.949 -15.729   7.681  1.00  0.00    -0.041 SA
BRANCH   2   4
HETATM    4  N   UNL     1      42.292 -13.336   6.672  1.00  0.00    -0.367 N 
HETATM    5  H   UNL     1      41.648 -13.086   7.414  1.00  0.00     0.161 HD
BRANCH   4   6
HETATM    6  C   UNL     1      43.234 -12.303   6.271  1.00  0.00     0.123 C 
BRANCH   6   7
HETATM    7  C   UNL     1      44.176 -11.933   7.412  1.00  0.00     0.047 C 
BRANCH   7   8
HETATM    8  C   UNL     1      43.720 -10.636   8.064  1.00  0.00     0.236 C 
BRANCH   8   9
HETATM    9  N   UNL     1      44.240 -10.467   9.484  1.00  0.00    -0.072 N 
HETATM   10  H   UNL     1      44.501 -11.413   9.791  1.00  0.00     0.279 HD
BRANCH   9  11
HETATM   11  C   UNL     1      43.199  -9.992  10.487  1.00  0.00     0.230 C 
HETATM   12  C   UNL     1      43.775  -8.963  11.444  1.00  0.00     0.034 C 
ENDBRANCH   9  11
BRANCH   9  13
HETATM   13  C   UNL     1      45.509  -9.638   9.609  1.00  0.00     0.230 C 
HETATM   14  C   UNL     1      45.783  -8.838   8.348  1.00  0.00     0.034 C 
ENDBRANCH   9  13
ENDBRANCH   8   9
ENDBRANCH   7   8
ENDBRANCH   6   7
ENDBRANCH   4   6
ENDBRANCH   2   4
ENDBRANCH   1   2
BRANCH   1  15
HETATM   15  C   UNL     1      40.853 -15.435   4.629  1.00  0.00     0.169 C 
BRANCH  15  16
HETATM   16  C   UNL     1      40.444 -14.623   3.427  1.00  0.00     0.029 A 
HETATM   17  C   UNL     1      39.962 -13.234   3.703  1.00  0.00     0.253 A 
HETATM   18  O   UNL     1      40.046 -12.728   4.821  1.00  0.00    -0.268 OA
HETATM   19  N   UNL     1      39.464 -12.513   2.652  1.00  0.00    -0.322 N 
HETATM   20  C   UNL     1      39.496 -12.958   1.325  1.00  0.00     0.048 A 
HETATM   21  H   UNL     1      39.084 -11.604   2.870  1.00  0.00     0.169 HD
HETATM   22  C   UNL     1      40.031 -14.234   1.045  1.00  0.00    -0.006 A 
HETATM   23  C   UNL     1      39.025 -12.126   0.309  1.00  0.00     0.070 A 
HETATM   24  C   UNL     1      40.100 -14.686  -0.277  1.00  0.00     0.053 A 
HETATM   25  C   UNL     1      40.487 -15.068   2.158  1.00  0.00     0.028 A 
HETATM   26  C   UNL     1      39.635 -13.843  -1.266  1.00  0.00     0.106 A 
HETATM   27  C   UNL     1      39.113 -12.601  -0.981  1.00  0.00     0.107 A 
HETATM   28  O   UNL     1      39.630 -14.110  -2.599  1.00  0.00    -0.323 OA
HETATM   29  O   UNL     1      38.722 -11.934  -2.098  1.00  0.00    -0.323 OA
HETATM   30  C   UNL     1      39.030 -12.905  -3.122  1.00  0.00     0.352 A 
ENDBRANCH  15  16
ENDBRANCH   1  15
BRANCH   1  31
HETATM   31  C   UNL     1      43.308 -15.432   4.204  1.00  0.00     0.164 C 
BRANCH  31  32
HETATM   32  C   UNL     1      43.419 -16.903   3.865  1.00  0.00    -0.037 A 
HETATM   33  C   UNL     1      43.812 -17.844   4.831  1.00  0.00     0.048 A 
HETATM   34  C   UNL     1      43.906 -19.170   4.457  1.00  0.00     0.105 A 
HETATM   35  C   UNL     1      43.642 -19.584   3.174  1.00  0.00     0.105 A 
HETATM   36  O   UNL     1      44.262 -20.199   5.270  1.00  0.00    -0.323 OA
HETATM   37  O   UNL     1      43.801 -20.924   3.016  1.00  0.00    -0.323 OA
HETATM   38  C   UNL     1      43.270 -18.696   2.192  1.00  0.00     0.040 A 
HETATM   39  C   UNL     1      44.215 -21.306   4.343  1.00  0.00     0.352 A 
HETATM   40  C   UNL     1      43.162 -17.347   2.544  1.00  0.00     0.012 A 
ENDBRANCH  31  32
ENDBRANCH   1  31
TORSDOF 12
ENDMDL
MODEL 2
REMARK VINA RESULT:      -8.6      2.744      8.057
REMARK  12 active torsions:
REMARK  status: ('A' for Active; 'I' for Inactive)
REMARK    1  A    between atoms: C_2  and  N_3 
REMARK    2  A    between atoms: N_3  and  C_5 
REMARK    3  A    between atoms: N_3  and  C_37 
REMARK    4  A    between atoms: C_5  and  C_6 
REMARK    5  A    between atoms: C_6  and  C_7 
REMARK    6  A    between atoms: C_7  and  N_8 
REMARK    7  A    between atoms: N_8  and  C_9 
REMARK    8  A    between atoms: C_9  and  N_10 
REMARK    9  A    between atoms: N_10  and  C_11 
REMARK   10  A    between atoms: N_10  and  C_26 
REMARK   11  A    between atoms: C_11  and  C_12 
REMARK   12  A    between atoms: C_26  and  C_27 
ROOT
HETATM    1  N   UNL     1      41.004 -14.535   3.743  1.00  0.00    -0.350 N 
ENDROOT
BRANCH   1   2
HETATM    2  C   UNL     1      39.959 -14.115   2.897  1.00  0.00     0.170 C 
HETATM    3  S   UNL     1      39.529 -12.510   2.630  1.00  0.00    -0.041 SA
BRANCH   2   4
HETATM    4  N   UNL     1      39.313 -15.152   2.242  1.00  0.00    -0.367 N 
HETATM    5  H   UNL     1      38.320 -15.233   2.424  1.00  0.00     0.161 HD
BRANCH   4   6
HETATM    6  C   UNL     1      39.798 -15.825   1.047  1.00  0.00     0.123 C 
BRANCH   6   7
HETATM    7  C   UNL     1      40.439 -14.840   0.074  1.00  0.00     0.047 C 
BRANCH   7   8
HETATM    8  C   UNL     1      39.485 -14.550  -1.076  1.00  0.00     0.236 C 
BRANCH   8   9
HETATM    9  N   UNL     1      39.579 -13.118  -1.582  1.00  0.00    -0.072 N 
HETATM   10  H   UNL     1      40.125 -12.614  -0.870  1.00  0.00     0.279 HD
BRANCH   9  11
HETATM   11  C   UNL     1      38.248 -12.385  -1.661  1.00  0.00     0.230 C 
HETATM   12  C   UNL     1      37.277 -13.088  -2.592  1.00  0.00     0.034 C 
ENDBRANCH   9  11
BRANCH   9  13
HETATM   13  C   UNL     1      40.353 -12.944  -2.879  1.00  0.00     0.230 C 
HETATM   14  C   UNL     1      40.872 -11.527  -3.038  1.00  0.00     0.034 C 
ENDBRANCH   9  13
ENDBRANCH   8   9
ENDBRANCH   7   8
ENDBRANCH   6   7
ENDBRANCH   4   6
ENDBRANCH   2   4
ENDBRANCH   1   2
BRANCH   1  15
HETATM   15  C   UNL     1      40.891 -14.544   5.214  1.00  0.00     0.169 C 
BRANCH  15  16
HETATM   16  C   UNL     1      41.510 -13.330   5.856  1.00  0.00     0.029 A 
HETATM   17  C   UNL     1      40.566 -12.242   6.257  1.00  0.00     0.253 A 
HETATM   18  O   UNL     1      39.346 -12.393   6.216  1.00  0.00    -0.268 OA
HETATM   19  N   UNL     1      41.104 -11.074   6.726  1.00  0.00    -0.322 N 
HETATM   20  C   UNL     1      42.471 -10.893   6.963  1.00  0.00     0.048 A 
HETATM   21  H   UNL     1      40.453 -10.329   6.929  1.00  0.00     0.169 HD
HETATM   22  C   UNL     1      43.362 -11.948   6.669  1.00  0.00    -0.006 A 
HETATM   23  C   UNL     1      42.922  -9.688   7.505  1.00  0.00     0.070 A 
HETATM   24  C   UNL     1      44.728 -11.799   6.926  1.00  0.00     0.053 A 
HETATM   25  C   UNL     1      42.828 -13.177   6.079  1.00  0.00     0.028 A 
HETATM   26  C   UNL     1      45.150 -10.603   7.469  1.00  0.00     0.106 A 
HETATM   27  C   UNL     1      44.274  -9.579   7.749  1.00  0.00     0.107 A 
HETATM   28  O   UNL     1      46.432 -10.284   7.790  1.00  0.00    -0.323 OA
HETATM   29  O   UNL     1      44.895  -8.495   8.285  1.00  0.00    -0.323 OA
HETATM   30  C   UNL     1      46.269  -8.939   8.287  1.00  0.00     0.352 A 
ENDBRANCH  15  16
ENDBRANCH   1  15
BRANCH   1  31
HETATM   31  C   UNL     1      42.370 -14.755   3.219  1.00  0.00     0.164 C 
BRANCH  31  32
HETATM   32  C   UNL     1      42.912 -16.152   3.436  1.00  0.00    -0.037 A 
HETATM   33  C   UNL     1      42.664 -17.179   2.509  1.00  0.00     0.048 A 
HETATM   34  C   UNL     1      43.174 -18.435   2.769  1.00  0.00     0.105 A 
HETATM   35  C   UNL     1      43.898 -18.706   3.905  1.00  0.00     0.105 A 
HETATM   36  O   UNL     1      43.033 -19.528   1.973  1.00  0.00    -0.323 OA
HETATM   37  O   UNL     1      44.301 -20.002   3.970  1.00  0.00    -0.323 OA
HETATM   38  C   UNL     1      44.151 -17.736   4.847  1.00  0.00     0.040 A 
HETATM   39  C   UNL     1      43.731 -20.524   2.753  1.00  0.00     0.352 A 
HETATM   40  C   UNL     1      43.649 -16.453   4.607  1.00  0.00     0.012 A 
ENDBRANCH  31  32
ENDBRANCH   1  31
TORSDOF 12
ENDMDL
MODEL 3
REMARK VINA RESULT:      -8.4      2.759      7.558
REMARK  12 active torsions:
REMARK  status: ('A' for Active; 'I' for Inactive)
REMARK    1  A    between atoms: C_2  and  N_3 
REMARK    2  A    between atoms: N_3  and  C_5 
REMARK    3  A    between atoms: N_3  and  C_37 
REMARK    4  A    between atoms: C_5  and  C_6 
REMARK    5  A    between atoms: C_6  and  C_7 
REMARK    6  A    between atoms: C_7  and  N_8 
REMARK    7  A    between atoms: N_8  and  C_9 
REMARK    8  A    between atoms: C_9  and  N_10 
REMARK    9  A    between atoms: N_10  and  C_11 
REMARK   10  A    between atoms: N_10  and  C_26 
REMARK   11  A    between atoms: C_11  and  C_12 
REMARK   12  A    between atoms: C_26  and  C_27 
ROOT
HETATM    1  N   UNL     1      41.541 -15.088   3.500  1.00  0.00    -0.350 N 
ENDROOT
BRANCH   1   2
HETATM    2  C   UNL     1      40.749 -14.632   2.428  1.00  0.00     0.170 C 
HETATM    3  S   UNL     1      40.008 -15.628   1.293  1.00  0.00    -0.041 SA
BRANCH   2   4
HETATM    4  N   UNL     1      40.583 -13.256   2.397  1.00  0.00    -0.367 N 
HETATM    5  H   UNL     1      39.829 -12.894   2.970  1.00  0.00     0.161 HD
BRANCH   4   6
HETATM    6  C   UNL     1      41.598 -12.295   1.997  1.00  0.00     0.123 C 
BRANCH   6   7
HETATM    7  C   UNL     1      41.141 -11.465   0.802  1.00  0.00     0.047 C 
BRANCH   7   8
HETATM    8  C   UNL     1      40.984 -12.357  -0.421  1.00  0.00     0.236 C 
BRANCH   8   9
HETATM    9  N   UNL     1      39.720 -12.062  -1.216  1.00  0.00    -0.072 N 
HETATM   10  H   UNL     1      40.048 -11.726  -2.132  1.00  0.00     0.279 HD
BRANCH   9  11
HETATM   11  C   UNL     1      38.868 -10.932  -0.655  1.00  0.00     0.230 C 
HETATM   12  C   UNL     1      37.401 -11.316  -0.596  1.00  0.00     0.034 C 
ENDBRANCH   9  11
BRANCH   9  13
HETATM   13  C   UNL     1      38.853 -13.275  -1.518  1.00  0.00     0.230 C 
HETATM   14  C   UNL     1      39.527 -14.214  -2.502  1.00  0.00     0.034 C 
ENDBRANCH   9  13
ENDBRANCH   8   9
ENDBRANCH   7   8
ENDBRANCH   6   7
ENDBRANCH   4   6
ENDBRANCH   2   4
ENDBRANCH   1   2
BRANCH   1  15
HETATM   15  C   UNL     1      41.124 -14.972   4.911  1.00  0.00     0.169 C 
BRANCH  15  16
HETATM   16  C   UNL     1      41.690 -13.751   5.590  1.00  0.00     0.029 A 
HETATM   17  C   UNL     1      40.700 -12.708   6.002  1.00  0.00     0.253 A 
HETATM   18  O   UNL     1      39.488 -12.904   5.940  1.00  0.00    -0.268 OA
HETATM   19  N   UNL     1      41.188 -11.533   6.506  1.00  0.00    -0.322 N 
HETATM   20  C   UNL     1      42.545 -11.307   6.766  1.00  0.00     0.048 A 
HETATM   21  H   UNL     1      40.508 -10.818   6.717  1.00  0.00     0.169 HD
HETATM   22  C   UNL     1      43.478 -12.322   6.461  1.00  0.00    -0.006 A 
HETATM   23  C   UNL     1      42.943 -10.100   7.342  1.00  0.00     0.070 A 
HETATM   24  C   UNL     1      44.834 -12.129   6.741  1.00  0.00     0.053 A 
HETATM   25  C   UNL     1      42.998 -13.555   5.835  1.00  0.00     0.028 A 
HETATM   26  C   UNL     1      45.204 -10.931   7.317  1.00  0.00     0.106 A 
HETATM   27  C   UNL     1      44.287  -9.947   7.609  1.00  0.00     0.107 A 
HETATM   28  O   UNL     1      46.469 -10.573   7.664  1.00  0.00    -0.323 OA
HETATM   29  O   UNL     1      44.860  -8.854   8.178  1.00  0.00    -0.323 OA
HETATM   30  C   UNL     1      46.250  -9.247   8.189  1.00  0.00     0.352 A 
ENDBRANCH  15  16
ENDBRANCH   1  15
BRANCH   1  31
HETATM   31  C   UNL     1      42.952 -15.483   3.295  1.00  0.00     0.164 C 
BRANCH  31  32
HETATM   32  C   UNL     1      43.207 -16.973   3.362  1.00  0.00    -0.037 A 
HETATM   33  C   UNL     1      43.606 -17.589   4.560  1.00  0.00     0.048 A 
HETATM   34  C   UNL     1      43.836 -18.951   4.552  1.00  0.00     0.105 A 
HETATM   35  C   UNL     1      43.699 -19.706   3.413  1.00  0.00     0.105 A 
HETATM   36  O   UNL     1      44.216 -19.696   5.624  1.00  0.00    -0.323 OA
HETATM   37  O   UNL     1      43.979 -21.020   3.622  1.00  0.00    -0.323 OA
HETATM   38  C   UNL     1      43.327 -19.143   2.215  1.00  0.00     0.040 A 
HETATM   39  C   UNL     1      44.327 -21.004   5.020  1.00  0.00     0.352 A 
HETATM   40  C   UNL     1      43.083 -17.766   2.194  1.00  0.00     0.012 A 
ENDBRANCH  31  32
ENDBRANCH   1  31
TORSDOF 12
ENDMDL
MODEL 4
REMARK VINA RESULT:      -8.1      3.210      6.637
REMARK  12 active torsions:
REMARK  status: ('A' for Active; 'I' for Inactive)
REMARK    1  A    between atoms: C_2  and  N_3 
REMARK    2  A    between atoms: N_3  and  C_5 
REMARK    3  A    between atoms: N_3  and  C_37 
REMARK    4  A    between atoms: C_5  and  C_6 
REMARK    5  A    between atoms: C_6  and  C_7 
REMARK    6  A    between atoms: C_7  and  N_8 
REMARK    7  A    between atoms: N_8  and  C_9 
REMARK    8  A    between atoms: C_9  and  N_10 
REMARK    9  A    between atoms: N_10  and  C_11 
REMARK   10  A    between atoms: N_10  and  C_26 
REMARK   11  A    between atoms: C_11  and  C_12 
REMARK   12  A    between atoms: C_26  and  C_27 
ROOT
HETATM    1  N   UNL     1      42.404 -14.630   4.462  1.00  0.00    -0.350 N 
ENDROOT
BRANCH   1   2
HETATM    2  C   UNL     1      41.065 -14.988   4.706  1.00  0.00     0.170 C 
HETATM    3  S   UNL     1      40.482 -15.579   6.170  1.00  0.00    -0.041 SA
BRANCH   2   4
HETATM    4  N   UNL     1      40.219 -14.772   3.629  1.00  0.00    -0.367 N 
HETATM    5  H   UNL     1      40.234 -13.835   3.242  1.00  0.00     0.161 HD
BRANCH   4   6
HETATM    6  C   UNL     1      39.674 -15.808   2.766  1.00  0.00     0.123 C 
BRANCH   6   7
HETATM    7  C   UNL     1      39.989 -15.537   1.299  1.00  0.00     0.047 C 
BRANCH   7   8
HETATM    8  C   UNL     1      40.301 -14.060   1.099  1.00  0.00     0.236 C 
BRANCH   8   9
HETATM    9  N   UNL     1      39.265 -13.343   0.245  1.00  0.00    -0.072 N 
HETATM   10  H   UNL     1      38.400 -13.890   0.350  1.00  0.00     0.279 HD
BRANCH   9  11
HETATM   11  C   UNL     1      39.563 -13.345  -1.248  1.00  0.00     0.230 C 
HETATM   12  C   UNL     1      39.137 -14.648  -1.900  1.00  0.00     0.034 C 
ENDBRANCH   9  11
BRANCH   9  13
HETATM   13  C   UNL     1      38.912 -11.938   0.709  1.00  0.00     0.230 C 
HETATM   14  C   UNL     1      39.203 -11.746   2.186  1.00  0.00     0.034 C 
ENDBRANCH   9  13
ENDBRANCH   8   9
ENDBRANCH   7   8
ENDBRANCH   6   7
ENDBRANCH   4   6
ENDBRANCH   2   4
ENDBRANCH   1   2
BRANCH   1  15
HETATM   15  C   UNL     1      43.073 -13.508   5.149  1.00  0.00     0.169 C 
BRANCH  15  16
HETATM   16  C   UNL     1      42.378 -12.189   4.928  1.00  0.00     0.029 A 
HETATM   17  C   UNL     1      42.917 -11.336   3.825  1.00  0.00     0.253 A 
HETATM   18  O   UNL     1      43.768 -11.751   3.040  1.00  0.00    -0.268 OA
HETATM   19  N   UNL     1      42.393 -10.079   3.679  1.00  0.00    -0.322 N 
HETATM   20  C   UNL     1      41.307  -9.603   4.423  1.00  0.00     0.048 A 
HETATM   21  H   UNL     1      42.816  -9.496   2.972  1.00  0.00     0.169 HD
HETATM   22  C   UNL     1      40.735 -10.438   5.408  1.00  0.00    -0.006 A 
HETATM   23  C   UNL     1      40.799  -8.331   4.159  1.00  0.00     0.070 A 
HETATM   24  C   UNL     1      39.630  -9.993   6.141  1.00  0.00     0.053 A 
HETATM   25  C   UNL     1      41.331 -11.751   5.652  1.00  0.00     0.028 A 
HETATM   26  C   UNL     1      39.139  -8.735   5.858  1.00  0.00     0.106 A 
HETATM   27  C   UNL     1      39.706  -7.928   4.897  1.00  0.00     0.107 A 
HETATM   28  O   UNL     1      38.073  -8.144   6.461  1.00  0.00    -0.323 OA
HETATM   29  O   UNL     1      39.065  -6.737   4.774  1.00  0.00    -0.323 OA
HETATM   30  C   UNL     1      38.043  -6.868   5.786  1.00  0.00     0.352 A 
ENDBRANCH  15  16
ENDBRANCH   1  15
BRANCH   1  31
HETATM   31  C   UNL     1      43.151 -15.196   3.317  1.00  0.00     0.164 C 
BRANCH  31  32
HETATM   32  C   UNL     1      43.312 -16.700   3.349  1.00  0.00    -0.037 A 
HETATM   33  C   UNL     1      43.728 -17.361   4.518  1.00  0.00     0.048 A 
HETATM   34  C   UNL     1      43.869 -18.735   4.480  1.00  0.00     0.105 A 
HETATM   35  C   UNL     1      43.630 -19.460   3.338  1.00  0.00     0.105 A 
HETATM   36  O   UNL     1      44.251 -19.520   5.522  1.00  0.00    -0.323 OA
HETATM   37  O   UNL     1      43.834 -20.792   3.515  1.00  0.00    -0.323 OA
HETATM   38  C   UNL     1      43.238 -18.853   2.168  1.00  0.00     0.040 A 
HETATM   39  C   UNL     1      44.249 -20.822   4.895  1.00  0.00     0.352 A 
HETATM   40  C   UNL     1      43.082 -17.464   2.178  1.00  0.00     0.012 A 
ENDBRANCH  31  32
ENDBRANCH   1  31
TORSDOF 12
ENDMDL
MODEL 5
REMARK VINA RESULT:      -8.1      1.976      6.739
REMARK  12 active torsions:
REMARK  status: ('A' for Active; 'I' for Inactive)
REMARK    1  A    between atoms: C_2  and  N_3 
REMARK    2  A    between atoms: N_3  and  C_5 
REMARK    3  A    between atoms: N_3  and  C_37 
REMARK    4  A    between atoms: C_5  and  C_6 
REMARK    5  A    between atoms: C_6  and  C_7 
REMARK    6  A    between atoms: C_7  and  N_8 
REMARK    7  A    between atoms: N_8  and  C_9 
REMARK    8  A    between atoms: C_9  and  N_10 
REMARK    9  A    between atoms: N_10  and  C_11 
REMARK   10  A    between atoms: N_10  and  C_26 
REMARK   11  A    between atoms: C_11  and  C_12 
REMARK   12  A    between atoms: C_26  and  C_27 
ROOT
HETATM    1  N   UNL     1      41.231 -12.341   3.272  1.00  0.00    -0.350 N 
ENDROOT
BRANCH   1   2
HETATM    2  C   UNL     1      41.044 -11.048   3.799  1.00  0.00     0.170 C 
HETATM    3  S   UNL     1      40.888  -9.650   2.876  1.00  0.00    -0.041 SA
BRANCH   2   4
HETATM    4  N   UNL     1      40.953 -11.012   5.182  1.00  0.00    -0.367 N 
HETATM    5  H   UNL     1      41.191 -11.875   5.659  1.00  0.00     0.161 HD
BRANCH   4   6
HETATM    6  C   UNL     1      40.978  -9.808   5.996  1.00  0.00     0.123 C 
BRANCH   6   7
HETATM    7  C   UNL     1      41.762 -10.022   7.287  1.00  0.00     0.047 C 
BRANCH   7   8
HETATM    8  C   UNL     1      43.253 -10.085   6.985  1.00  0.00     0.236 C 
BRANCH   8   9
HETATM    9  N   UNL     1      44.080 -10.574   8.165  1.00  0.00    -0.072 N 
HETATM   10  H   UNL     1      43.666 -11.478   8.430  1.00  0.00     0.279 HD
BRANCH   9  11
HETATM   11  C   UNL     1      43.981  -9.706   9.411  1.00  0.00     0.230 C 
HETATM   12  C   UNL     1      45.247  -9.778  10.244  1.00  0.00     0.034 C 
ENDBRANCH   9  11
BRANCH   9  13
HETATM   13  C   UNL     1      45.536 -10.876   7.848  1.00  0.00     0.230 C 
HETATM   14  C   UNL     1      45.709 -11.373   6.424  1.00  0.00     0.034 C 
ENDBRANCH   9  13
ENDBRANCH   8   9
ENDBRANCH   7   8
ENDBRANCH   6   7
ENDBRANCH   4   6
ENDBRANCH   2   4
ENDBRANCH   1   2
BRANCH   1  15
HETATM   15  C   UNL     1      42.548 -12.850   2.843  1.00  0.00     0.169 C 
BRANCH  15  16
HETATM   16  C   UNL     1      42.845 -14.228   3.376  1.00  0.00     0.029 A 
HETATM   17  C   UNL     1      43.092 -14.327   4.848  1.00  0.00     0.253 A 
HETATM   18  O   UNL     1      42.905 -13.374   5.602  1.00  0.00    -0.268 OA
HETATM   19  N   UNL     1      43.489 -15.539   5.346  1.00  0.00    -0.322 N 
HETATM   20  C   UNL     1      43.556 -16.706   4.577  1.00  0.00     0.048 A 
HETATM   21  H   UNL     1      43.714 -15.568   6.329  1.00  0.00     0.169 HD
HETATM   22  C   UNL     1      43.238 -16.639   3.203  1.00  0.00    -0.006 A 
HETATM   23  C   UNL     1      43.908 -17.911   5.186  1.00  0.00     0.070 A 
HETATM   24  C   UNL     1      43.269 -17.800   2.423  1.00  0.00     0.053 A 
HETATM   25  C   UNL     1      42.900 -15.340   2.620  1.00  0.00     0.028 A 
HETATM   26  C   UNL     1      43.612 -18.981   3.048  1.00  0.00     0.106 A 
HETATM   27  C   UNL     1      43.923 -19.035   4.388  1.00  0.00     0.107 A 
HETATM   28  O   UNL     1      43.687 -20.202   2.453  1.00  0.00    -0.323 OA
HETATM   29  O   UNL     1      44.224 -20.294   4.801  1.00  0.00    -0.323 OA
HETATM   30  C   UNL     1      44.097 -21.028   3.564  1.00  0.00     0.352 A 
ENDBRANCH  15  16
ENDBRANCH   1  15
BRANCH   1  31
HETATM   31  C   UNL     1      40.078 -13.181   2.879  1.00  0.00     0.164 C 
BRANCH  31  32
HETATM   32  C   UNL     1      39.877 -13.320   1.386  1.00  0.00    -0.037 A 
HETATM   33  C   UNL     1      39.524 -12.214   0.594  1.00  0.00     0.048 A 
HETATM   34  C   UNL     1      39.343 -12.408  -0.761  1.00  0.00     0.105 A 
HETATM   35  C   UNL     1      39.484 -13.644  -1.344  1.00  0.00     0.105 A 
HETATM   36  O   UNL     1      39.011 -11.446  -1.662  1.00  0.00    -0.323 OA
HETATM   37  O   UNL     1      39.256 -13.617  -2.684  1.00  0.00    -0.323 OA
HETATM   38  C   UNL     1      39.812 -14.756  -0.606  1.00  0.00     0.040 A 
HETATM   39  C   UNL     1      38.935 -12.225  -2.876  1.00  0.00     0.352 A 
HETATM   40  C   UNL     1      40.006 -14.588   0.768  1.00  0.00     0.012 A 
ENDBRANCH  31  32
ENDBRANCH   1  31
TORSDOF 12
ENDMDL
MODEL 6
REMARK VINA RESULT:      -8.1      1.956      2.658
REMARK  12 active torsions:
REMARK  status: ('A' for Active; 'I' for Inactive)
REMARK    1  A    between atoms: C_2  and  N_3 
REMARK    2  A    between atoms: N_3  and  C_5 
REMARK    3  A    between atoms: N_3  and  C_37 
REMARK    4  A    between atoms: C_5  and  C_6 
REMARK    5  A    between atoms: C_6  and  C_7 
REMARK    6  A    between atoms: C_7  and  N_8 
REMARK    7  A    between atoms: N_8  and  C_9 
REMARK    8  A    between atoms: C_9  and  N_10 
REMARK    9  A    between atoms: N_10  and  C_11 
REMARK   10  A    between atoms: N_10  and  C_26 
REMARK   11  A    between atoms: C_11  and  C_12 
REMARK   12  A    between atoms: C_26  and  C_27 
ROOT
HETATM    1  N   UNL     1      41.874 -14.373   3.823  1.00  0.00    -0.350 N 
ENDROOT
BRANCH   1   2
HETATM    2  C   UNL     1      41.865 -13.871   5.139  1.00  0.00     0.170 C 
HETATM    3  S   UNL     1      40.482 -13.641   6.069  1.00  0.00    -0.041 SA
BRANCH   2   4
HETATM    4  N   UNL     1      43.128 -13.611   5.650  1.00  0.00    -0.367 N 
HETATM    5  H   UNL     1      43.762 -14.401   5.671  1.00  0.00     0.161 HD
BRANCH   4   6
HETATM    6  C   UNL     1      43.744 -12.297   5.742  1.00  0.00     0.123 C 
BRANCH   6   7
HETATM    7  C   UNL     1      43.975 -11.888   7.193  1.00  0.00     0.047 C 
BRANCH   7   8
HETATM    8  C   UNL     1      43.369 -10.516   7.450  1.00  0.00     0.236 C 
BRANCH   8   9
HETATM    9  N   UNL     1      43.958  -9.822   8.670  1.00  0.00    -0.072 N 
HETATM   10  H   UNL     1      43.913  -8.816   8.458  1.00  0.00     0.279 HD
BRANCH   9  11
HETATM   11  C   UNL     1      45.431 -10.116   8.915  1.00  0.00     0.230 C 
HETATM   12  C   UNL     1      46.325  -9.253   8.043  1.00  0.00     0.034 C 
ENDBRANCH   9  11
BRANCH   9  13
HETATM   13  C   UNL     1      43.165  -9.999   9.955  1.00  0.00     0.230 C 
HETATM   14  C   UNL     1      44.052 -10.436  11.106  1.00  0.00     0.034 C 
ENDBRANCH   9  13
ENDBRANCH   8   9
ENDBRANCH   7   8
ENDBRANCH   6   7
ENDBRANCH   4   6
ENDBRANCH   2   4
ENDBRANCH   1   2
BRANCH   1  15
HETATM   15  C   UNL     1      40.640 -14.654   3.064  1.00  0.00     0.169 C 
BRANCH  15  16
HETATM   16  C   UNL     1      40.606 -13.963   1.725  1.00  0.00     0.029 A 
HETATM   17  C   UNL     1      40.232 -14.814   0.554  1.00  0.00     0.253 A 
HETATM   18  O   UNL     1      39.820 -15.965   0.693  1.00  0.00    -0.268 OA
HETATM   19  N   UNL     1      40.314 -14.252  -0.692  1.00  0.00    -0.322 N 
HETATM   20  C   UNL     1      40.607 -12.902  -0.913  1.00  0.00     0.048 A 
HETATM   21  H   UNL     1      40.121 -14.861  -1.473  1.00  0.00     0.169 HD
HETATM   22  C   UNL     1      40.875 -12.069   0.196  1.00  0.00    -0.006 A 
HETATM   23  C   UNL     1      40.604 -12.402  -2.216  1.00  0.00     0.070 A 
HETATM   24  C   UNL     1      41.141 -10.711  -0.001  1.00  0.00     0.053 A 
HETATM   25  C   UNL     1      40.887 -12.661   1.534  1.00  0.00     0.028 A 
HETATM   26  C   UNL     1      41.125 -10.237  -1.296  1.00  0.00     0.106 A 
HETATM   27  C   UNL     1      40.865 -11.057  -2.371  1.00  0.00     0.107 A 
HETATM   28  O   UNL     1      41.352  -8.951  -1.675  1.00  0.00    -0.323 OA
HETATM   29  O   UNL     1      40.890 -10.388  -3.553  1.00  0.00    -0.323 OA
HETATM   30  C   UNL     1      41.224  -9.055  -3.108  1.00  0.00     0.352 A 
ENDBRANCH  15  16
ENDBRANCH   1  15
BRANCH   1  31
HETATM   31  C   UNL     1      43.117 -14.888   3.209  1.00  0.00     0.164 C 
BRANCH  31  32
HETATM   32  C   UNL     1      43.285 -16.390   3.289  1.00  0.00    -0.037 A 
HETATM   33  C   UNL     1      43.650 -17.017   4.492  1.00  0.00     0.048 A 
HETATM   34  C   UNL     1      43.801 -18.390   4.498  1.00  0.00     0.105 A 
HETATM   35  C   UNL     1      43.619 -19.146   3.366  1.00  0.00     0.105 A 
HETATM   36  O   UNL     1      44.139 -19.146   5.576  1.00  0.00    -0.323 OA
HETATM   37  O   UNL     1      43.822 -20.472   3.586  1.00  0.00    -0.323 OA
HETATM   38  C   UNL     1      43.277 -18.574   2.163  1.00  0.00     0.040 A 
HETATM   39  C   UNL     1      44.173 -20.463   4.984  1.00  0.00     0.352 A 
HETATM   40  C   UNL     1      43.114 -17.185   2.129  1.00  0.00     0.012 A 
ENDBRANCH  31  32
ENDBRANCH   1  31
TORSDOF 12
ENDMDL
MODEL 7
REMARK VINA RESULT:      -7.9      2.999      8.750
REMARK  12 active torsions:
REMARK  status: ('A' for Active; 'I' for Inactive)
REMARK    1  A    between atoms: C_2  and  N_3 
REMARK    2  A    between atoms: N_3  and  C_5 
REMARK    3  A    between atoms: N_3  and  C_37 
REMARK    4  A    between atoms: C_5  and  C_6 
REMARK    5  A    between atoms: C_6  and  C_7 
REMARK    6  A    between atoms: C_7  and  N_8 
REMARK    7  A    between atoms: N_8  and  C_9 
REMARK    8  A    between atoms: C_9  and  N_10 
REMARK    9  A    between atoms: N_10  and  C_11 
REMARK   10  A    between atoms: N_10  and  C_26 
REMARK   11  A    between atoms: C_11  and  C_12 
REMARK   12  A    between atoms: C_26  and  C_27 
ROOT
HETATM    1  N   UNL     1      42.752 -11.906   4.324  1.00  0.00    -0.350 N 
ENDROOT
BRANCH   1   2
HETATM    2  C   UNL     1      42.082 -11.221   3.292  1.00  0.00     0.170 C 
HETATM    3  S   UNL     1      41.176  -9.819   3.503  1.00  0.00    -0.041 SA
BRANCH   2   4
HETATM    4  N   UNL     1      42.263 -11.779   2.036  1.00  0.00    -0.367 N 
HETATM    5  H   UNL     1      43.170 -12.201   1.871  1.00  0.00     0.161 HD
BRANCH   4   6
HETATM    6  C   UNL     1      41.196 -12.190   1.136  1.00  0.00     0.123 C 
BRANCH   6   7
HETATM    7  C   UNL     1      41.183 -13.703   0.940  1.00  0.00     0.047 C 
BRANCH   7   8
HETATM    8  C   UNL     1      40.025 -14.100   0.035  1.00  0.00     0.236 C 
BRANCH   8   9
HETATM    9  N   UNL     1      39.769 -13.097  -1.080  1.00  0.00    -0.072 N 
HETATM   10  H   UNL     1      40.243 -12.233  -0.783  1.00  0.00     0.279 HD
BRANCH   9  11
HETATM   11  C   UNL     1      38.309 -12.711  -1.263  1.00  0.00     0.230 C 
HETATM   12  C   UNL     1      37.948 -11.486  -0.443  1.00  0.00     0.034 C 
ENDBRANCH   9  11
BRANCH   9  13
HETATM   13  C   UNL     1      40.391 -13.455  -2.421  1.00  0.00     0.230 C 
HETATM   14  C   UNL     1      41.052 -12.254  -3.072  1.00  0.00     0.034 C 
ENDBRANCH   9  13
ENDBRANCH   8   9
ENDBRANCH   7   8
ENDBRANCH   6   7
ENDBRANCH   4   6
ENDBRANCH   2   4
ENDBRANCH   1   2
BRANCH   1  15
HETATM   15  C   UNL     1      42.064 -12.809   5.266  1.00  0.00     0.169 C 
BRANCH  15  16
HETATM   16  C   UNL     1      42.521 -14.240   5.146  1.00  0.00     0.029 A 
HETATM   17  C   UNL     1      43.202 -14.818   6.345  1.00  0.00     0.253 A 
HETATM   18  O   UNL     1      43.243 -14.220   7.419  1.00  0.00    -0.268 OA
HETATM   19  N   UNL     1      43.741 -16.070   6.228  1.00  0.00    -0.322 N 
HETATM   20  C   UNL     1      43.583 -16.877   5.096  1.00  0.00     0.048 A 
HETATM   21  H   UNL     1      44.253 -16.416   7.027  1.00  0.00     0.169 HD
HETATM   22  C   UNL     1      42.864 -16.372   3.990  1.00  0.00    -0.006 A 
HETATM   23  C   UNL     1      44.114 -18.168   5.092  1.00  0.00     0.070 A 
HETATM   24  C   UNL     1      42.669 -17.173   2.861  1.00  0.00     0.053 A 
HETATM   25  C   UNL     1      42.355 -15.001   4.049  1.00  0.00     0.028 A 
HETATM   26  C   UNL     1      43.196 -18.448   2.882  1.00  0.00     0.106 A 
HETATM   27  C   UNL     1      43.897 -18.930   3.964  1.00  0.00     0.107 A 
HETATM   28  O   UNL     1      43.098 -19.364   1.882  1.00  0.00    -0.323 OA
HETATM   29  O   UNL     1      44.320 -20.209   3.781  1.00  0.00    -0.323 OA
HETATM   30  C   UNL     1      43.831 -20.472   2.447  1.00  0.00     0.352 A 
ENDBRANCH  15  16
ENDBRANCH   1  15
BRANCH   1  31
HETATM   31  C   UNL     1      44.146 -11.568   4.686  1.00  0.00     0.164 C 
BRANCH  31  32
HETATM   32  C   UNL     1      44.333 -11.105   6.114  1.00  0.00    -0.037 A 
HETATM   33  C   UNL     1      43.302 -10.443   6.804  1.00  0.00     0.048 A 
HETATM   34  C   UNL     1      43.539 -10.032   8.101  1.00  0.00     0.105 A 
HETATM   35  C   UNL     1      44.746 -10.241   8.722  1.00  0.00     0.105 A 
HETATM   36  O   UNL     1      42.648  -9.391   8.904  1.00  0.00    -0.323 OA
HETATM   37  O   UNL     1      44.770  -9.755   9.991  1.00  0.00    -0.323 OA
HETATM   38  C   UNL     1      45.787 -10.869   8.080  1.00  0.00     0.040 A 
HETATM   39  C   UNL     1      43.445  -9.198  10.093  1.00  0.00     0.352 A 
HETATM   40  C   UNL     1      45.575 -11.299   6.767  1.00  0.00     0.012 A 
ENDBRANCH  31  32
ENDBRANCH   1  31
TORSDOF 12
ENDMDL
MODEL 8
REMARK VINA RESULT:      -7.7      1.727      2.468
REMARK  12 active torsions:
REMARK  status: ('A' for Active; 'I' for Inactive)
REMARK    1  A    between atoms: C_2  and  N_3 
REMARK    2  A    between atoms: N_3  and  C_5 
REMARK    3  A    between atoms: N_3  and  C_37 
REMARK    4  A    between atoms: C_5  and  C_6 
REMARK    5  A    between atoms: C_6  and  C_7 
REMARK    6  A    between atoms: C_7  and  N_8 
REMARK    7  A    between atoms: N_8  and  C_9 
REMARK    8  A    between atoms: C_9  and  N_10 
REMARK    9  A    between atoms: N_10  and  C_11 
REMARK   10  A    between atoms: N_10  and  C_26 
REMARK   11  A    between atoms: C_11  and  C_12 
REMARK   12  A    between atoms: C_26  and  C_27 
ROOT
HETATM    1  N   UNL     1      41.602 -13.314   5.005  1.00  0.00    -0.350 N 
ENDROOT
BRANCH   1   2
HETATM    2  C   UNL     1      42.602 -12.432   4.553  1.00  0.00     0.170 C 
HETATM    3  S   UNL     1      43.439 -12.593   3.103  1.00  0.00    -0.041 SA
BRANCH   2   4
HETATM    4  N   UNL     1      42.828 -11.357   5.399  1.00  0.00    -0.367 N 
HETATM    5  H   UNL     1      41.997 -10.885   5.738  1.00  0.00     0.161 HD
BRANCH   4   6
HETATM    6  C   UNL     1      44.046 -11.125   6.159  1.00  0.00     0.123 C 
BRANCH   6   7
HETATM    7  C   UNL     1      44.049 -11.914   7.464  1.00  0.00     0.047 C 
BRANCH   7   8
HETATM    8  C   UNL     1      44.222 -10.968   8.644  1.00  0.00     0.236 C 
BRANCH   8   9
HETATM    9  N   UNL     1      43.874  -9.526   8.307  1.00  0.00    -0.072 N 
HETATM   10  H   UNL     1      43.728  -9.512   7.289  1.00  0.00     0.279 HD
BRANCH   9  11
HETATM   11  C   UNL     1      44.993  -8.527   8.566  1.00  0.00     0.230 C 
HETATM   12  C   UNL     1      46.343  -9.082   8.152  1.00  0.00     0.034 C 
ENDBRANCH   9  11
BRANCH   9  13
HETATM   13  C   UNL     1      42.570  -9.023   8.908  1.00  0.00     0.230 C 
HETATM   14  C   UNL     1      41.455  -8.989   7.878  1.00  0.00     0.034 C 
ENDBRANCH   9  13
ENDBRANCH   8   9
ENDBRANCH   7   8
ENDBRANCH   6   7
ENDBRANCH   4   6
ENDBRANCH   2   4
ENDBRANCH   1   2
BRANCH   1  15
HETATM   15  C   UNL     1      40.160 -13.050   4.830  1.00  0.00     0.169 C 
BRANCH  15  16
HETATM   16  C   UNL     1      39.777 -12.824   3.391  1.00  0.00     0.029 A 
HETATM   17  C   UNL     1      39.143 -11.507   3.076  1.00  0.00     0.253 A 
HETATM   18  O   UNL     1      39.087 -10.600   3.905  1.00  0.00    -0.268 OA
HETATM   19  N   UNL     1      38.668 -11.317   1.807  1.00  0.00    -0.322 N 
HETATM   20  C   UNL     1      38.851 -12.235   0.767  1.00  0.00     0.048 A 
HETATM   21  H   UNL     1      38.186 -10.447   1.633  1.00  0.00     0.169 HD
HETATM   22  C   UNL     1      39.527 -13.446   1.035  1.00  0.00    -0.006 A 
HETATM   23  C   UNL     1      38.388 -11.927  -0.513  1.00  0.00     0.070 A 
HETATM   24  C   UNL     1      39.747 -14.364   0.003  1.00  0.00     0.053 A 
HETATM   25  C   UNL     1      39.966 -13.719   2.404  1.00  0.00     0.028 A 
HETATM   26  C   UNL     1      39.287 -14.035  -1.255  1.00  0.00     0.106 A 
HETATM   27  C   UNL     1      38.627 -12.853  -1.505  1.00  0.00     0.107 A 
HETATM   28  O   UNL     1      39.418 -14.798  -2.373  1.00  0.00    -0.323 OA
HETATM   29  O   UNL     1      38.268 -12.724  -2.810  1.00  0.00    -0.323 OA
HETATM   30  C   UNL     1      38.751 -13.973  -3.352  1.00  0.00     0.352 A 
ENDBRANCH  15  16
ENDBRANCH   1  15
BRANCH   1  31
HETATM   31  C   UNL     1      41.926 -14.440   5.908  1.00  0.00     0.164 C 
BRANCH  31  32
HETATM   32  C   UNL     1      42.595 -15.618   5.234  1.00  0.00    -0.037 A 
HETATM   33  C   UNL     1      42.061 -16.185   4.064  1.00  0.00     0.048 A 
HETATM   34  C   UNL     1      42.710 -17.267   3.504  1.00  0.00     0.105 A 
HETATM   35  C   UNL     1      43.844 -17.806   4.063  1.00  0.00     0.105 A 
HETATM   36  O   UNL     1      42.330 -17.921   2.373  1.00  0.00    -0.323 OA
HETATM   37  O   UNL     1      44.318 -18.867   3.359  1.00  0.00    -0.323 OA
HETATM   38  C   UNL     1      44.391 -17.294   5.216  1.00  0.00     0.040 A 
HETATM   39  C   UNL     1      43.343 -18.949   2.301  1.00  0.00     0.352 A 
HETATM   40  C   UNL     1      43.757 -16.195   5.803  1.00  0.00     0.012 A 
ENDBRANCH  31  32
ENDBRANCH   1  31
TORSDOF 12
ENDMDL
MODEL 9
REMARK VINA RESULT:      -7.6      2.463      8.739
REMARK  12 active torsions:
REMARK  status: ('A' for Active; 'I' for Inactive)
REMARK    1  A    between atoms: C_2  and  N_3 
REMARK    2  A    between atoms: N_3  and  C_5 
REMARK    3  A    between atoms: N_3  and  C_37 
REMARK    4  A    between atoms: C_5  and  C_6 
REMARK    5  A    between atoms: C_6  and  C_7 
REMARK    6  A    between atoms: C_7  and  N_8 
REMARK    7  A    between atoms: N_8  and  C_9 
REMARK    8  A    between atoms: C_9  and  N_10 
REMARK    9  A    between atoms: N_10  and  C_11 
REMARK   10  A    between atoms: N_10  and  C_26 
REMARK   11  A    between atoms: C_11  and  C_12 
REMARK   12  A    between atoms: C_26  and  C_27 
ROOT
HETATM    1  N   UNL     1      42.043 -12.793   4.798  1.00  0.00    -0.350 N 
ENDROOT
BRANCH   1   2
HETATM    2  C   UNL     1      40.679 -12.500   4.602  1.00  0.00     0.170 C 
HETATM    3  S   UNL     1      39.490 -12.639   5.784  1.00  0.00    -0.041 SA
BRANCH   2   4
HETATM    4  N   UNL     1      40.381 -12.031   3.332  1.00  0.00    -0.367 N 
HETATM    5  H   UNL     1      41.179 -11.768   2.765  1.00  0.00     0.161 HD
BRANCH   4   6
HETATM    6  C   UNL     1      39.142 -12.280   2.612  1.00  0.00     0.123 C 
BRANCH   6   7
HETATM    7  C   UNL     1      39.026 -11.394   1.376  1.00  0.00     0.047 C 
BRANCH   7   8
HETATM    8  C   UNL     1      39.899 -11.946   0.257  1.00  0.00     0.236 C 
BRANCH   8   9
HETATM    9  N   UNL     1      39.217 -11.912  -1.103  1.00  0.00    -0.072 N 
HETATM   10  H   UNL     1      38.451 -11.232  -1.005  1.00  0.00     0.279 HD
BRANCH   9  11
HETATM   11  C   UNL     1      38.547 -13.216  -1.508  1.00  0.00     0.230 C 
HETATM   12  C   UNL     1      39.452 -14.409  -1.261  1.00  0.00     0.034 C 
ENDBRANCH   9  11
BRANCH   9  13
HETATM   13  C   UNL     1      40.078 -11.386  -2.240  1.00  0.00     0.230 C 
HETATM   14  C   UNL     1      41.202 -10.502  -1.731  1.00  0.00     0.034 C 
ENDBRANCH   9  13
ENDBRANCH   8   9
ENDBRANCH   7   8
ENDBRANCH   6   7
ENDBRANCH   4   6
ENDBRANCH   2   4
ENDBRANCH   1   2
BRANCH   1  15
HETATM   15  C   UNL     1      42.969 -13.078   3.685  1.00  0.00     0.169 C 
BRANCH  15  16
HETATM   16  C   UNL     1      43.073 -14.549   3.372  1.00  0.00     0.029 A 
HETATM   17  C   UNL     1      42.638 -14.963   2.003  1.00  0.00     0.253 A 
HETATM   18  O   UNL     1      42.366 -14.139   1.131  1.00  0.00    -0.268 OA
HETATM   19  N   UNL     1      42.599 -16.303   1.727  1.00  0.00    -0.322 N 
HETATM   20  C   UNL     1      43.058 -17.288   2.609  1.00  0.00     0.048 A 
HETATM   21  H   UNL     1      42.241 -16.565   0.820  1.00  0.00     0.169 HD
HETATM   22  C   UNL     1      43.554 -16.897   3.872  1.00  0.00    -0.006 A 
HETATM   23  C   UNL     1      43.040 -18.627   2.215  1.00  0.00     0.070 A 
HETATM   24  C   UNL     1      44.045 -17.863   4.757  1.00  0.00     0.053 A 
HETATM   25  C   UNL     1      43.522 -15.480   4.233  1.00  0.00     0.028 A 
HETATM   26  C   UNL     1      44.025 -19.179   4.343  1.00  0.00     0.106 A 
HETATM   27  C   UNL     1      43.537 -19.550   3.110  1.00  0.00     0.107 A 
HETATM   28  O   UNL     1      44.465 -20.245   5.063  1.00  0.00    -0.323 OA
HETATM   29  O   UNL     1      43.616 -20.890   2.902  1.00  0.00    -0.323 OA
HETATM   30  C   UNL     1      44.185 -21.330   4.155  1.00  0.00     0.352 A 
ENDBRANCH  15  16
ENDBRANCH   1  15
BRANCH   1  31
HETATM   31  C   UNL     1      42.577 -13.084   6.147  1.00  0.00     0.164 C 
BRANCH  31  32
HETATM   32  C   UNL     1      43.493 -12.018   6.706  1.00  0.00    -0.037 A 
HETATM   33  C   UNL     1      42.977 -10.845   7.283  1.00  0.00     0.048 A 
HETATM   34  C   UNL     1      43.866  -9.903   7.764  1.00  0.00     0.105 A 
HETATM   35  C   UNL     1      45.226 -10.077   7.680  1.00  0.00     0.105 A 
HETATM   36  O   UNL     1      43.530  -8.727   8.356  1.00  0.00    -0.323 OA
HETATM   37  O   UNL     1      45.918  -9.032   8.205  1.00  0.00    -0.323 OA
HETATM   38  C   UNL     1      45.775 -11.201   7.108  1.00  0.00     0.040 A 
HETATM   39  C   UNL     1      44.837  -8.169   8.612  1.00  0.00     0.352 A 
HETATM   40  C   UNL     1      44.899 -12.173   6.617  1.00  0.00     0.012 A 
ENDBRANCH  31  32
ENDBRANCH   1  31
TORSDOF 12
ENDMDL
MODEL 10
REMARK VINA RESULT:      -7.6      8.467     14.177
REMARK  12 active torsions:
REMARK  status: ('A' for Active; 'I' for Inactive)
REMARK    1  A    between atoms: C_2  and  N_3 
REMARK    2  A    between atoms: N_3  and  C_5 
REMARK    3  A    between atoms: N_3  and  C_37 
REMARK    4  A    between atoms: C_5  and  C_6 
REMARK    5  A    between atoms: C_6  and  C_7 
REMARK    6  A    between atoms: C_7  and  N_8 
REMARK    7  A    between atoms: N_8  and  C_9 
REMARK    8  A    between atoms: C_9  and  N_10 
REMARK    9  A    between atoms: N_10  and  C_11 
REMARK   10  A    between atoms: N_10  and  C_26 
REMARK   11  A    between atoms: C_11  and  C_12 
REMARK   12  A    between atoms: C_26  and  C_27 
ROOT
HETATM    1  N   UNL     1      41.106  -6.666  15.734  1.00  0.00    -0.350 N 
ENDROOT
BRANCH   1   2
HETATM    2  C   UNL     1      39.932  -6.021  15.301  1.00  0.00     0.170 C 
HETATM    3  S   UNL     1      39.429  -4.499  15.813  1.00  0.00    -0.041 SA
BRANCH   2   4
HETATM    4  N   UNL     1      39.213  -6.736  14.355  1.00  0.00    -0.367 N 
HETATM    5  H   UNL     1      39.364  -7.739  14.358  1.00  0.00     0.161 HD
BRANCH   4   6
HETATM    6  C   UNL     1      38.003  -6.276  13.693  1.00  0.00     0.123 C 
BRANCH   6   7
HETATM    7  C   UNL     1      37.768  -7.017  12.380  1.00  0.00     0.047 C 
BRANCH   7   8
HETATM    8  C   UNL     1      39.096  -7.486  11.803  1.00  0.00     0.236 C 
BRANCH   8   9
HETATM    9  N   UNL     1      38.996  -8.827  11.091  1.00  0.00    -0.072 N 
HETATM   10  H   UNL     1      38.061  -9.188  11.323  1.00  0.00     0.279 HD
BRANCH   9  11
HETATM   11  C   UNL     1      39.970  -9.884  11.591  1.00  0.00     0.230 C 
HETATM   12  C   UNL     1      39.668 -10.290  13.022  1.00  0.00     0.034 C 
ENDBRANCH   9  11
BRANCH   9  13
HETATM   13  C   UNL     1      39.034  -8.752   9.573  1.00  0.00     0.230 C 
HETATM   14  C   UNL     1      39.197  -7.324   9.085  1.00  0.00     0.034 C 
ENDBRANCH   9  13
ENDBRANCH   8   9
ENDBRANCH   7   8
ENDBRANCH   6   7
ENDBRANCH   4   6
ENDBRANCH   2   4
ENDBRANCH   1   2
BRANCH   1  15
HETATM   15  C   UNL     1      42.444  -6.336  15.207  1.00  0.00     0.169 C 
BRANCH  15  16
HETATM   16  C   UNL     1      42.640  -6.785  13.782  1.00  0.00     0.029 A 
HETATM   17  C   UNL     1      42.334  -5.774  12.724  1.00  0.00     0.253 A 
HETATM   18  O   UNL     1      42.095  -4.599  12.999  1.00  0.00    -0.268 OA
HETATM   19  N   UNL     1      42.379  -6.186  11.419  1.00  0.00    -0.322 N 
HETATM   20  C   UNL     1      42.811  -7.457  11.024  1.00  0.00     0.048 A 
HETATM   21  H   UNL     1      42.106  -5.507  10.724  1.00  0.00     0.169 HD
HETATM   22  C   UNL     1      43.186  -8.391  12.015  1.00  0.00    -0.006 A 
HETATM   23  C   UNL     1      42.886  -7.767   9.666  1.00  0.00     0.070 A 
HETATM   24  C   UNL     1      43.649  -9.656  11.641  1.00  0.00     0.053 A 
HETATM   25  C   UNL     1      43.061  -8.012  13.423  1.00  0.00     0.028 A 
HETATM   26  C   UNL     1      43.722  -9.937  10.292  1.00  0.00     0.106 A 
HETATM   27  C   UNL     1      43.351  -9.021   9.334  1.00  0.00     0.107 A 
HETATM   28  O   UNL     1      44.152 -11.106   9.747  1.00  0.00    -0.323 OA
HETATM   29  O   UNL     1      43.508  -9.497   8.071  1.00  0.00    -0.323 OA
HETATM   30  C   UNL     1      43.995 -10.831   8.339  1.00  0.00     0.352 A 
ENDBRANCH  15  16
ENDBRANCH   1  15
BRANCH   1  31
HETATM   31  C   UNL     1      41.045  -7.892  16.561  1.00  0.00     0.164 C 
BRANCH  31  32
HETATM   32  C   UNL     1      40.887  -7.645  18.045  1.00  0.00    -0.037 A 
HETATM   33  C   UNL     1      39.844  -8.242  18.774  1.00  0.00     0.048 A 
HETATM   34  C   UNL     1      39.745  -7.967  20.124  1.00  0.00     0.105 A 
HETATM   35  C   UNL     1      40.622  -7.124  20.761  1.00  0.00     0.105 A 
HETATM   36  O   UNL     1      38.804  -8.469  20.967  1.00  0.00    -0.323 OA
HETATM   37  O   UNL     1      40.344  -6.985  22.084  1.00  0.00    -0.323 OA
HETATM   38  C   UNL     1      41.648  -6.506  20.084  1.00  0.00     0.040 A 
HETATM   39  C   UNL     1      39.177  -7.823  22.205  1.00  0.00     0.352 A 
HETATM   40  C   UNL     1      41.774  -6.769  18.717  1.00  0.00     0.012 A 
ENDBRANCH  31  32
ENDBRANCH   1  31
TORSDOF 12
ENDMDL
