MODEL 1
REMARK VINA RESULT:      -9.3      0.000      0.000
REMARK  6 active torsions:
REMARK  status: ('A' for Active; 'I' for Inactive)
REMARK    1  A    between atoms: N_7  and  C_8 
REMARK    2  A    between atoms: C_8  and  C_9 
REMARK    3  A    between atoms: C_9  and  N_10 
REMARK    4  A    between atoms: C_17  and  C_18 
REMARK    5  A    between atoms: C_18  and  N_19 
REMARK       I    between atoms: N_19  and  C_20 
REMARK    6  A    between atoms: C_20  and  C_21 
ROOT
HETATM    1  C   UNL     1      43.827 -20.295   2.986  1.00  0.00     0.001 A 
HETATM    2  C   UNL     1      43.579 -19.009   2.498  1.00  0.00     0.014 A 
HETATM    3  C   UNL     1      43.519 -17.926   3.383  1.00  0.00     0.008 A 
HETATM    4  C   UNL     1      43.717 -18.139   4.747  1.00  0.00     0.046 A 
HETATM    5  C   UNL     1      43.680 -16.995   5.677  1.00  0.00     0.274 A 
HETATM    6  O   UNL     1      43.921 -17.153   6.871  1.00  0.00    -0.266 OA
HETATM    7  N   UNL     1      43.370 -15.756   5.125  1.00  0.00    -0.232 N 
HETATM    8  N   UNL     1      43.187 -15.541   3.791  1.00  0.00    -0.172 NA
HETATM    9  C   UNL     1      43.255 -16.534   2.955  1.00  0.00     0.084 A 
HETATM   10  C   UNL     1      43.967 -19.429   5.233  1.00  0.00     0.018 A 
HETATM   11  C   UNL     1      44.018 -20.506   4.350  1.00  0.00     0.001 A 
ENDROOT
BRANCH   9  12
HETATM   12  C   UNL     1      43.075 -16.203   1.475  1.00  0.00     0.185 C 
BRANCH  12  13
HETATM   13  N   UNL     1      42.196 -15.060   1.329  1.00  0.00    -0.351 N 
HETATM   14  C   UNL     1      40.828 -15.196   1.245  1.00  0.00     0.253 C 
HETATM   15  O   UNL     1      40.260 -16.272   1.410  1.00  0.00    -0.268 OA
HETATM   16  H   UNL     1      42.612 -14.155   1.138  1.00  0.00     0.163 HD
BRANCH  14  17
HETATM   17  C   UNL     1      40.020 -13.964   0.995  1.00  0.00     0.055 A 
HETATM   18  C   UNL     1      39.511 -13.107   1.985  1.00  0.00     0.049 A 
HETATM   19 CL   UNL     1      39.774 -13.327   3.680  1.00  0.00    -0.083 Cl
HETATM   20  C   UNL     1      38.764 -11.976   1.620  1.00  0.00     0.026 A 
HETATM   21  C   UNL     1      38.525 -11.687   0.275  1.00  0.00     0.021 A 
HETATM   22  C   UNL     1      39.038 -12.527  -0.707  1.00  0.00     0.012 A 
HETATM   23 BR   UNL     1      38.727 -12.140  -2.530  1.00  0.00    -0.051 Br
HETATM   24  C   UNL     1      39.781 -13.654  -0.357  1.00  0.00     0.038 A 
ENDBRANCH  14  17
ENDBRANCH  12  13
ENDBRANCH   9  12
BRANCH   7  25
HETATM   25  C   UNL     1      43.473 -14.567   5.961  1.00  0.00     0.182 C 
BRANCH  25  26
HETATM   26  C   UNL     1      42.832 -13.324   5.334  1.00  0.00     0.256 C 
BRANCH  26  27
HETATM   27  N   UNL     1      43.309 -12.044   6.000  1.00  0.00    -0.070 N 
HETATM   28  H   UNL     1      42.503 -11.411   6.081  1.00  0.00     0.279 HD
HETATM   29  C   UNL     1      44.370 -11.322   5.184  1.00  0.00     0.235 C 
HETATM   30  C   UNL     1      45.631 -11.431   6.015  1.00  0.00     0.029 C 
HETATM   31  C   UNL     1      45.111 -11.368   7.435  1.00  0.00     0.029 C 
HETATM   32  C   UNL     1      43.890 -12.266   7.388  1.00  0.00     0.235 C 
ENDBRANCH  26  27
ENDBRANCH  25  26
ENDBRANCH   7  25
TORSDOF 6
ENDMDL
MODEL 2
REMARK VINA RESULT:      -9.1      1.662      1.928
REMARK  6 active torsions:
REMARK  status: ('A' for Active; 'I' for Inactive)
REMARK    1  A    between atoms: N_7  and  C_8 
REMARK    2  A    between atoms: C_8  and  C_9 
REMARK    3  A    between atoms: C_9  and  N_10 
REMARK    4  A    between atoms: C_17  and  C_18 
REMARK    5  A    between atoms: C_18  and  N_19 
REMARK       I    between atoms: N_19  and  C_20 
REMARK    6  A    between atoms: C_20  and  C_21 
ROOT
HETATM    1  C   UNL     1      43.734 -20.393   2.639  1.00  0.00     0.001 A 
HETATM    2  C   UNL     1      43.530 -19.059   2.274  1.00  0.00     0.014 A 
HETATM    3  C   UNL     1      43.502 -18.064   3.257  1.00  0.00     0.008 A 
HETATM    4  C   UNL     1      43.686 -18.411   4.595  1.00  0.00     0.046 A 
HETATM    5  C   UNL     1      43.681 -17.359   5.630  1.00  0.00     0.274 A 
HETATM    6  O   UNL     1      43.912 -17.637   6.803  1.00  0.00    -0.266 OA
HETATM    7  N   UNL     1      43.415 -16.064   5.196  1.00  0.00    -0.232 N 
HETATM    8  N   UNL     1      43.245 -15.718   3.889  1.00  0.00    -0.172 NA
HETATM    9  C   UNL     1      43.285 -16.629   2.963  1.00  0.00     0.084 A 
HETATM   10  C   UNL     1      43.891 -19.748   4.958  1.00  0.00     0.018 A 
HETATM   11  C   UNL     1      43.911 -20.738   3.978  1.00  0.00     0.001 A 
ENDROOT
BRANCH   9  12
HETATM   12  C   UNL     1      43.123 -16.154   1.520  1.00  0.00     0.185 C 
BRANCH  12  13
HETATM   13  N   UNL     1      42.290 -14.968   1.483  1.00  0.00    -0.351 N 
HETATM   14  C   UNL     1      40.928 -15.039   1.295  1.00  0.00     0.253 C 
HETATM   15  O   UNL     1      40.317 -16.104   1.272  1.00  0.00    -0.268 OA
HETATM   16  H   UNL     1      42.745 -14.063   1.446  1.00  0.00     0.163 HD
BRANCH  14  17
HETATM   17  C   UNL     1      40.176 -13.753   1.172  1.00  0.00     0.055 A 
HETATM   18  C   UNL     1      39.626 -13.238  -0.014  1.00  0.00     0.049 A 
HETATM   19 CL   UNL     1      39.705 -14.044  -1.542  1.00  0.00    -0.083 Cl
HETATM   20  C   UNL     1      38.939 -12.015   0.002  1.00  0.00     0.026 A 
HETATM   21  C   UNL     1      38.787 -11.301   1.192  1.00  0.00     0.021 A 
HETATM   22  C   UNL     1      39.318 -11.814   2.369  1.00  0.00     0.012 A 
HETATM   23 BR   UNL     1      39.110 -10.860   3.987  1.00  0.00    -0.051 Br
HETATM   24  C   UNL     1      40.004 -13.028   2.367  1.00  0.00     0.038 A 
ENDBRANCH  14  17
ENDBRANCH  12  13
ENDBRANCH   9  12
BRANCH   7  25
HETATM   25  C   UNL     1      43.553 -14.963   6.141  1.00  0.00     0.182 C 
BRANCH  25  26
HETATM   26  C   UNL     1      42.268 -14.145   6.314  1.00  0.00     0.256 C 
BRANCH  26  27
HETATM   27  N   UNL     1      42.559 -12.659   6.448  1.00  0.00    -0.070 N 
HETATM   28  H   UNL     1      41.800 -12.238   7.000  1.00  0.00     0.279 HD
HETATM   29  C   UNL     1      42.587 -11.946   5.105  1.00  0.00     0.235 C 
HETATM   30  C   UNL     1      44.031 -11.528   4.925  1.00  0.00     0.029 C 
HETATM   31  C   UNL     1      44.476 -11.219   6.339  1.00  0.00     0.029 C 
HETATM   32  C   UNL     1      43.881 -12.361   7.138  1.00  0.00     0.235 C 
ENDBRANCH  26  27
ENDBRANCH  25  26
ENDBRANCH   7  25
TORSDOF 6
ENDMDL
MODEL 3
REMARK VINA RESULT:      -9.0      1.298      1.595
REMARK  6 active torsions:
REMARK  status: ('A' for Active; 'I' for Inactive)
REMARK    1  A    between atoms: N_7  and  C_8 
REMARK    2  A    between atoms: C_8  and  C_9 
REMARK    3  A    between atoms: C_9  and  N_10 
REMARK    4  A    between atoms: C_17  and  C_18 
REMARK    5  A    between atoms: C_18  and  N_19 
REMARK       I    between atoms: N_19  and  C_20 
REMARK    6  A    between atoms: C_20  and  C_21 
ROOT
HETATM    1  C   UNL     1      43.741 -20.450   2.760  1.00  0.00     0.001 A 
HETATM    2  C   UNL     1      43.506 -19.139   2.337  1.00  0.00     0.014 A 
HETATM    3  C   UNL     1      43.489 -18.097   3.270  1.00  0.00     0.008 A 
HETATM    4  C   UNL     1      43.715 -18.375   4.618  1.00  0.00     0.046 A 
HETATM    5  C   UNL     1      43.723 -17.274   5.599  1.00  0.00     0.274 A 
HETATM    6  O   UNL     1      43.990 -17.490   6.778  1.00  0.00    -0.266 OA
HETATM    7  N   UNL     1      43.424 -16.005   5.111  1.00  0.00    -0.232 N 
HETATM    8  N   UNL     1      43.214 -15.727   3.793  1.00  0.00    -0.172 NA
HETATM    9  C   UNL     1      43.242 -16.682   2.912  1.00  0.00     0.084 A 
HETATM   10  C   UNL     1      43.952 -19.690   5.040  1.00  0.00     0.018 A 
HETATM   11  C   UNL     1      43.961 -20.727   4.109  1.00  0.00     0.001 A 
ENDROOT
BRANCH   9  12
HETATM   12  C   UNL     1      43.033 -16.281   1.454  1.00  0.00     0.185 C 
BRANCH  12  13
HETATM   13  N   UNL     1      42.453 -14.955   1.385  1.00  0.00    -0.351 N 
HETATM   14  C   UNL     1      41.108 -14.756   1.167  1.00  0.00     0.253 C 
HETATM   15  O   UNL     1      40.299 -15.680   1.139  1.00  0.00    -0.268 OA
HETATM   16  H   UNL     1      43.079 -14.158   1.351  1.00  0.00     0.163 HD
BRANCH  14  17
HETATM   17  C   UNL     1      40.629 -13.349   1.014  1.00  0.00     0.055 A 
HETATM   18  C   UNL     1      39.937 -12.611   1.989  1.00  0.00     0.049 A 
HETATM   19 CL   UNL     1      39.555 -13.214   3.564  1.00  0.00    -0.083 Cl
HETATM   20  C   UNL     1      39.540 -11.292   1.722  1.00  0.00     0.026 A 
HETATM   21  C   UNL     1      39.831 -10.697   0.493  1.00  0.00     0.021 A 
HETATM   22  C   UNL     1      40.526 -11.420  -0.469  1.00  0.00     0.012 A 
HETATM   23 BR   UNL     1      40.933 -10.621  -2.132  1.00  0.00    -0.051 Br
HETATM   24  C   UNL     1      40.926 -12.732  -0.217  1.00  0.00     0.038 A 
ENDBRANCH  14  17
ENDBRANCH  12  13
ENDBRANCH   9  12
BRANCH   7  25
HETATM   25  C   UNL     1      43.571 -14.858   5.997  1.00  0.00     0.182 C 
BRANCH  25  26
HETATM   26  C   UNL     1      42.510 -13.775   5.771  1.00  0.00     0.256 C 
BRANCH  26  27
HETATM   27  N   UNL     1      43.129 -12.459   5.330  1.00  0.00    -0.070 N 
HETATM   28  H   UNL     1      44.098 -12.435   5.675  1.00  0.00     0.279 HD
HETATM   29  C   UNL     1      42.413 -11.252   5.915  1.00  0.00     0.235 C 
HETATM   30  C   UNL     1      41.768 -10.576   4.724  1.00  0.00     0.029 C 
HETATM   31  C   UNL     1      42.764 -10.825   3.610  1.00  0.00     0.029 C 
HETATM   32  C   UNL     1      43.149 -12.276   3.820  1.00  0.00     0.235 C 
ENDBRANCH  26  27
ENDBRANCH  25  26
ENDBRANCH   7  25
TORSDOF 6
ENDMDL
MODEL 4
REMARK VINA RESULT:      -8.9      1.787      2.272
REMARK  6 active torsions:
REMARK  status: ('A' for Active; 'I' for Inactive)
REMARK    1  A    between atoms: N_7  and  C_8 
REMARK    2  A    between atoms: C_8  and  C_9 
REMARK    3  A    between atoms: C_9  and  N_10 
REMARK    4  A    between atoms: C_17  and  C_18 
REMARK    5  A    between atoms: C_18  and  N_19 
REMARK       I    between atoms: N_19  and  C_20 
REMARK    6  A    between atoms: C_20  and  C_21 
ROOT
HETATM    1  C   UNL     1      44.002 -18.991   3.612  1.00  0.00     0.001 A 
HETATM    2  C   UNL     1      43.579 -17.889   2.863  1.00  0.00     0.014 A 
HETATM    3  C   UNL     1      43.297 -16.677   3.503  1.00  0.00     0.008 A 
HETATM    4  C   UNL     1      43.450 -16.575   4.885  1.00  0.00     0.046 A 
HETATM    5  C   UNL     1      43.178 -15.291   5.557  1.00  0.00     0.274 A 
HETATM    6  O   UNL     1      43.375 -15.163   6.762  1.00  0.00    -0.266 OA
HETATM    7  N   UNL     1      42.704 -14.258   4.753  1.00  0.00    -0.232 N 
HETATM    8  N   UNL     1      42.564 -14.349   3.401  1.00  0.00    -0.172 NA
HETATM    9  C   UNL     1      42.837 -15.464   2.791  1.00  0.00     0.084 A 
HETATM   10  C   UNL     1      43.876 -17.680   5.634  1.00  0.00     0.018 A 
HETATM   11  C   UNL     1      44.149 -18.888   4.994  1.00  0.00     0.001 A 
ENDROOT
BRANCH   9  12
HETATM   12  C   UNL     1      42.689 -15.471   1.270  1.00  0.00     0.185 C 
BRANCH  12  13
HETATM   13  N   UNL     1      41.755 -14.442   0.861  1.00  0.00    -0.351 N 
HETATM   14  C   UNL     1      40.440 -14.724   0.565  1.00  0.00     0.253 C 
HETATM   15  O   UNL     1      39.945 -15.834   0.744  1.00  0.00    -0.268 OA
HETATM   16  H   UNL     1      42.119 -13.520   0.648  1.00  0.00     0.163 HD
BRANCH  14  17
HETATM   17  C   UNL     1      39.587 -13.608   0.056  1.00  0.00     0.055 A 
HETATM   18  C   UNL     1      39.093 -13.488  -1.254  1.00  0.00     0.049 A 
HETATM   19 CL   UNL     1      39.373 -14.654  -2.500  1.00  0.00    -0.083 Cl
HETATM   20  C   UNL     1      38.298 -12.387  -1.609  1.00  0.00     0.026 A 
HETATM   21  C   UNL     1      37.983 -11.406  -0.666  1.00  0.00     0.021 A 
HETATM   22  C   UNL     1      38.458 -11.528   0.633  1.00  0.00     0.012 A 
HETATM   23 BR   UNL     1      38.030 -10.211   1.918  1.00  0.00    -0.051 Br
HETATM   24  C   UNL     1      39.250 -12.616   0.998  1.00  0.00     0.038 A 
ENDBRANCH  14  17
ENDBRANCH  12  13
ENDBRANCH   9  12
BRANCH   7  25
HETATM   25  C   UNL     1      42.569 -12.926   5.328  1.00  0.00     0.182 C 
BRANCH  25  26
HETATM   26  C   UNL     1      43.839 -12.076   5.198  1.00  0.00     0.256 C 
BRANCH  26  27
HETATM   27  N   UNL     1      44.701 -12.154   6.447  1.00  0.00    -0.070 N 
HETATM   28  H   UNL     1      45.005 -13.130   6.560  1.00  0.00     0.279 HD
HETATM   29  C   UNL     1      43.940 -11.771   7.707  1.00  0.00     0.235 C 
HETATM   30  C   UNL     1      44.579 -10.475   8.160  1.00  0.00     0.029 C 
HETATM   31  C   UNL     1      46.031 -10.656   7.770  1.00  0.00     0.029 C 
HETATM   32  C   UNL     1      45.935 -11.267   6.386  1.00  0.00     0.235 C 
ENDBRANCH  26  27
ENDBRANCH  25  26
ENDBRANCH   7  25
TORSDOF 6
ENDMDL
MODEL 5
REMARK VINA RESULT:      -8.7      2.390      2.842
REMARK  6 active torsions:
REMARK  status: ('A' for Active; 'I' for Inactive)
REMARK    1  A    between atoms: N_7  and  C_8 
REMARK    2  A    between atoms: C_8  and  C_9 
REMARK    3  A    between atoms: C_9  and  N_10 
REMARK    4  A    between atoms: C_17  and  C_18 
REMARK    5  A    between atoms: C_18  and  N_19 
REMARK       I    between atoms: N_19  and  C_20 
REMARK    6  A    between atoms: C_20  and  C_21 
ROOT
HETATM    1  C   UNL     1      43.943 -18.844   2.708  1.00  0.00     0.001 A 
HETATM    2  C   UNL     1      42.912 -17.969   2.357  1.00  0.00     0.014 A 
HETATM    3  C   UNL     1      42.327 -17.153   3.332  1.00  0.00     0.008 A 
HETATM    4  C   UNL     1      42.785 -17.215   4.648  1.00  0.00     0.046 A 
HETATM    5  C   UNL     1      42.187 -16.337   5.671  1.00  0.00     0.274 A 
HETATM    6  O   UNL     1      42.625 -16.326   6.818  1.00  0.00    -0.266 OA
HETATM    7  N   UNL     1      41.127 -15.535   5.258  1.00  0.00    -0.232 N 
HETATM    8  N   UNL     1      40.683 -15.463   3.972  1.00  0.00    -0.172 NA
HETATM    9  C   UNL     1      41.226 -16.203   3.052  1.00  0.00     0.084 A 
HETATM   10  C   UNL     1      43.820 -18.092   4.997  1.00  0.00     0.018 A 
HETATM   11  C   UNL     1      44.395 -18.909   4.025  1.00  0.00     0.001 A 
ENDROOT
BRANCH   9  12
HETATM   12  C   UNL     1      40.696 -16.035   1.629  1.00  0.00     0.185 C 
BRANCH  12  13
HETATM   13  N   UNL     1      40.846 -14.657   1.207  1.00  0.00    -0.351 N 
HETATM   14  C   UNL     1      40.263 -14.179   0.055  1.00  0.00     0.253 C 
HETATM   15  O   UNL     1      39.484 -14.848  -0.619  1.00  0.00    -0.268 OA
HETATM   16  H   UNL     1      41.517 -14.075   1.696  1.00  0.00     0.163 HD
BRANCH  14  17
HETATM   17  C   UNL     1      40.561 -12.770  -0.343  1.00  0.00     0.055 A 
HETATM   18  C   UNL     1      40.868 -12.335  -1.644  1.00  0.00     0.049 A 
HETATM   19 CL   UNL     1      40.913 -13.378  -3.022  1.00  0.00    -0.083 Cl
HETATM   20  C   UNL     1      41.129 -10.979  -1.889  1.00  0.00     0.026 A 
HETATM   21  C   UNL     1      41.082 -10.048  -0.849  1.00  0.00     0.021 A 
HETATM   22  C   UNL     1      40.768 -10.472   0.436  1.00  0.00     0.012 A 
HETATM   23 BR   UNL     1      40.693  -9.218   1.848  1.00  0.00    -0.051 Br
HETATM   24  C   UNL     1      40.506 -11.817   0.693  1.00  0.00     0.038 A 
ENDBRANCH  14  17
ENDBRANCH  12  13
ENDBRANCH   9  12
BRANCH   7  25
HETATM   25  C   UNL     1      40.601 -14.535   6.179  1.00  0.00     0.182 C 
BRANCH  25  26
HETATM   26  C   UNL     1      41.082 -13.113   5.872  1.00  0.00     0.256 C 
BRANCH  26  27
HETATM   27  N   UNL     1      42.347 -13.113   5.029  1.00  0.00    -0.070 N 
HETATM   28  H   UNL     1      42.518 -14.078   4.717  1.00  0.00     0.279 HD
HETATM   29  C   UNL     1      43.571 -12.671   5.816  1.00  0.00     0.235 C 
HETATM   30  C   UNL     1      43.964 -11.345   5.198  1.00  0.00     0.029 C 
HETATM   31  C   UNL     1      43.607 -11.530   3.738  1.00  0.00     0.029 C 
HETATM   32  C   UNL     1      42.257 -12.217   3.804  1.00  0.00     0.235 C 
ENDBRANCH  26  27
ENDBRANCH  25  26
ENDBRANCH   7  25
TORSDOF 6
ENDMDL
MODEL 6
REMARK VINA RESULT:      -8.6      2.544      3.482
REMARK  6 active torsions:
REMARK  status: ('A' for Active; 'I' for Inactive)
REMARK    1  A    between atoms: N_7  and  C_8 
REMARK    2  A    between atoms: C_8  and  C_9 
REMARK    3  A    between atoms: C_9  and  N_10 
REMARK    4  A    between atoms: C_17  and  C_18 
REMARK    5  A    between atoms: C_18  and  N_19 
REMARK       I    between atoms: N_19  and  C_20 
REMARK    6  A    between atoms: C_20  and  C_21 
ROOT
HETATM    1  C   UNL     1      43.183 -18.552   2.396  1.00  0.00     0.001 A 
HETATM    2  C   UNL     1      42.118 -17.654   2.284  1.00  0.00     0.014 A 
HETATM    3  C   UNL     1      42.001 -16.594   3.191  1.00  0.00     0.008 A 
HETATM    4  C   UNL     1      42.955 -16.438   4.195  1.00  0.00     0.046 A 
HETATM    5  C   UNL     1      42.847 -15.306   5.136  1.00  0.00     0.274 A 
HETATM    6  O   UNL     1      43.715 -15.112   5.982  1.00  0.00    -0.266 OA
HETATM    7  N   UNL     1      41.728 -14.490   4.997  1.00  0.00    -0.232 N 
HETATM    8  N   UNL     1      40.799 -14.631   4.010  1.00  0.00    -0.172 NA
HETATM    9  C   UNL     1      40.903 -15.601   3.152  1.00  0.00     0.084 A 
HETATM   10  C   UNL     1      44.023 -17.338   4.304  1.00  0.00     0.018 A 
HETATM   11  C   UNL     1      44.132 -18.397   3.405  1.00  0.00     0.001 A 
ENDROOT
BRANCH   9  12
HETATM   12  C   UNL     1      39.842 -15.668   2.055  1.00  0.00     0.185 C 
BRANCH  12  13
HETATM   13  N   UNL     1      40.261 -14.878   0.915  1.00  0.00    -0.351 N 
HETATM   14  C   UNL     1      39.830 -13.584   0.726  1.00  0.00     0.253 C 
HETATM   15  O   UNL     1      39.168 -12.978   1.564  1.00  0.00    -0.268 OA
HETATM   16  H   UNL     1      40.764 -15.342   0.168  1.00  0.00     0.163 HD
BRANCH  14  17
HETATM   17  C   UNL     1      40.240 -12.892  -0.533  1.00  0.00     0.055 A 
HETATM   18  C   UNL     1      40.034 -13.375  -1.836  1.00  0.00     0.049 A 
HETATM   19 CL   UNL     1      39.226 -14.860  -2.197  1.00  0.00    -0.083 Cl
HETATM   20  C   UNL     1      40.468 -12.626  -2.941  1.00  0.00     0.026 A 
HETATM   21  C   UNL     1      41.100 -11.395  -2.760  1.00  0.00     0.021 A 
HETATM   22  C   UNL     1      41.294 -10.908  -1.473  1.00  0.00     0.012 A 
HETATM   23 BR   UNL     1      42.141  -9.238  -1.218  1.00  0.00    -0.051 Br
HETATM   24  C   UNL     1      40.869 -11.642  -0.367  1.00  0.00     0.038 A 
ENDBRANCH  14  17
ENDBRANCH  12  13
ENDBRANCH   9  12
BRANCH   7  25
HETATM   25  C   UNL     1      41.646 -13.269   5.789  1.00  0.00     0.182 C 
BRANCH  25  26
HETATM   26  C   UNL     1      41.986 -12.004   4.994  1.00  0.00     0.256 C 
BRANCH  26  27
HETATM   27  N   UNL     1      40.916 -11.679   3.964  1.00  0.00    -0.070 N 
HETATM   28  H   UNL     1      40.766 -12.519   3.389  1.00  0.00     0.279 HD
HETATM   29  C   UNL     1      41.333 -10.559   3.023  1.00  0.00     0.235 C 
HETATM   30  C   UNL     1      40.405  -9.411   3.362  1.00  0.00     0.029 C 
HETATM   31  C   UNL     1      39.113 -10.113   3.726  1.00  0.00     0.029 C 
HETATM   32  C   UNL     1      39.587 -11.272   4.581  1.00  0.00     0.235 C 
ENDBRANCH  26  27
ENDBRANCH  25  26
ENDBRANCH   7  25
TORSDOF 6
ENDMDL
MODEL 7
REMARK VINA RESULT:      -8.5      3.511      7.274
REMARK  6 active torsions:
REMARK  status: ('A' for Active; 'I' for Inactive)
REMARK    1  A    between atoms: N_7  and  C_8 
REMARK    2  A    between atoms: C_8  and  C_9 
REMARK    3  A    between atoms: C_9  and  N_10 
REMARK    4  A    between atoms: C_17  and  C_18 
REMARK    5  A    between atoms: C_18  and  N_19 
REMARK       I    between atoms: N_19  and  C_20 
REMARK    6  A    between atoms: C_20  and  C_21 
ROOT
HETATM    1  C   UNL     1      43.559 -18.189   6.044  1.00  0.00     0.001 A 
HETATM    2  C   UNL     1      42.972 -16.923   6.131  1.00  0.00     0.014 A 
HETATM    3  C   UNL     1      42.846 -16.132   4.984  1.00  0.00     0.008 A 
HETATM    4  C   UNL     1      43.301 -16.618   3.758  1.00  0.00     0.046 A 
HETATM    5  C   UNL     1      43.145 -15.795   2.543  1.00  0.00     0.274 A 
HETATM    6  O   UNL     1      43.474 -16.234   1.445  1.00  0.00    -0.266 OA
HETATM    7  N   UNL     1      42.605 -14.524   2.720  1.00  0.00    -0.232 N 
HETATM    8  N   UNL     1      42.150 -14.049   3.914  1.00  0.00    -0.172 NA
HETATM    9  C   UNL     1      42.246 -14.779   4.985  1.00  0.00     0.084 A 
HETATM   10  C   UNL     1      43.887 -17.887   3.672  1.00  0.00     0.018 A 
HETATM   11  C   UNL     1      44.018 -18.670   4.818  1.00  0.00     0.001 A 
ENDROOT
BRANCH   9  12
HETATM   12  C   UNL     1      41.678 -14.189   6.274  1.00  0.00     0.185 C 
BRANCH  12  13
HETATM   13  N   UNL     1      42.678 -13.361   6.919  1.00  0.00    -0.351 N 
HETATM   14  C   UNL     1      42.738 -12.000   6.720  1.00  0.00     0.253 C 
HETATM   15  O   UNL     1      41.883 -11.385   6.088  1.00  0.00    -0.268 OA
HETATM   16  H   UNL     1      43.437 -13.820   7.409  1.00  0.00     0.163 HD
BRANCH  14  17
HETATM   17  C   UNL     1      43.868 -11.254   7.352  1.00  0.00     0.055 A 
HETATM   18  C   UNL     1      45.126 -11.028   6.769  1.00  0.00     0.049 A 
HETATM   19 CL   UNL     1      45.561 -11.557   5.181  1.00  0.00    -0.083 Cl
HETATM   20  C   UNL     1      46.107 -10.308   7.468  1.00  0.00     0.026 A 
HETATM   21  C   UNL     1      45.844  -9.805   8.744  1.00  0.00     0.021 A 
HETATM   22  C   UNL     1      44.597 -10.016   9.319  1.00  0.00     0.012 A 
HETATM   23 BR   UNL     1      44.228  -9.331  11.041  1.00  0.00    -0.051 Br
HETATM   24  C   UNL     1      43.614 -10.730   8.635  1.00  0.00     0.038 A 
ENDBRANCH  14  17
ENDBRANCH  12  13
ENDBRANCH   9  12
BRANCH   7  25
HETATM   25  C   UNL     1      42.281 -13.728   1.543  1.00  0.00     0.182 C 
BRANCH  25  26
HETATM   26  C   UNL     1      40.838 -13.915   1.062  1.00  0.00     0.256 C 
BRANCH  26  27
HETATM   27  N   UNL     1      40.738 -13.879  -0.454  1.00  0.00    -0.070 N 
HETATM   28  H   UNL     1      41.581 -14.327  -0.836  1.00  0.00     0.279 HD
HETATM   29  C   UNL     1      40.694 -12.461  -1.003  1.00  0.00     0.235 C 
HETATM   30  C   UNL     1      39.300 -12.318  -1.578  1.00  0.00     0.029 C 
HETATM   31  C   UNL     1      39.005 -13.707  -2.105  1.00  0.00     0.029 C 
HETATM   32  C   UNL     1      39.517 -14.606  -0.997  1.00  0.00     0.235 C 
ENDBRANCH  26  27
ENDBRANCH  25  26
ENDBRANCH   7  25
TORSDOF 6
ENDMDL
MODEL 8
REMARK VINA RESULT:      -8.5      3.123      6.757
REMARK  6 active torsions:
REMARK  status: ('A' for Active; 'I' for Inactive)
REMARK    1  A    between atoms: N_7  and  C_8 
REMARK    2  A    between atoms: C_8  and  C_9 
REMARK    3  A    between atoms: C_9  and  N_10 
REMARK    4  A    between atoms: C_17  and  C_18 
REMARK    5  A    between atoms: C_18  and  N_19 
REMARK       I    between atoms: N_19  and  C_20 
REMARK    6  A    between atoms: C_20  and  C_21 
ROOT
HETATM    1  C   UNL     1      39.682 -13.120  -2.829  1.00  0.00     0.001 A 
HETATM    2  C   UNL     1      39.774 -13.644  -1.536  1.00  0.00     0.014 A 
HETATM    3  C   UNL     1      40.397 -12.902  -0.527  1.00  0.00     0.008 A 
HETATM    4  C   UNL     1      40.914 -11.640  -0.817  1.00  0.00     0.046 A 
HETATM    5  C   UNL     1      41.548 -10.846   0.253  1.00  0.00     0.274 A 
HETATM    6  O   UNL     1      41.945  -9.706   0.033  1.00  0.00    -0.266 OA
HETATM    7  N   UNL     1      41.655 -11.458   1.499  1.00  0.00    -0.232 N 
HETATM    8  N   UNL     1      41.142 -12.687   1.790  1.00  0.00    -0.172 NA
HETATM    9  C   UNL     1      40.547 -13.381   0.867  1.00  0.00     0.084 A 
HETATM   10  C   UNL     1      40.819 -11.116  -2.113  1.00  0.00     0.018 A 
HETATM   11  C   UNL     1      40.204 -11.861  -3.118  1.00  0.00     0.001 A 
ENDROOT
BRANCH   9  12
HETATM   12  C   UNL     1      39.967 -14.730   1.284  1.00  0.00     0.185 C 
BRANCH  12  13
HETATM   13  N   UNL     1      41.033 -15.613   1.714  1.00  0.00    -0.351 N 
HETATM   14  C   UNL     1      41.137 -16.054   3.014  1.00  0.00     0.253 C 
HETATM   15  O   UNL     1      40.273 -15.832   3.858  1.00  0.00    -0.268 OA
HETATM   16  H   UNL     1      41.800 -15.787   1.074  1.00  0.00     0.163 HD
BRANCH  14  17
HETATM   17  C   UNL     1      42.329 -16.879   3.376  1.00  0.00     0.055 A 
HETATM   18  C   UNL     1      43.247 -16.586   4.398  1.00  0.00     0.049 A 
HETATM   19 CL   UNL     1      43.118 -15.214   5.443  1.00  0.00    -0.083 Cl
HETATM   20  C   UNL     1      44.329 -17.445   4.640  1.00  0.00     0.026 A 
HETATM   21  C   UNL     1      44.504 -18.600   3.876  1.00  0.00     0.021 A 
HETATM   22  C   UNL     1      43.591 -18.900   2.872  1.00  0.00     0.012 A 
HETATM   23 BR   UNL     1      43.813 -20.466   1.838  1.00  0.00    -0.051 Br
HETATM   24  C   UNL     1      42.511 -18.054   2.621  1.00  0.00     0.038 A 
ENDBRANCH  14  17
ENDBRANCH  12  13
ENDBRANCH   9  12
BRANCH   7  25
HETATM   25  C   UNL     1      42.125 -10.670   2.631  1.00  0.00     0.182 C 
BRANCH  25  26
HETATM   26  C   UNL     1      41.348 -10.940   3.924  1.00  0.00     0.256 C 
BRANCH  26  27
HETATM   27  N   UNL     1      42.177 -11.723   4.929  1.00  0.00    -0.070 N 
HETATM   28  H   UNL     1      41.841 -12.695   4.926  1.00  0.00     0.279 HD
HETATM   29  C   UNL     1      42.023 -11.198   6.348  1.00  0.00     0.235 C 
HETATM   30  C   UNL     1      43.380 -10.619   6.691  1.00  0.00     0.029 C 
HETATM   31  C   UNL     1      44.336 -11.539   5.960  1.00  0.00     0.029 C 
HETATM   32  C   UNL     1      43.665 -11.726   4.614  1.00  0.00     0.235 C 
ENDBRANCH  26  27
ENDBRANCH  25  26
ENDBRANCH   7  25
TORSDOF 6
ENDMDL
MODEL 9
REMARK VINA RESULT:      -8.5      2.961      6.131
REMARK  6 active torsions:
REMARK  status: ('A' for Active; 'I' for Inactive)
REMARK    1  A    between atoms: N_7  and  C_8 
REMARK    2  A    between atoms: C_8  and  C_9 
REMARK    3  A    between atoms: C_9  and  N_10 
REMARK    4  A    between atoms: C_17  and  C_18 
REMARK    5  A    between atoms: C_18  and  N_19 
REMARK       I    between atoms: N_19  and  C_20 
REMARK    6  A    between atoms: C_20  and  C_21 
ROOT
HETATM    1  C   UNL     1      43.912 -18.885   5.331  1.00  0.00     0.001 A 
HETATM    2  C   UNL     1      43.664 -17.581   5.769  1.00  0.00     0.014 A 
HETATM    3  C   UNL     1      43.477 -16.555   4.835  1.00  0.00     0.008 A 
HETATM    4  C   UNL     1      43.532 -16.845   3.472  1.00  0.00     0.046 A 
HETATM    5  C   UNL     1      43.309 -15.771   2.487  1.00  0.00     0.274 A 
HETATM    6  O   UNL     1      43.284 -16.020   1.285  1.00  0.00    -0.266 OA
HETATM    7  N   UNL     1      43.126 -14.489   2.998  1.00  0.00    -0.232 N 
HETATM    8  N   UNL     1      43.061 -14.202   4.329  1.00  0.00    -0.172 NA
HETATM    9  C   UNL     1      43.217 -15.146   5.208  1.00  0.00     0.084 A 
HETATM   10  C   UNL     1      43.779 -18.154   3.036  1.00  0.00     0.018 A 
HETATM   11  C   UNL     1      43.972 -19.171   3.968  1.00  0.00     0.001 A 
ENDROOT
BRANCH   9  12
HETATM   12  C   UNL     1      43.092 -14.748   6.677  1.00  0.00     0.185 C 
BRANCH  12  13
HETATM   13  N   UNL     1      42.738 -13.347   6.779  1.00  0.00    -0.351 N 
HETATM   14  C   UNL     1      43.691 -12.358   6.881  1.00  0.00     0.253 C 
HETATM   15  O   UNL     1      44.893 -12.584   6.769  1.00  0.00    -0.268 OA
HETATM   16  H   UNL     1      41.764 -13.107   6.927  1.00  0.00     0.163 HD
BRANCH  14  17
HETATM   17  C   UNL     1      43.219 -10.955   7.083  1.00  0.00     0.055 A 
HETATM   18  C   UNL     1      43.741 -10.043   8.016  1.00  0.00     0.049 A 
HETATM   19 CL   UNL     1      45.061 -10.397   9.075  1.00  0.00    -0.083 Cl
HETATM   20  C   UNL     1      43.208  -8.748   8.107  1.00  0.00     0.026 A 
HETATM   21  C   UNL     1      42.163  -8.349   7.271  1.00  0.00     0.021 A 
HETATM   22  C   UNL     1      41.653  -9.244   6.339  1.00  0.00     0.012 A 
HETATM   23 BR   UNL     1      40.245  -8.711   5.197  1.00  0.00    -0.051 Br
HETATM   24  C   UNL     1      42.173 -10.534   6.239  1.00  0.00     0.038 A 
ENDBRANCH  14  17
ENDBRANCH  12  13
ENDBRANCH   9  12
BRANCH   7  25
HETATM   25  C   UNL     1      42.746 -13.416   2.088  1.00  0.00     0.182 C 
BRANCH  25  26
HETATM   26  C   UNL     1      41.424 -12.738   2.465  1.00  0.00     0.256 C 
BRANCH  26  27
HETATM   27  N   UNL     1      40.252 -13.311   1.686  1.00  0.00    -0.070 N 
HETATM   28  H   UNL     1      39.548 -12.568   1.583  1.00  0.00     0.279 HD
HETATM   29  C   UNL     1      39.581 -14.469   2.409  1.00  0.00     0.235 C 
HETATM   30  C   UNL     1      39.877 -15.680   1.549  1.00  0.00     0.029 C 
HETATM   31  C   UNL     1      39.868 -15.111   0.145  1.00  0.00     0.029 C 
HETATM   32  C   UNL     1      40.633 -13.812   0.301  1.00  0.00     0.235 C 
ENDBRANCH  26  27
ENDBRANCH  25  26
ENDBRANCH   7  25
TORSDOF 6
ENDMDL
MODEL 10
REMARK VINA RESULT:      -8.4      3.451      6.907
REMARK  6 active torsions:
REMARK  status: ('A' for Active; 'I' for Inactive)
REMARK    1  A    between atoms: N_7  and  C_8 
REMARK    2  A    between atoms: C_8  and  C_9 
REMARK    3  A    between atoms: C_9  and  N_10 
REMARK    4  A    between atoms: C_17  and  C_18 
REMARK    5  A    between atoms: C_18  and  N_19 
REMARK       I    between atoms: N_19  and  C_20 
REMARK    6  A    between atoms: C_20  and  C_21 
ROOT
HETATM    1  C   UNL     1      44.603 -18.404   4.442  1.00  0.00     0.001 A 
HETATM    2  C   UNL     1      44.298 -17.232   5.140  1.00  0.00     0.014 A 
HETATM    3  C   UNL     1      43.297 -16.378   4.666  1.00  0.00     0.008 A 
HETATM    4  C   UNL     1      42.602 -16.708   3.502  1.00  0.00     0.046 A 
HETATM    5  C   UNL     1      41.529 -15.821   3.016  1.00  0.00     0.274 A 
HETATM    6  O   UNL     1      40.859 -16.130   2.035  1.00  0.00    -0.266 OA
HETATM    7  N   UNL     1      41.324 -14.644   3.732  1.00  0.00    -0.232 N 
HETATM    8  N   UNL     1      41.992 -14.323   4.875  1.00  0.00    -0.172 NA
HETATM    9  C   UNL     1      42.914 -15.114   5.336  1.00  0.00     0.084 A 
HETATM   10  C   UNL     1      42.907 -17.884   2.805  1.00  0.00     0.018 A 
HETATM   11  C   UNL     1      43.911 -18.729   3.276  1.00  0.00     0.001 A 
ENDROOT
BRANCH   9  12
HETATM   12  C   UNL     1      43.589 -14.699   6.642  1.00  0.00     0.185 C 
BRANCH  12  13
HETATM   13  N   UNL     1      43.171 -13.362   7.010  1.00  0.00    -0.351 N 
HETATM   14  C   UNL     1      44.047 -12.299   7.022  1.00  0.00     0.253 C 
HETATM   15  O   UNL     1      45.200 -12.388   6.608  1.00  0.00    -0.268 OA
HETATM   16  H   UNL     1      42.246 -13.240   7.408  1.00  0.00     0.163 HD
BRANCH  14  17
HETATM   17  C   UNL     1      43.537 -10.983   7.513  1.00  0.00     0.055 A 
HETATM   18  C   UNL     1      42.761 -10.078   6.769  1.00  0.00     0.049 A 
HETATM   19 CL   UNL     1      42.233 -10.367   5.148  1.00  0.00    -0.083 Cl
HETATM   20  C   UNL     1      42.343  -8.870   7.347  1.00  0.00     0.026 A 
HETATM   21  C   UNL     1      42.685  -8.556   8.663  1.00  0.00     0.021 A 
HETATM   22  C   UNL     1      43.442  -9.454   9.406  1.00  0.00     0.012 A 
HETATM   23 BR   UNL     1      43.903  -9.043  11.192  1.00  0.00    -0.051 Br
HETATM   24  C   UNL     1      43.865 -10.658   8.844  1.00  0.00     0.038 A 
ENDBRANCH  14  17
ENDBRANCH  12  13
ENDBRANCH   9  12
BRANCH   7  25
HETATM   25  C   UNL     1      40.179 -13.808   3.397  1.00  0.00     0.182 C 
BRANCH  25  26
HETATM   26  C   UNL     1      40.419 -12.906   2.181  1.00  0.00     0.256 C 
BRANCH  26  27
HETATM   27  N   UNL     1      39.449 -13.209   1.051  1.00  0.00    -0.070 N 
HETATM   28  H   UNL     1      38.782 -13.915   1.389  1.00  0.00     0.279 HD
HETATM   29  C   UNL     1      40.141 -13.791  -0.171  1.00  0.00     0.235 C 
HETATM   30  C   UNL     1      39.999 -12.723  -1.235  1.00  0.00     0.029 C 
HETATM   31  C   UNL     1      38.647 -12.113  -0.928  1.00  0.00     0.029 C 
HETATM   32  C   UNL     1      38.667 -11.991   0.583  1.00  0.00     0.235 C 
ENDBRANCH  26  27
ENDBRANCH  25  26
ENDBRANCH   7  25
TORSDOF 6
ENDMDL
