MODEL 1
REMARK VINA RESULT:     -10.2      0.000      0.000
REMARK  8 active torsions:
REMARK  status: ('A' for Active; 'I' for Inactive)
REMARK    1  A    between atoms: C_6  and  S_7 
REMARK    2  A    between atoms: S_7  and  C_8 
REMARK    3  A    between atoms: C_8  and  C_9 
REMARK       I    between atoms: C_9  and  N_10 
REMARK    4  A    between atoms: N_10  and  C_11 
REMARK    5  A    between atoms: C_24  and  C_25 
REMARK    6  A    between atoms: C_25  and  C_26 
REMARK       I    between atoms: C_26  and  N_27 
REMARK    7  A    between atoms: N_27  and  C_28 
REMARK    8  A    between atoms: C_28  and  C_29 
ROOT
HETATM    1  C   UNL     1      46.010 -11.135   6.917  1.00  0.00     0.001 A 
HETATM    2  C   UNL     1      44.935 -11.685   6.221  1.00  0.00     0.018 A 
HETATM    3  C   UNL     1      43.642 -11.247   6.514  1.00  0.00     0.039 A 
HETATM    4  C   UNL     1      43.399 -10.272   7.491  1.00  0.00     0.073 A 
HETATM    5  N   UNL     1      42.107  -9.787   7.773  1.00  0.00    -0.223 NA
HETATM    6  C   UNL     1      41.115 -10.308   7.123  1.00  0.00     0.178 C 
HETATM    7  N   UNL     1      41.257 -11.355   6.230  1.00  0.00    -0.241 N 
HETATM    8  C   UNL     1      42.471 -11.805   5.834  1.00  0.00     0.147 C 
HETATM    9  N   UNL     1      42.500 -12.692   4.888  1.00  0.00    -0.256 NA
HETATM   10  C   UNL     1      40.308 -12.133   5.616  1.00  0.00     0.257 C 
HETATM   11  O   UNL     1      39.132 -12.263   5.914  1.00  0.00    -0.270 OA
HETATM   12  C   UNL     1      41.058 -12.943   4.571  1.00  0.00     0.211 C 
HETATM   13  C   UNL     1      44.487  -9.730   8.175  1.00  0.00     0.032 A 
HETATM   14  C   UNL     1      45.787 -10.160   7.891  1.00  0.00     0.002 A 
ENDROOT
BRANCH  12  15
HETATM   15  C   UNL     1      40.731 -12.456   3.164  1.00  0.00     0.140 C 
BRANCH  15  16
HETATM   16  C   UNL     1      41.289 -13.459   2.180  1.00  0.00     0.220 C 
HETATM   17  N   UNL     1      41.822 -14.584   2.765  1.00  0.00    -0.357 N 
HETATM   18  H   UNL     1      41.621 -14.810   3.730  1.00  0.00     0.162 HD
HETATM   19  O   UNL     1      41.340 -13.215   0.979  1.00  0.00    -0.274 OA
BRANCH  17  20
HETATM   20  C   UNL     1      42.735 -15.451   2.053  1.00  0.00     0.161 C 
BRANCH  20  21
HETATM   21  C   UNL     1      43.209 -16.617   2.879  1.00  0.00    -0.038 A 
HETATM   22  C   UNL     1      43.231 -17.914   2.338  1.00  0.00     0.048 A 
HETATM   23  C   UNL     1      43.596 -18.956   3.164  1.00  0.00     0.105 A 
HETATM   24  C   UNL     1      43.946 -18.754   4.479  1.00  0.00     0.105 A 
HETATM   25  O   UNL     1      43.638 -20.270   2.813  1.00  0.00    -0.323 OA
HETATM   26  O   UNL     1      44.251 -19.914   5.120  1.00  0.00    -0.323 OA
HETATM   27  C   UNL     1      43.955 -17.499   5.042  1.00  0.00     0.040 A 
HETATM   28  C   UNL     1      44.012 -20.874   4.071  1.00  0.00     0.352 A 
HETATM   29  C   UNL     1      43.578 -16.423   4.231  1.00  0.00     0.012 A 
ENDBRANCH  20  21
ENDBRANCH  17  20
ENDBRANCH  15  16
ENDBRANCH  12  15
BRANCH   6  30
HETATM   30  S   UNL     1      39.542  -9.582   7.297  1.00  0.00    -0.082 SA
BRANCH  30  31
HETATM   31  C   UNL     1      39.074 -10.277   8.898  1.00  0.00     0.185 C 
BRANCH  31  32
HETATM   32  C   UNL     1      39.541  -9.346  10.002  1.00  0.00     0.231 C 
HETATM   33  N   UNL     1      40.692  -9.791  10.636  1.00  0.00    -0.327 N 
HETATM   34  H   UNL     1      41.109 -10.646  10.286  1.00  0.00     0.169 HD
HETATM   35  O   UNL     1      38.913  -8.326  10.269  1.00  0.00    -0.272 OA
BRANCH  33  36
HETATM   36  C   UNL     1      41.375  -9.164  11.697  1.00  0.00     0.034 A 
HETATM   37  C   UNL     1      42.505  -8.358  11.530  1.00  0.00     0.032 A 
HETATM   38  C   UNL     1      43.129  -7.772  12.636  1.00  0.00     0.044 A 
HETATM   39  C   UNL     1      42.615  -7.987  13.907  1.00  0.00     0.116 A 
HETATM   40  F   UNL     1      43.207  -7.421  14.966  1.00  0.00    -0.206 F 
HETATM   41  C   UNL     1      41.493  -8.783  14.095  1.00  0.00     0.044 A 
HETATM   42  C   UNL     1      40.879  -9.379  12.991  1.00  0.00     0.032 A 
ENDBRANCH  33  36
ENDBRANCH  31  32
ENDBRANCH  30  31
ENDBRANCH   6  30
TORSDOF 8
ENDMDL
MODEL 2
REMARK VINA RESULT:     -10.1      1.308      1.759
REMARK  8 active torsions:
REMARK  status: ('A' for Active; 'I' for Inactive)
REMARK    1  A    between atoms: C_6  and  S_7 
REMARK    2  A    between atoms: S_7  and  C_8 
REMARK    3  A    between atoms: C_8  and  C_9 
REMARK       I    between atoms: C_9  and  N_10 
REMARK    4  A    between atoms: N_10  and  C_11 
REMARK    5  A    between atoms: C_24  and  C_25 
REMARK    6  A    between atoms: C_25  and  C_26 
REMARK       I    between atoms: C_26  and  N_27 
REMARK    7  A    between atoms: N_27  and  C_28 
REMARK    8  A    between atoms: C_28  and  C_29 
ROOT
HETATM    1  C   UNL     1      45.485 -11.580   6.392  1.00  0.00     0.001 A 
HETATM    2  C   UNL     1      44.233 -11.934   5.892  1.00  0.00     0.018 A 
HETATM    3  C   UNL     1      43.096 -11.301   6.398  1.00  0.00     0.039 A 
HETATM    4  C   UNL     1      43.182 -10.324   7.400  1.00  0.00     0.073 A 
HETATM    5  N   UNL     1      42.053  -9.645   7.896  1.00  0.00    -0.223 NA
HETATM    6  C   UNL     1      40.894  -9.985   7.427  1.00  0.00     0.178 C 
HETATM    7  N   UNL     1      40.712 -11.019   6.526  1.00  0.00    -0.241 N 
HETATM    8  C   UNL     1      41.753 -11.648   5.930  1.00  0.00     0.147 C 
HETATM    9  N   UNL     1      41.478 -12.505   4.995  1.00  0.00    -0.256 NA
HETATM   10  C   UNL     1      39.560 -11.620   6.084  1.00  0.00     0.257 C 
HETATM   11  O   UNL     1      38.446 -11.567   6.579  1.00  0.00    -0.270 OA
HETATM   12  C   UNL     1      39.981 -12.514   4.930  1.00  0.00     0.211 C 
HETATM   13  C   UNL     1      44.443  -9.980   7.887  1.00  0.00     0.032 A 
HETATM   14  C   UNL     1      45.590 -10.606   7.387  1.00  0.00     0.002 A 
ENDROOT
BRANCH  12  15
HETATM   15  C   UNL     1      39.505 -11.947   3.598  1.00  0.00     0.140 C 
BRANCH  15  16
HETATM   16  C   UNL     1      39.570 -13.052   2.568  1.00  0.00     0.220 C 
HETATM   17  N   UNL     1      39.534 -14.320   3.101  1.00  0.00    -0.357 N 
HETATM   18  H   UNL     1      39.238 -14.471   4.055  1.00  0.00     0.162 HD
HETATM   19  O   UNL     1      39.745 -12.807   1.378  1.00  0.00    -0.274 OA
BRANCH  17  20
HETATM   20  C   UNL     1      39.973 -15.473   2.347  1.00  0.00     0.161 C 
BRANCH  20  21
HETATM   21  C   UNL     1      41.114 -16.207   3.001  1.00  0.00    -0.038 A 
HETATM   22  C   UNL     1      41.255 -16.209   4.399  1.00  0.00     0.048 A 
HETATM   23  C   UNL     1      42.364 -16.827   4.939  1.00  0.00     0.105 A 
HETATM   24  C   UNL     1      43.310 -17.442   4.152  1.00  0.00     0.105 A 
HETATM   25  O   UNL     1      42.670 -16.892   6.263  1.00  0.00    -0.323 OA
HETATM   26  O   UNL     1      44.329 -17.970   4.880  1.00  0.00    -0.323 OA
HETATM   27  C   UNL     1      43.199 -17.478   2.781  1.00  0.00     0.040 A 
HETATM   28  C   UNL     1      43.939 -17.580   6.213  1.00  0.00     0.352 A 
HETATM   29  C   UNL     1      42.091 -16.849   2.204  1.00  0.00     0.012 A 
ENDBRANCH  20  21
ENDBRANCH  17  20
ENDBRANCH  15  16
ENDBRANCH  12  15
BRANCH   6  30
HETATM   30  S   UNL     1      39.512  -9.021   7.863  1.00  0.00    -0.082 SA
BRANCH  30  31
HETATM   31  C   UNL     1      39.234  -9.647   9.535  1.00  0.00     0.185 C 
BRANCH  31  32
HETATM   32  C   UNL     1      39.840  -8.682  10.537  1.00  0.00     0.231 C 
HETATM   33  N   UNL     1      40.638  -9.309  11.481  1.00  0.00    -0.327 N 
HETATM   34  H   UNL     1      40.760 -10.311  11.389  1.00  0.00     0.169 HD
HETATM   35  O   UNL     1      39.598  -7.480  10.474  1.00  0.00    -0.272 OA
BRANCH  33  36
HETATM   36  C   UNL     1      41.337  -8.702  12.543  1.00  0.00     0.034 A 
HETATM   37  C   UNL     1      42.554  -8.030  12.394  1.00  0.00     0.032 A 
HETATM   38  C   UNL     1      43.187  -7.455  13.500  1.00  0.00     0.044 A 
HETATM   39  C   UNL     1      42.596  -7.545  14.753  1.00  0.00     0.116 A 
HETATM   40  F   UNL     1      43.199  -6.989  15.812  1.00  0.00    -0.206 F 
HETATM   41  C   UNL     1      41.388  -8.208  14.923  1.00  0.00     0.044 A 
HETATM   42  C   UNL     1      40.763  -8.794  13.820  1.00  0.00     0.032 A 
ENDBRANCH  33  36
ENDBRANCH  31  32
ENDBRANCH  30  31
ENDBRANCH   6  30
TORSDOF 8
ENDMDL
MODEL 3
REMARK VINA RESULT:      -9.8      3.448      6.491
REMARK  8 active torsions:
REMARK  status: ('A' for Active; 'I' for Inactive)
REMARK    1  A    between atoms: C_6  and  S_7 
REMARK    2  A    between atoms: S_7  and  C_8 
REMARK    3  A    between atoms: C_8  and  C_9 
REMARK       I    between atoms: C_9  and  N_10 
REMARK    4  A    between atoms: N_10  and  C_11 
REMARK    5  A    between atoms: C_24  and  C_25 
REMARK    6  A    between atoms: C_25  and  C_26 
REMARK       I    between atoms: C_26  and  N_27 
REMARK    7  A    between atoms: N_27  and  C_28 
REMARK    8  A    between atoms: C_28  and  C_29 
ROOT
HETATM    1  C   UNL     1      38.754 -14.982  -2.671  1.00  0.00     0.001 A 
HETATM    2  C   UNL     1      39.297 -15.160  -1.399  1.00  0.00     0.018 A 
HETATM    3  C   UNL     1      39.919 -14.081  -0.769  1.00  0.00     0.039 A 
HETATM    4  C   UNL     1      40.017 -12.826  -1.386  1.00  0.00     0.073 A 
HETATM    5  N   UNL     1      40.604 -11.714  -0.752  1.00  0.00    -0.223 NA
HETATM    6  C   UNL     1      41.109 -11.892   0.428  1.00  0.00     0.178 C 
HETATM    7  N   UNL     1      41.159 -13.124   1.055  1.00  0.00    -0.241 N 
HETATM    8  C   UNL     1      40.528 -14.214   0.556  1.00  0.00     0.147 C 
HETATM    9  N   UNL     1      40.515 -15.285   1.288  1.00  0.00    -0.256 NA
HETATM   10  C   UNL     1      41.814 -13.514   2.196  1.00  0.00     0.257 C 
HETATM   11  O   UNL     1      42.719 -12.939   2.778  1.00  0.00    -0.270 OA
HETATM   12  C   UNL     1      41.296 -14.908   2.510  1.00  0.00     0.211 C 
HETATM   13  C   UNL     1      39.466 -12.664  -2.657  1.00  0.00     0.032 A 
HETATM   14  C   UNL     1      38.839 -13.737  -3.298  1.00  0.00     0.002 A 
ENDROOT
BRANCH  12  15
HETATM   15  C   UNL     1      40.388 -14.890   3.734  1.00  0.00     0.140 C 
BRANCH  15  16
HETATM   16  C   UNL     1      41.139 -15.524   4.883  1.00  0.00     0.220 C 
HETATM   17  N   UNL     1      42.506 -15.389   4.804  1.00  0.00    -0.357 N 
HETATM   18  H   UNL     1      42.924 -14.716   4.176  1.00  0.00     0.162 HD
HETATM   19  O   UNL     1      40.558 -16.184   5.739  1.00  0.00    -0.274 OA
BRANCH  17  20
HETATM   20  C   UNL     1      43.398 -16.237   5.562  1.00  0.00     0.161 C 
BRANCH  20  21
HETATM   21  C   UNL     1      43.627 -17.580   4.919  1.00  0.00    -0.038 A 
HETATM   22  C   UNL     1      43.540 -17.727   3.524  1.00  0.00     0.048 A 
HETATM   23  C   UNL     1      43.677 -18.994   2.995  1.00  0.00     0.105 A 
HETATM   24  C   UNL     1      43.906 -20.094   3.790  1.00  0.00     0.105 A 
HETATM   25  O   UNL     1      43.587 -19.318   1.677  1.00  0.00    -0.323 OA
HETATM   26  O   UNL     1      43.988 -21.245   3.072  1.00  0.00    -0.323 OA
HETATM   27  C   UNL     1      44.016 -19.988   5.157  1.00  0.00     0.040 A 
HETATM   28  C   UNL     1      43.742 -20.752   1.740  1.00  0.00     0.352 A 
HETATM   29  C   UNL     1      43.870 -18.718   5.723  1.00  0.00     0.012 A 
ENDBRANCH  20  21
ENDBRANCH  17  20
ENDBRANCH  15  16
ENDBRANCH  12  15
BRANCH   6  30
HETATM   30  S   UNL     1      41.646 -10.494   1.315  1.00  0.00    -0.082 SA
BRANCH  30  31
HETATM   31  C   UNL     1      40.183 -10.217   2.339  1.00  0.00     0.185 C 
BRANCH  31  32
HETATM   32  C   UNL     1      40.532 -10.486   3.792  1.00  0.00     0.231 C 
HETATM   33  N   UNL     1      41.853 -10.193   4.096  1.00  0.00    -0.327 N 
HETATM   34  H   UNL     1      42.423  -9.809   3.351  1.00  0.00     0.169 HD
HETATM   35  O   UNL     1      39.690 -10.931   4.566  1.00  0.00    -0.272 OA
BRANCH  33  36
HETATM   36  C   UNL     1      42.490 -10.334   5.345  1.00  0.00     0.034 A 
HETATM   37  C   UNL     1      42.105  -9.646   6.500  1.00  0.00     0.032 A 
HETATM   38  C   UNL     1      42.791  -9.839   7.703  1.00  0.00     0.044 A 
HETATM   39  C   UNL     1      43.855 -10.729   7.750  1.00  0.00     0.116 A 
HETATM   40  F   UNL     1      44.508 -10.920   8.903  1.00  0.00    -0.206 F 
HETATM   41  C   UNL     1      44.253 -11.423   6.615  1.00  0.00     0.044 A 
HETATM   42  C   UNL     1      43.576 -11.218   5.410  1.00  0.00     0.032 A 
ENDBRANCH  33  36
ENDBRANCH  31  32
ENDBRANCH  30  31
ENDBRANCH   6  30
TORSDOF 8
ENDMDL
MODEL 4
REMARK VINA RESULT:      -9.7      3.211      6.499
REMARK  8 active torsions:
REMARK  status: ('A' for Active; 'I' for Inactive)
REMARK    1  A    between atoms: C_6  and  S_7 
REMARK    2  A    between atoms: S_7  and  C_8 
REMARK    3  A    between atoms: C_8  and  C_9 
REMARK       I    between atoms: C_9  and  N_10 
REMARK    4  A    between atoms: N_10  and  C_11 
REMARK    5  A    between atoms: C_24  and  C_25 
REMARK    6  A    between atoms: C_25  and  C_26 
REMARK       I    between atoms: C_26  and  N_27 
REMARK    7  A    between atoms: N_27  and  C_28 
REMARK    8  A    between atoms: C_28  and  C_29 
ROOT
HETATM    1  C   UNL     1      43.547 -18.472   2.384  1.00  0.00     0.001 A 
HETATM    2  C   UNL     1      43.050 -17.173   2.297  1.00  0.00     0.018 A 
HETATM    3  C   UNL     1      43.019 -16.379   3.445  1.00  0.00     0.039 A 
HETATM    4  C   UNL     1      43.470 -16.859   4.683  1.00  0.00     0.073 A 
HETATM    5  N   UNL     1      43.485 -16.062   5.844  1.00  0.00    -0.223 NA
HETATM    6  C   UNL     1      43.017 -14.858   5.752  1.00  0.00     0.178 C 
HETATM    7  N   UNL     1      42.445 -14.350   4.599  1.00  0.00    -0.241 N 
HETATM    8  C   UNL     1      42.485 -15.016   3.421  1.00  0.00     0.147 C 
HETATM    9  N   UNL     1      42.049 -14.396   2.368  1.00  0.00    -0.256 NA
HETATM   10  C   UNL     1      41.745 -13.189   4.393  1.00  0.00     0.257 C 
HETATM   11  O   UNL     1      41.230 -12.461   5.226  1.00  0.00    -0.270 OA
HETATM   12  C   UNL     1      41.589 -13.067   2.886  1.00  0.00     0.211 C 
HETATM   13  C   UNL     1      43.967 -18.160   4.752  1.00  0.00     0.032 A 
HETATM   14  C   UNL     1      44.005 -18.964   3.608  1.00  0.00     0.002 A 
ENDROOT
BRANCH  12  15
HETATM   15  C   UNL     1      42.468 -11.950   2.334  1.00  0.00     0.140 C 
BRANCH  15  16
HETATM   16  C   UNL     1      41.570 -10.936   1.663  1.00  0.00     0.220 C 
HETATM   17  N   UNL     1      40.226 -11.201   1.794  1.00  0.00    -0.357 N 
HETATM   18  H   UNL     1      39.894 -11.863   2.482  1.00  0.00     0.162 HD
HETATM   19  O   UNL     1      42.031 -10.026   0.982  1.00  0.00    -0.274 OA
BRANCH  17  20
HETATM   20  C   UNL     1      39.245 -10.599   0.919  1.00  0.00     0.161 C 
BRANCH  20  21
HETATM   21  C   UNL     1      38.765 -11.531  -0.162  1.00  0.00    -0.038 A 
HETATM   22  C   UNL     1      39.319 -12.816  -0.296  1.00  0.00     0.048 A 
HETATM   23  C   UNL     1      38.902 -13.596  -1.354  1.00  0.00     0.105 A 
HETATM   24  C   UNL     1      37.961 -13.156  -2.257  1.00  0.00     0.105 A 
HETATM   25  O   UNL     1      39.358 -14.844  -1.649  1.00  0.00    -0.323 OA
HETATM   26  O   UNL     1      37.708 -14.070  -3.231  1.00  0.00    -0.323 OA
HETATM   27  C   UNL     1      37.382 -11.913  -2.150  1.00  0.00     0.040 A 
HETATM   28  C   UNL     1      38.628 -15.118  -2.864  1.00  0.00     0.352 A 
HETATM   29  C   UNL     1      37.794 -11.095  -1.094  1.00  0.00     0.012 A 
ENDBRANCH  20  21
ENDBRANCH  17  20
ENDBRANCH  15  16
ENDBRANCH  12  15
BRANCH   6  30
HETATM   30  S   UNL     1      43.219 -13.788   7.111  1.00  0.00    -0.082 SA
BRANCH  30  31
HETATM   31  C   UNL     1      44.545 -12.743   6.466  1.00  0.00     0.185 C 
BRANCH  31  32
HETATM   32  C   UNL     1      44.771 -11.581   7.415  1.00  0.00     0.231 C 
HETATM   33  N   UNL     1      43.649 -11.267   8.167  1.00  0.00    -0.327 N 
HETATM   34  H   UNL     1      42.829 -11.849   8.034  1.00  0.00     0.169 HD
HETATM   35  O   UNL     1      45.856 -11.008   7.457  1.00  0.00    -0.272 OA
BRANCH  33  36
HETATM   36  C   UNL     1      43.528 -10.246   9.129  1.00  0.00     0.034 A 
HETATM   37  C   UNL     1      43.081  -8.952   8.843  1.00  0.00     0.032 A 
HETATM   38  C   UNL     1      42.990  -7.992   9.856  1.00  0.00     0.044 A 
HETATM   39  C   UNL     1      43.339  -8.332  11.156  1.00  0.00     0.116 A 
HETATM   40  F   UNL     1      43.246  -7.415  12.128  1.00  0.00    -0.206 F 
HETATM   41  C   UNL     1      43.784  -9.611  11.462  1.00  0.00     0.044 A 
HETATM   42  C   UNL     1      43.887 -10.565  10.447  1.00  0.00     0.032 A 
ENDBRANCH  33  36
ENDBRANCH  31  32
ENDBRANCH  30  31
ENDBRANCH   6  30
TORSDOF 8
ENDMDL
MODEL 5
REMARK VINA RESULT:      -9.6      3.553      9.758
REMARK  8 active torsions:
REMARK  status: ('A' for Active; 'I' for Inactive)
REMARK    1  A    between atoms: C_6  and  S_7 
REMARK    2  A    between atoms: S_7  and  C_8 
REMARK    3  A    between atoms: C_8  and  C_9 
REMARK       I    between atoms: C_9  and  N_10 
REMARK    4  A    between atoms: N_10  and  C_11 
REMARK    5  A    between atoms: C_24  and  C_25 
REMARK    6  A    between atoms: C_25  and  C_26 
REMARK       I    between atoms: C_26  and  N_27 
REMARK    7  A    between atoms: N_27  and  C_28 
REMARK    8  A    between atoms: C_28  and  C_29 
ROOT
HETATM    1  C   UNL     1      39.787  -7.701   7.381  1.00  0.00     0.001 A 
HETATM    2  C   UNL     1      40.902  -8.524   7.536  1.00  0.00     0.018 A 
HETATM    3  C   UNL     1      41.227  -9.425   6.520  1.00  0.00     0.039 A 
HETATM    4  C   UNL     1      40.459  -9.525   5.352  1.00  0.00     0.073 A 
HETATM    5  N   UNL     1      40.793 -10.398   4.298  1.00  0.00    -0.223 NA
HETATM    6  C   UNL     1      41.828 -11.161   4.455  1.00  0.00     0.178 C 
HETATM    7  N   UNL     1      42.568 -11.208   5.623  1.00  0.00    -0.241 N 
HETATM    8  C   UNL     1      42.371 -10.331   6.636  1.00  0.00     0.147 C 
HETATM    9  N   UNL     1      43.208 -10.365   7.627  1.00  0.00    -0.256 NA
HETATM   10  C   UNL     1      43.555 -12.076   6.014  1.00  0.00     0.257 C 
HETATM   11  O   UNL     1      43.826 -13.169   5.544  1.00  0.00    -0.270 OA
HETATM   12  C   UNL     1      44.150 -11.477   7.277  1.00  0.00     0.211 C 
HETATM   13  C   UNL     1      39.349  -8.692   5.212  1.00  0.00     0.032 A 
HETATM   14  C   UNL     1      39.013  -7.785   6.222  1.00  0.00     0.002 A 
ENDROOT
BRANCH  12  15
HETATM   15  C   UNL     1      45.547 -10.926   7.014  1.00  0.00     0.140 C 
BRANCH  15  16
HETATM   16  C   UNL     1      45.880  -9.948   8.118  1.00  0.00     0.220 C 
HETATM   17  N   UNL     1      45.525 -10.378   9.376  1.00  0.00    -0.357 N 
HETATM   18  H   UNL     1      45.302 -11.349   9.547  1.00  0.00     0.162 HD
HETATM   19  O   UNL     1      46.333  -8.835   7.870  1.00  0.00    -0.274 OA
BRANCH  17  20
HETATM   20  C   UNL     1      45.395  -9.458  10.484  1.00  0.00     0.161 C 
BRANCH  20  21
HETATM   21  C   UNL     1      43.967  -9.251  10.916  1.00  0.00    -0.038 A 
HETATM   22  C   UNL     1      43.262  -8.100  10.526  1.00  0.00     0.048 A 
HETATM   23  C   UNL     1      41.986  -7.921  11.019  1.00  0.00     0.105 A 
HETATM   24  C   UNL     1      41.395  -8.837  11.858  1.00  0.00     0.105 A 
HETATM   25  O   UNL     1      41.181  -6.852  10.769  1.00  0.00    -0.323 OA
HETATM   26  O   UNL     1      40.147  -8.460  12.242  1.00  0.00    -0.323 OA
HETATM   27  C   UNL     1      42.045  -9.985  12.249  1.00  0.00     0.040 A 
HETATM   28  C   UNL     1      40.036  -7.182  11.583  1.00  0.00     0.352 A 
HETATM   29  C   UNL     1      43.344 -10.187  11.775  1.00  0.00     0.012 A 
ENDBRANCH  20  21
ENDBRANCH  17  20
ENDBRANCH  15  16
ENDBRANCH  12  15
BRANCH   6  30
HETATM   30  S   UNL     1      42.383 -12.088   3.090  1.00  0.00    -0.082 SA
BRANCH  30  31
HETATM   31  C   UNL     1      40.894 -13.059   2.770  1.00  0.00     0.185 C 
BRANCH  31  32
HETATM   32  C   UNL     1      41.148 -14.505   3.156  1.00  0.00     0.231 C 
HETATM   33  N   UNL     1      42.497 -14.808   3.267  1.00  0.00    -0.327 N 
HETATM   34  H   UNL     1      43.153 -14.050   3.118  1.00  0.00     0.169 HD
HETATM   35  O   UNL     1      40.213 -15.283   3.324  1.00  0.00    -0.272 OA
BRANCH  33  36
HETATM   36  C   UNL     1      43.064 -16.053   3.603  1.00  0.00     0.034 A 
HETATM   37  C   UNL     1      43.514 -16.386   4.885  1.00  0.00     0.032 A 
HETATM   38  C   UNL     1      44.069 -17.644   5.138  1.00  0.00     0.044 A 
HETATM   39  C   UNL     1      44.163 -18.572   4.109  1.00  0.00     0.116 A 
HETATM   40  F   UNL     1      44.687 -19.780   4.352  1.00  0.00    -0.206 F 
HETATM   41  C   UNL     1      43.721 -18.262   2.830  1.00  0.00     0.044 A 
HETATM   42  C   UNL     1      43.180 -17.000   2.575  1.00  0.00     0.032 A 
ENDBRANCH  33  36
ENDBRANCH  31  32
ENDBRANCH  30  31
ENDBRANCH   6  30
TORSDOF 8
ENDMDL
MODEL 6
REMARK VINA RESULT:      -9.3      4.601     10.250
REMARK  8 active torsions:
REMARK  status: ('A' for Active; 'I' for Inactive)
REMARK    1  A    between atoms: C_6  and  S_7 
REMARK    2  A    between atoms: S_7  and  C_8 
REMARK    3  A    between atoms: C_8  and  C_9 
REMARK       I    between atoms: C_9  and  N_10 
REMARK    4  A    between atoms: N_10  and  C_11 
REMARK    5  A    between atoms: C_24  and  C_25 
REMARK    6  A    between atoms: C_25  and  C_26 
REMARK       I    between atoms: C_26  and  N_27 
REMARK    7  A    between atoms: N_27  and  C_28 
REMARK    8  A    between atoms: C_28  and  C_29 
ROOT
HETATM    1  C   UNL     1      43.746 -20.178   6.132  1.00  0.00     0.001 A 
HETATM    2  C   UNL     1      43.243 -18.894   6.335  1.00  0.00     0.018 A 
HETATM    3  C   UNL     1      43.201 -18.003   5.261  1.00  0.00     0.039 A 
HETATM    4  C   UNL     1      43.657 -18.367   3.986  1.00  0.00     0.073 A 
HETATM    5  N   UNL     1      43.585 -17.498   2.880  1.00  0.00    -0.223 NA
HETATM    6  C   UNL     1      43.120 -16.306   3.082  1.00  0.00     0.178 C 
HETATM    7  N   UNL     1      42.761 -15.831   4.330  1.00  0.00    -0.241 N 
HETATM    8  C   UNL     1      42.706 -16.635   5.419  1.00  0.00     0.147 C 
HETATM    9  N   UNL     1      42.222 -16.129   6.511  1.00  0.00    -0.256 NA
HETATM   10  C   UNL     1      42.438 -14.562   4.738  1.00  0.00     0.257 C 
HETATM   11  O   UNL     1      42.649 -13.508   4.160  1.00  0.00    -0.270 OA
HETATM   12  C   UNL     1      41.902 -14.710   6.153  1.00  0.00     0.211 C 
HETATM   13  C   UNL     1      44.154 -19.656   3.799  1.00  0.00     0.032 A 
HETATM   14  C   UNL     1      44.200 -20.558   4.867  1.00  0.00     0.002 A 
ENDROOT
BRANCH  12  15
HETATM   15  C   UNL     1      40.395 -14.480   6.193  1.00  0.00     0.140 C 
BRANCH  15  16
HETATM   16  C   UNL     1      40.139 -13.012   5.938  1.00  0.00     0.220 C 
HETATM   17  N   UNL     1      41.115 -12.177   6.431  1.00  0.00    -0.357 N 
HETATM   18  H   UNL     1      42.018 -12.540   6.703  1.00  0.00     0.162 HD
HETATM   19  O   UNL     1      39.093 -12.626   5.425  1.00  0.00    -0.274 OA
BRANCH  17  20
HETATM   20  C   UNL     1      40.873 -10.766   6.639  1.00  0.00     0.161 C 
BRANCH  20  21
HETATM   21  C   UNL     1      42.100 -10.016   7.086  1.00  0.00    -0.038 A 
HETATM   22  C   UNL     1      43.375 -10.594   6.965  1.00  0.00     0.048 A 
HETATM   23  C   UNL     1      44.454  -9.897   7.467  1.00  0.00     0.105 A 
HETATM   24  C   UNL     1      44.313  -8.663   8.059  1.00  0.00     0.105 A 
HETATM   25  O   UNL     1      45.747 -10.323   7.462  1.00  0.00    -0.323 OA
HETATM   26  O   UNL     1      45.495  -8.160   8.502  1.00  0.00    -0.323 OA
HETATM   27  C   UNL     1      43.085  -8.055   8.180  1.00  0.00     0.040 A 
HETATM   28  C   UNL     1      46.392  -9.236   8.159  1.00  0.00     0.352 A 
HETATM   29  C   UNL     1      41.970  -8.744   7.692  1.00  0.00     0.012 A 
ENDBRANCH  20  21
ENDBRANCH  17  20
ENDBRANCH  15  16
ENDBRANCH  12  15
BRANCH   6  30
HETATM   30  S   UNL     1      42.824 -15.291   1.699  1.00  0.00    -0.082 SA
BRANCH  30  31
HETATM   31  C   UNL     1      41.046 -15.558   1.514  1.00  0.00     0.185 C 
BRANCH  31  32
HETATM   32  C   UNL     1      40.416 -14.318   0.906  1.00  0.00     0.231 C 
HETATM   33  N   UNL     1      40.583 -14.243  -0.469  1.00  0.00    -0.327 N 
HETATM   34  H   UNL     1      41.064 -15.015  -0.917  1.00  0.00     0.169 HD
HETATM   35  O   UNL     1      39.842 -13.495   1.614  1.00  0.00    -0.272 OA
BRANCH  33  36
HETATM   36  C   UNL     1      40.125 -13.224  -1.327  1.00  0.00     0.034 A 
HETATM   37  C   UNL     1      40.966 -12.334  -2.001  1.00  0.00     0.032 A 
HETATM   38  C   UNL     1      40.433 -11.346  -2.835  1.00  0.00     0.044 A 
HETATM   39  C   UNL     1      39.057 -11.258  -3.001  1.00  0.00     0.116 A 
HETATM   40  F   UNL     1      38.546 -10.318  -3.805  1.00  0.00    -0.206 F 
HETATM   41  C   UNL     1      38.204 -12.133  -2.342  1.00  0.00     0.044 A 
HETATM   42  C   UNL     1      38.738 -13.110  -1.498  1.00  0.00     0.032 A 
ENDBRANCH  33  36
ENDBRANCH  31  32
ENDBRANCH  30  31
ENDBRANCH   6  30
TORSDOF 8
ENDMDL
MODEL 7
REMARK VINA RESULT:      -9.1      5.623      8.926
REMARK  8 active torsions:
REMARK  status: ('A' for Active; 'I' for Inactive)
REMARK    1  A    between atoms: C_6  and  S_7 
REMARK    2  A    between atoms: S_7  and  C_8 
REMARK    3  A    between atoms: C_8  and  C_9 
REMARK       I    between atoms: C_9  and  N_10 
REMARK    4  A    between atoms: N_10  and  C_11 
REMARK    5  A    between atoms: C_24  and  C_25 
REMARK    6  A    between atoms: C_25  and  C_26 
REMARK       I    between atoms: C_26  and  N_27 
REMARK    7  A    between atoms: N_27  and  C_28 
REMARK    8  A    between atoms: C_28  and  C_29 
ROOT
HETATM    1  C   UNL     1      38.811 -15.517  -2.238  1.00  0.00     0.001 A 
HETATM    2  C   UNL     1      39.443 -15.002  -1.107  1.00  0.00     0.018 A 
HETATM    3  C   UNL     1      39.674 -13.627  -1.025  1.00  0.00     0.039 A 
HETATM    4  C   UNL     1      39.290 -12.755  -2.053  1.00  0.00     0.073 A 
HETATM    5  N   UNL     1      39.477 -11.361  -1.972  1.00  0.00    -0.223 NA
HETATM    6  C   UNL     1      40.069 -10.894  -0.919  1.00  0.00     0.178 C 
HETATM    7  N   UNL     1      40.583 -11.697   0.083  1.00  0.00    -0.241 N 
HETATM    8  C   UNL     1      40.355 -13.032   0.126  1.00  0.00     0.147 C 
HETATM    9  N   UNL     1      40.758 -13.673   1.179  1.00  0.00    -0.256 NA
HETATM   10  C   UNL     1      41.389 -11.382   1.148  1.00  0.00     0.257 C 
HETATM   11  O   UNL     1      42.060 -10.376   1.312  1.00  0.00    -0.270 OA
HETATM   12  C   UNL     1      41.414 -12.624   2.023  1.00  0.00     0.211 C 
HETATM   13  C   UNL     1      38.656 -13.286  -3.175  1.00  0.00     0.032 A 
HETATM   14  C   UNL     1      38.418 -14.661  -3.269  1.00  0.00     0.002 A 
ENDROOT
BRANCH  12  15
HETATM   15  C   UNL     1      40.621 -12.403   3.306  1.00  0.00     0.140 C 
BRANCH  15  16
HETATM   16  C   UNL     1      41.357 -13.088   4.435  1.00  0.00     0.220 C 
HETATM   17  N   UNL     1      42.533 -13.692   4.055  1.00  0.00    -0.357 N 
HETATM   18  H   UNL     1      42.965 -13.472   3.169  1.00  0.00     0.162 HD
HETATM   19  O   UNL     1      40.871 -13.167   5.559  1.00  0.00    -0.274 OA
BRANCH  17  20
HETATM   20  C   UNL     1      43.164 -14.706   4.871  1.00  0.00     0.161 C 
BRANCH  20  21
HETATM   21  C   UNL     1      43.221 -16.053   4.200  1.00  0.00    -0.038 A 
HETATM   22  C   UNL     1      43.563 -17.202   4.934  1.00  0.00     0.048 A 
HETATM   23  C   UNL     1      43.681 -18.396   4.253  1.00  0.00     0.105 A 
HETATM   24  C   UNL     1      43.463 -18.486   2.898  1.00  0.00     0.105 A 
HETATM   25  O   UNL     1      44.035 -19.591   4.801  1.00  0.00    -0.323 OA
HETATM   26  O   UNL     1      43.652 -19.746   2.423  1.00  0.00    -0.323 OA
HETATM   27  C   UNL     1      43.110 -17.389   2.147  1.00  0.00     0.040 A 
HETATM   28  C   UNL     1      44.056 -20.430   3.626  1.00  0.00     0.352 A 
HETATM   29  C   UNL     1      42.994 -16.162   2.808  1.00  0.00     0.012 A 
ENDBRANCH  20  21
ENDBRANCH  17  20
ENDBRANCH  15  16
ENDBRANCH  12  15
BRANCH   6  30
HETATM   30  S   UNL     1      40.120  -9.168  -0.698  1.00  0.00    -0.082 SA
BRANCH  30  31
HETATM   31  C   UNL     1      41.261  -8.736  -2.031  1.00  0.00     0.185 C 
BRANCH  31  32
HETATM   32  C   UNL     1      42.435  -7.966  -1.453  1.00  0.00     0.231 C 
HETATM   33  N   UNL     1      42.140  -6.635  -1.201  1.00  0.00    -0.327 N 
HETATM   34  H   UNL     1      41.193  -6.329  -1.390  1.00  0.00     0.169 HD
HETATM   35  O   UNL     1      43.514  -8.520  -1.263  1.00  0.00    -0.272 OA
BRANCH  33  36
HETATM   36  C   UNL     1      43.006  -5.657  -0.672  1.00  0.00     0.034 A 
HETATM   37  C   UNL     1      44.119  -5.151  -1.350  1.00  0.00     0.032 A 
HETATM   38  C   UNL     1      44.933  -4.182  -0.754  1.00  0.00     0.044 A 
HETATM   39  C   UNL     1      44.624  -3.714   0.516  1.00  0.00     0.116 A 
HETATM   40  F   UNL     1      45.398  -2.780   1.084  1.00  0.00    -0.206 F 
HETATM   41  C   UNL     1      43.523  -4.202   1.205  1.00  0.00     0.044 A 
HETATM   42  C   UNL     1      42.719  -5.181   0.615  1.00  0.00     0.032 A 
ENDBRANCH  33  36
ENDBRANCH  31  32
ENDBRANCH  30  31
ENDBRANCH   6  30
TORSDOF 8
ENDMDL
MODEL 8
REMARK VINA RESULT:      -9.1      5.656      9.994
REMARK  8 active torsions:
REMARK  status: ('A' for Active; 'I' for Inactive)
REMARK    1  A    between atoms: C_6  and  S_7 
REMARK    2  A    between atoms: S_7  and  C_8 
REMARK    3  A    between atoms: C_8  and  C_9 
REMARK       I    between atoms: C_9  and  N_10 
REMARK    4  A    between atoms: N_10  and  C_11 
REMARK    5  A    between atoms: C_24  and  C_25 
REMARK    6  A    between atoms: C_25  and  C_26 
REMARK       I    between atoms: C_26  and  N_27 
REMARK    7  A    between atoms: N_27  and  C_28 
REMARK    8  A    between atoms: C_28  and  C_29 
ROOT
HETATM    1  C   UNL     1      44.001 -20.926   3.911  1.00  0.00     0.001 A 
HETATM    2  C   UNL     1      43.950 -19.840   4.785  1.00  0.00     0.018 A 
HETATM    3  C   UNL     1      43.696 -18.567   4.272  1.00  0.00     0.039 A 
HETATM    4  C   UNL     1      43.495 -18.353   2.901  1.00  0.00     0.073 A 
HETATM    5  N   UNL     1      43.196 -17.084   2.369  1.00  0.00    -0.223 NA
HETATM    6  C   UNL     1      43.156 -16.082   3.189  1.00  0.00     0.178 C 
HETATM    7  N   UNL     1      43.459 -16.189   4.535  1.00  0.00    -0.241 N 
HETATM    8  C   UNL     1      43.655 -17.386   5.137  1.00  0.00     0.147 C 
HETATM    9  N   UNL     1      43.792 -17.391   6.427  1.00  0.00    -0.256 NA
HETATM   10  C   UNL     1      43.647 -15.215   5.483  1.00  0.00     0.257 C 
HETATM   11  O   UNL     1      43.855 -14.026   5.309  1.00  0.00    -0.270 OA
HETATM   12  C   UNL     1      43.709 -15.946   6.814  1.00  0.00     0.211 C 
HETATM   13  C   UNL     1      43.545 -19.450   2.042  1.00  0.00     0.032 A 
HETATM   14  C   UNL     1      43.798 -20.731   2.543  1.00  0.00     0.002 A 
ENDROOT
BRANCH  12  15
HETATM   15  C   UNL     1      42.453 -15.689   7.638  1.00  0.00     0.140 C 
BRANCH  15  16
HETATM   16  C   UNL     1      41.349 -15.276   6.692  1.00  0.00     0.220 C 
HETATM   17  N   UNL     1      41.219 -13.915   6.539  1.00  0.00    -0.357 N 
HETATM   18  H   UNL     1      41.955 -13.289   6.835  1.00  0.00     0.162 HD
HETATM   19  O   UNL     1      40.586 -16.102   6.200  1.00  0.00    -0.274 OA
BRANCH  17  20
HETATM   20  C   UNL     1      40.011 -13.321   6.011  1.00  0.00     0.161 C 
BRANCH  20  21
HETATM   21  C   UNL     1      40.277 -12.209   5.031  1.00  0.00    -0.038 A 
HETATM   22  C   UNL     1      39.264 -11.761   4.167  1.00  0.00     0.048 A 
HETATM   23  C   UNL     1      39.586 -10.797   3.233  1.00  0.00     0.105 A 
HETATM   24  C   UNL     1      40.852 -10.265   3.143  1.00  0.00     0.105 A 
HETATM   25  O   UNL     1      38.739 -10.278   2.303  1.00  0.00    -0.323 OA
HETATM   26  O   UNL     1      40.960  -9.347   2.146  1.00  0.00    -0.323 OA
HETATM   27  C   UNL     1      41.866 -10.663   3.983  1.00  0.00     0.040 A 
HETATM   28  C   UNL     1      39.630  -9.393   1.591  1.00  0.00     0.352 A 
HETATM   29  C   UNL     1      41.572 -11.648   4.932  1.00  0.00     0.012 A 
ENDBRANCH  20  21
ENDBRANCH  17  20
ENDBRANCH  15  16
ENDBRANCH  12  15
BRANCH   6  30
HETATM   30  S   UNL     1      42.583 -14.550   2.594  1.00  0.00    -0.082 SA
BRANCH  30  31
HETATM   31  C   UNL     1      40.818 -14.920   2.484  1.00  0.00     0.185 C 
BRANCH  31  32
HETATM   32  C   UNL     1      40.313 -14.541   1.104  1.00  0.00     0.231 C 
HETATM   33  N   UNL     1      40.462 -13.191   0.823  1.00  0.00    -0.327 N 
HETATM   34  H   UNL     1      40.909 -12.620   1.532  1.00  0.00     0.169 HD
HETATM   35  O   UNL     1      39.820 -15.387   0.363  1.00  0.00    -0.272 OA
BRANCH  33  36
HETATM   36  C   UNL     1      40.092 -12.523  -0.361  1.00  0.00     0.034 A 
HETATM   37  C   UNL     1      41.005 -12.057  -1.312  1.00  0.00     0.032 A 
HETATM   38  C   UNL     1      40.558 -11.399  -2.462  1.00  0.00     0.044 A 
HETATM   39  C   UNL     1      39.196 -11.218  -2.663  1.00  0.00     0.116 A 
HETATM   40  F   UNL     1      38.767 -10.595  -3.768  1.00  0.00    -0.206 F 
HETATM   41  C   UNL     1      38.273 -11.674  -1.732  1.00  0.00     0.044 A 
HETATM   42  C   UNL     1      38.721 -12.318  -0.576  1.00  0.00     0.032 A 
ENDBRANCH  33  36
ENDBRANCH  31  32
ENDBRANCH  30  31
ENDBRANCH   6  30
TORSDOF 8
ENDMDL
MODEL 9
REMARK VINA RESULT:      -9.0      4.392     10.699
REMARK  8 active torsions:
REMARK  status: ('A' for Active; 'I' for Inactive)
REMARK    1  A    between atoms: C_6  and  S_7 
REMARK    2  A    between atoms: S_7  and  C_8 
REMARK    3  A    between atoms: C_8  and  C_9 
REMARK       I    between atoms: C_9  and  N_10 
REMARK    4  A    between atoms: N_10  and  C_11 
REMARK    5  A    between atoms: C_24  and  C_25 
REMARK    6  A    between atoms: C_25  and  C_26 
REMARK       I    between atoms: C_26  and  N_27 
REMARK    7  A    between atoms: N_27  and  C_28 
REMARK    8  A    between atoms: C_28  and  C_29 
ROOT
HETATM    1  C   UNL     1      43.953 -20.536   5.375  1.00  0.00     0.001 A 
HETATM    2  C   UNL     1      43.741 -19.199   5.711  1.00  0.00     0.018 A 
HETATM    3  C   UNL     1      43.561 -18.264   4.691  1.00  0.00     0.039 A 
HETATM    4  C   UNL     1      43.591 -18.634   3.339  1.00  0.00     0.073 A 
HETATM    5  N   UNL     1      43.370 -17.714   2.296  1.00  0.00    -0.223 NA
HETATM    6  C   UNL     1      43.179 -16.474   2.619  1.00  0.00     0.178 C 
HETATM    7  N   UNL     1      43.252 -16.007   3.920  1.00  0.00    -0.241 N 
HETATM    8  C   UNL     1      43.359 -16.843   4.980  1.00  0.00     0.147 C 
HETATM    9  N   UNL     1      43.276 -16.319   6.164  1.00  0.00    -0.256 NA
HETATM   10  C   UNL     1      43.264 -14.724   4.403  1.00  0.00     0.257 C 
HETATM   11  O   UNL     1      43.483 -13.691   3.791  1.00  0.00    -0.270 OA
HETATM   12  C   UNL     1      43.110 -14.852   5.909  1.00  0.00     0.211 C 
HETATM   13  C   UNL     1      43.800 -19.976   3.021  1.00  0.00     0.032 A 
HETATM   14  C   UNL     1      43.982 -20.923   4.034  1.00  0.00     0.002 A 
ENDROOT
BRANCH  12  15
HETATM   15  C   UNL     1      41.730 -14.388   6.359  1.00  0.00     0.140 C 
BRANCH  15  16
HETATM   16  C   UNL     1      41.611 -12.911   6.058  1.00  0.00     0.220 C 
HETATM   17  N   UNL     1      42.667 -12.158   6.515  1.00  0.00    -0.357 N 
HETATM   18  H   UNL     1      43.535 -12.597   6.790  1.00  0.00     0.162 HD
HETATM   19  O   UNL     1      40.600 -12.444   5.543  1.00  0.00    -0.274 OA
BRANCH  17  20
HETATM   20  C   UNL     1      42.563 -10.725   6.679  1.00  0.00     0.161 C 
BRANCH  20  21
HETATM   21  C   UNL     1      42.960 -10.256   8.054  1.00  0.00    -0.038 A 
HETATM   22  C   UNL     1      42.126  -9.392   8.783  1.00  0.00     0.048 A 
HETATM   23  C   UNL     1      42.577  -8.928  10.001  1.00  0.00     0.105 A 
HETATM   24  C   UNL     1      43.798  -9.299  10.514  1.00  0.00     0.105 A 
HETATM   25  O   UNL     1      41.914  -8.063  10.816  1.00  0.00    -0.323 OA
HETATM   26  O   UNL     1      44.057  -8.714  11.714  1.00  0.00    -0.323 OA
HETATM   27  C   UNL     1      44.636 -10.157   9.840  1.00  0.00     0.040 A 
HETATM   28  C   UNL     1      42.879  -7.900  11.878  1.00  0.00     0.352 A 
HETATM   29  C   UNL     1      44.211 -10.634   8.597  1.00  0.00     0.012 A 
ENDBRANCH  20  21
ENDBRANCH  17  20
ENDBRANCH  15  16
ENDBRANCH  12  15
BRANCH   6  30
HETATM   30  S   UNL     1      42.694 -15.361   1.371  1.00  0.00    -0.082 SA
BRANCH  30  31
HETATM   31  C   UNL     1      40.903 -15.575   1.468  1.00  0.00     0.185 C 
BRANCH  31  32
HETATM   32  C   UNL     1      40.222 -14.358   0.867  1.00  0.00     0.231 C 
HETATM   33  N   UNL     1      40.363 -14.282  -0.510  1.00  0.00    -0.327 N 
HETATM   34  H   UNL     1      40.861 -15.039  -0.964  1.00  0.00     0.169 HD
HETATM   35  O   UNL     1      39.634 -13.552   1.583  1.00  0.00    -0.272 OA
BRANCH  33  36
HETATM   36  C   UNL     1      39.857 -13.281  -1.363  1.00  0.00     0.034 A 
HETATM   37  C   UNL     1      38.518 -13.191  -1.753  1.00  0.00     0.032 A 
HETATM   38  C   UNL     1      38.094 -12.168  -2.606  1.00  0.00     0.044 A 
HETATM   39  C   UNL     1      39.010 -11.229  -3.060  1.00  0.00     0.116 A 
HETATM   40  F   UNL     1      38.604 -10.244  -3.871  1.00  0.00    -0.206 F 
HETATM   41  C   UNL     1      40.345 -11.299  -2.683  1.00  0.00     0.044 A 
HETATM   42  C   UNL     1      40.770 -12.330  -1.843  1.00  0.00     0.032 A 
ENDBRANCH  33  36
ENDBRANCH  31  32
ENDBRANCH  30  31
ENDBRANCH   6  30
TORSDOF 8
ENDMDL
MODEL 10
REMARK VINA RESULT:      -9.0      2.120      2.211
REMARK  8 active torsions:
REMARK  status: ('A' for Active; 'I' for Inactive)
REMARK    1  A    between atoms: C_6  and  S_7 
REMARK    2  A    between atoms: S_7  and  C_8 
REMARK    3  A    between atoms: C_8  and  C_9 
REMARK       I    between atoms: C_9  and  N_10 
REMARK    4  A    between atoms: N_10  and  C_11 
REMARK    5  A    between atoms: C_24  and  C_25 
REMARK    6  A    between atoms: C_25  and  C_26 
REMARK       I    between atoms: C_26  and  N_27 
REMARK    7  A    between atoms: N_27  and  C_28 
REMARK    8  A    between atoms: C_28  and  C_29 
ROOT
HETATM    1  C   UNL     1      45.590 -11.423   6.536  1.00  0.00     0.001 A 
HETATM    2  C   UNL     1      44.349 -11.804   6.026  1.00  0.00     0.018 A 
HETATM    3  C   UNL     1      43.196 -11.184   6.510  1.00  0.00     0.039 A 
HETATM    4  C   UNL     1      43.254 -10.192   7.499  1.00  0.00     0.073 A 
HETATM    5  N   UNL     1      42.107  -9.526   7.972  1.00  0.00    -0.223 NA
HETATM    6  C   UNL     1      40.960  -9.891   7.493  1.00  0.00     0.178 C 
HETATM    7  N   UNL     1      40.806 -10.940   6.605  1.00  0.00    -0.241 N 
HETATM    8  C   UNL     1      41.865 -11.560   6.030  1.00  0.00     0.147 C 
HETATM    9  N   UNL     1      41.616 -12.434   5.104  1.00  0.00    -0.256 NA
HETATM   10  C   UNL     1      39.670 -11.566   6.158  1.00  0.00     0.257 C 
HETATM   11  O   UNL     1      38.549 -11.525   6.639  1.00  0.00    -0.270 OA
HETATM   12  C   UNL     1      40.120 -12.469   5.021  1.00  0.00     0.211 C 
HETATM   13  C   UNL     1      44.504  -9.821   7.996  1.00  0.00     0.032 A 
HETATM   14  C   UNL     1      45.666 -10.434   7.518  1.00  0.00     0.002 A 
ENDROOT
BRANCH  12  15
HETATM   15  C   UNL     1      39.651 -11.928   3.676  1.00  0.00     0.140 C 
BRANCH  15  16
HETATM   16  C   UNL     1      39.829 -13.019   2.645  1.00  0.00     0.220 C 
HETATM   17  N   UNL     1      39.602 -14.289   3.124  1.00  0.00    -0.357 N 
HETATM   18  H   UNL     1      39.121 -14.432   4.002  1.00  0.00     0.162 HD
HETATM   19  O   UNL     1      40.241 -12.770   1.516  1.00  0.00    -0.274 OA
BRANCH  17  20
HETATM   20  C   UNL     1      40.090 -15.460   2.432  1.00  0.00     0.161 C 
BRANCH  20  21
HETATM   21  C   UNL     1      41.211 -16.154   3.162  1.00  0.00    -0.038 A 
HETATM   22  C   UNL     1      42.073 -17.029   2.480  1.00  0.00     0.048 A 
HETATM   23  C   UNL     1      43.030 -17.701   3.213  1.00  0.00     0.105 A 
HETATM   24  C   UNL     1      43.164 -17.523   4.570  1.00  0.00     0.105 A 
HETATM   25  O   UNL     1      43.919 -18.605   2.719  1.00  0.00    -0.323 OA
HETATM   26  O   UNL     1      44.151 -18.293   5.101  1.00  0.00    -0.323 OA
HETATM   27  C   UNL     1      42.352 -16.662   5.272  1.00  0.00     0.040 A 
HETATM   28  C   UNL     1      44.595 -19.007   3.929  1.00  0.00     0.352 A 
HETATM   29  C   UNL     1      41.364 -15.976   4.557  1.00  0.00     0.012 A 
ENDBRANCH  20  21
ENDBRANCH  17  20
ENDBRANCH  15  16
ENDBRANCH  12  15
BRANCH   6  30
HETATM   30  S   UNL     1      39.558  -8.944   7.900  1.00  0.00    -0.082 SA
BRANCH  30  31
HETATM   31  C   UNL     1      39.044  -9.810   9.401  1.00  0.00     0.185 C 
BRANCH  31  32
HETATM   32  C   UNL     1      39.470  -9.003  10.613  1.00  0.00     0.231 C 
HETATM   33  N   UNL     1      38.658  -7.903  10.846  1.00  0.00    -0.327 N 
HETATM   34  H   UNL     1      37.868  -7.775  10.224  1.00  0.00     0.169 HD
HETATM   35  O   UNL     1      40.452  -9.332  11.272  1.00  0.00    -0.272 OA
BRANCH  33  36
HETATM   36  C   UNL     1      38.784  -6.956  11.882  1.00  0.00     0.034 A 
HETATM   37  C   UNL     1      39.761  -5.957  11.911  1.00  0.00     0.032 A 
HETATM   38  C   UNL     1      39.822  -5.055  12.977  1.00  0.00     0.044 A 
HETATM   39  C   UNL     1      38.897  -5.148  14.008  1.00  0.00     0.116 A 
HETATM   40  F   UNL     1      38.950  -4.279  15.026  1.00  0.00    -0.206 F 
HETATM   41  C   UNL     1      37.918  -6.131  13.998  1.00  0.00     0.044 A 
HETATM   42  C   UNL     1      37.867  -7.041  12.939  1.00  0.00     0.032 A 
ENDBRANCH  33  36
ENDBRANCH  31  32
ENDBRANCH  30  31
ENDBRANCH   6  30
TORSDOF 8
ENDMDL
