MODEL 1
REMARK VINA RESULT:      -9.1      0.000      0.000
REMARK  5 active torsions:
REMARK  status: ('A' for Active; 'I' for Inactive)
REMARK    1  A    between atoms: C_2  and  C_3 
REMARK    2  A    between atoms: C_3  and  C_4 
REMARK    3  A    between atoms: C_8  and  N_9 
REMARK       I    between atoms: N_9  and  C_10 
REMARK    4  A    between atoms: C_10  and  C_11 
REMARK    5  A    between atoms: N_13  and  C_14 
ROOT
HETATM    1  C   UNL     1      40.916 -12.445   4.456  1.00  0.00     0.106 C 
HETATM    2  C   UNL     1      42.273 -13.098   4.592  1.00  0.00     0.148 C 
HETATM    3  N   UNL     1      41.993 -14.354   5.240  1.00  0.00    -0.299 N 
HETATM    4  C   UNL     1      40.762 -14.315   5.916  1.00  0.00     0.226 C 
HETATM    5  O   UNL     1      40.218 -15.162   6.607  1.00  0.00    -0.273 OA
HETATM    6  C   UNL     1      40.124 -12.974   5.638  1.00  0.00     0.119 C 
ENDROOT
BRANCH   1   7
HETATM    7  C   UNL     1      40.255 -12.757   3.114  1.00  0.00     0.242 C 
HETATM    8  N   UNL     1      41.101 -13.280   2.153  1.00  0.00    -0.156 N 
HETATM    9  H   UNL     1      42.090 -13.396   2.341  1.00  0.00     0.187 HD
HETATM   10  O   UNL     1      39.057 -12.517   2.979  1.00  0.00    -0.272 OA
BRANCH   8  11
HETATM   11  C   UNL     1      40.648 -13.651   0.910  1.00  0.00     0.725 A 
HETATM   12  N   UNL     1      39.859 -14.757   0.725  1.00  0.00    -0.106 N 
HETATM   13  N   UNL     1      39.542 -14.932  -0.568  1.00  0.00    -0.144 NA
HETATM   14  H   UNL     1      39.512 -15.413   1.413  1.00  0.00     0.208 HD
HETATM   15  C   UNL     1      40.159 -13.885  -1.130  1.00  0.00     0.166 A 
HETATM   16  N   UNL     1      40.841 -13.085  -0.254  1.00  0.00    -0.046 NA
BRANCH  15  17
HETATM   17  C   UNL     1      40.104 -13.595  -2.588  1.00  0.00     0.087 C 
BRANCH  17  18
HETATM   18  C   UNL     1      38.673 -13.399  -3.121  1.00  0.00    -0.016 C 
HETATM   19  C   UNL     1      37.733 -12.843  -2.047  1.00  0.00     0.010 C 
HETATM   20  C   UNL     1      38.126 -14.728  -3.645  1.00  0.00     0.010 C 
ENDBRANCH  17  18
ENDBRANCH  15  17
ENDBRANCH   8  11
ENDBRANCH   1   7
BRANCH   3  21
HETATM   21  C   UNL     1      42.834 -15.463   5.258  1.00  0.00     0.165 A 
HETATM   22  N   UNL     1      43.701 -15.677   6.254  1.00  0.00    -0.155 NA
HETATM   23  N   UNL     1      44.334 -16.807   5.927  1.00  0.00    -0.275 N 
HETATM   24  H   UNL     1      45.076 -17.133   6.539  1.00  0.00     0.189 HD
HETATM   25  C   UNL     1      43.874 -17.396   4.786  1.00  0.00     0.065 A 
HETATM   26  C   UNL     1      42.882 -16.542   4.310  1.00  0.00     0.040 A 
HETATM   27  C   UNL     1      44.254 -18.582   4.144  1.00  0.00     0.051 A 
HETATM   28  C   UNL     1      42.236 -16.891   3.103  1.00  0.00     0.019 A 
HETATM   29  C   UNL     1      42.595 -18.075   2.441  1.00  0.00     0.020 A 
HETATM   30  C   UNL     1      43.587 -18.902   2.960  1.00  0.00     0.013 A 
HETATM   31 BR   UNL     1      44.052 -20.489   2.041  1.00  0.00    -0.051 Br
ENDBRANCH   3  21
TORSDOF 5
ENDMDL
MODEL 2
REMARK VINA RESULT:      -8.8      1.184      1.611
REMARK  5 active torsions:
REMARK  status: ('A' for Active; 'I' for Inactive)
REMARK    1  A    between atoms: C_2  and  C_3 
REMARK    2  A    between atoms: C_3  and  C_4 
REMARK    3  A    between atoms: C_8  and  N_9 
REMARK       I    between atoms: N_9  and  C_10 
REMARK    4  A    between atoms: C_10  and  C_11 
REMARK    5  A    between atoms: N_13  and  C_14 
ROOT
HETATM    1  C   UNL     1      42.097 -11.850   4.568  1.00  0.00     0.106 C 
HETATM    2  C   UNL     1      43.205 -12.758   5.050  1.00  0.00     0.148 C 
HETATM    3  N   UNL     1      42.571 -14.045   5.181  1.00  0.00    -0.299 N 
HETATM    4  C   UNL     1      41.177 -13.916   5.303  1.00  0.00     0.226 C 
HETATM    5  O   UNL     1      40.322 -14.769   5.476  1.00  0.00    -0.273 OA
HETATM    6  C   UNL     1      40.834 -12.452   5.160  1.00  0.00     0.119 C 
ENDROOT
BRANCH   1   7
HETATM    7  C   UNL     1      42.047 -11.754   3.043  1.00  0.00     0.242 C 
HETATM    8  N   UNL     1      41.046 -12.496   2.444  1.00  0.00    -0.156 N 
HETATM    9  H   UNL     1      40.434 -13.083   2.997  1.00  0.00     0.187 HD
HETATM   10  O   UNL     1      42.882 -11.056   2.472  1.00  0.00    -0.272 OA
BRANCH   8  11
HETATM   11  C   UNL     1      40.846 -12.480   1.084  1.00  0.00     0.725 A 
HETATM   12  N   UNL     1      40.993 -11.337   0.342  1.00  0.00    -0.106 N 
HETATM   13  N   UNL     1      40.741 -11.552  -0.960  1.00  0.00    -0.144 NA
HETATM   14  H   UNL     1      41.254 -10.408   0.648  1.00  0.00     0.208 HD
HETATM   15  C   UNL     1      40.456 -12.861  -0.955  1.00  0.00     0.166 A 
HETATM   16  N   UNL     1      40.513 -13.455   0.276  1.00  0.00    -0.046 NA
BRANCH  15  17
HETATM   17  C   UNL     1      40.117 -13.623  -2.187  1.00  0.00     0.087 C 
BRANCH  17  18
HETATM   18  C   UNL     1      38.671 -14.150  -2.203  1.00  0.00    -0.016 C 
HETATM   19  C   UNL     1      38.315 -14.805  -3.541  1.00  0.00     0.010 C 
HETATM   20  C   UNL     1      37.697 -13.006  -1.915  1.00  0.00     0.010 C 
ENDBRANCH  17  18
ENDBRANCH  15  17
ENDBRANCH   8  11
ENDBRANCH   1   7
BRANCH   3  21
HETATM   21  C   UNL     1      43.227 -15.272   5.237  1.00  0.00     0.165 A 
HETATM   22  N   UNL     1      43.991 -15.619   6.278  1.00  0.00    -0.155 NA
HETATM   23  N   UNL     1      44.459 -16.833   5.977  1.00  0.00    -0.275 N 
HETATM   24  H   UNL     1      45.104 -17.271   6.627  1.00  0.00     0.189 HD
HETATM   25  C   UNL     1      43.980 -17.343   4.806  1.00  0.00     0.065 A 
HETATM   26  C   UNL     1      43.162 -16.344   4.282  1.00  0.00     0.040 A 
HETATM   27  C   UNL     1      44.209 -18.572   4.175  1.00  0.00     0.051 A 
HETATM   28  C   UNL     1      42.542 -16.587   3.036  1.00  0.00     0.019 A 
HETATM   29  C   UNL     1      42.750 -17.812   2.385  1.00  0.00     0.020 A 
HETATM   30  C   UNL     1      43.570 -18.783   2.952  1.00  0.00     0.013 A 
HETATM   31 BR   UNL     1      43.835 -20.423   2.044  1.00  0.00    -0.051 Br
ENDBRANCH   3  21
TORSDOF 5
ENDMDL
MODEL 3
REMARK VINA RESULT:      -8.8      6.929      9.492
REMARK  5 active torsions:
REMARK  status: ('A' for Active; 'I' for Inactive)
REMARK    1  A    between atoms: C_2  and  C_3 
REMARK    2  A    between atoms: C_3  and  C_4 
REMARK    3  A    between atoms: C_8  and  N_9 
REMARK       I    between atoms: N_9  and  C_10 
REMARK    4  A    between atoms: C_10  and  C_11 
REMARK    5  A    between atoms: N_13  and  C_14 
ROOT
HETATM    1  C   UNL     1      45.765 -10.767   8.230  1.00  0.00     0.106 C 
HETATM    2  C   UNL     1      44.784 -10.785   9.381  1.00  0.00     0.148 C 
HETATM    3  N   UNL     1      44.164  -9.486   9.333  1.00  0.00    -0.299 N 
HETATM    4  C   UNL     1      44.964  -8.565   8.636  1.00  0.00     0.226 C 
HETATM    5  O   UNL     1      44.794  -7.374   8.432  1.00  0.00    -0.273 OA
HETATM    6  C   UNL     1      46.166  -9.307   8.103  1.00  0.00     0.119 C 
ENDROOT
BRANCH   1   7
HETATM    7  C   UNL     1      45.160 -11.329   6.944  1.00  0.00     0.242 C 
HETATM    8  N   UNL     1      44.171 -12.277   7.130  1.00  0.00    -0.156 N 
HETATM    9  H   UNL     1      43.919 -12.588   8.060  1.00  0.00     0.187 HD
HETATM   10  O   UNL     1      45.589 -10.922   5.867  1.00  0.00    -0.272 OA
BRANCH   8  11
HETATM   11  C   UNL     1      43.502 -12.845   6.072  1.00  0.00     0.725 A 
HETATM   12  N   UNL     1      42.894 -12.087   5.106  1.00  0.00    -0.106 N 
HETATM   13  N   UNL     1      42.296 -12.849   4.177  1.00  0.00    -0.144 NA
HETATM   14  H   UNL     1      42.850 -11.079   5.022  1.00  0.00     0.208 HD
HETATM   15  C   UNL     1      42.586 -14.077   4.623  1.00  0.00     0.166 A 
HETATM   16  N   UNL     1      43.322 -14.108   5.777  1.00  0.00    -0.046 NA
BRANCH  15  17
HETATM   17  C   UNL     1      42.161 -15.319   3.923  1.00  0.00     0.087 C 
BRANCH  17  18
HETATM   18  C   UNL     1      43.285 -15.973   3.098  1.00  0.00    -0.016 C 
HETATM   19  C   UNL     1      43.430 -15.330   1.716  1.00  0.00     0.010 C 
HETATM   20  C   UNL     1      43.011 -17.470   2.943  1.00  0.00     0.010 C 
ENDBRANCH  17  18
ENDBRANCH  15  17
ENDBRANCH   8  11
ENDBRANCH   1   7
BRANCH   3  21
HETATM   21  C   UNL     1      42.955  -9.141   9.933  1.00  0.00     0.165 A 
HETATM   22  N   UNL     1      41.786  -9.285   9.302  1.00  0.00    -0.155 NA
HETATM   23  N   UNL     1      40.867  -8.844  10.167  1.00  0.00    -0.275 N 
HETATM   24  H   UNL     1      39.898  -8.828   9.867  1.00  0.00     0.189 HD
HETATM   25  C   UNL     1      41.372  -8.478  11.380  1.00  0.00     0.065 A 
HETATM   26  C   UNL     1      42.749  -8.657  11.271  1.00  0.00     0.040 A 
HETATM   27  C   UNL     1      40.739  -8.001  12.535  1.00  0.00     0.051 A 
HETATM   28  C   UNL     1      43.548  -8.324  12.387  1.00  0.00     0.019 A 
HETATM   29  C   UNL     1      42.939  -7.848  13.558  1.00  0.00     0.020 A 
HETATM   30  C   UNL     1      41.557  -7.694  13.623  1.00  0.00     0.013 A 
HETATM   31 BR   UNL     1      40.767  -7.044  15.216  1.00  0.00    -0.051 Br
ENDBRANCH   3  21
TORSDOF 5
ENDMDL
MODEL 4
REMARK VINA RESULT:      -8.1      4.329      7.818
REMARK  5 active torsions:
REMARK  status: ('A' for Active; 'I' for Inactive)
REMARK    1  A    between atoms: C_2  and  C_3 
REMARK    2  A    between atoms: C_3  and  C_4 
REMARK    3  A    between atoms: C_8  and  N_9 
REMARK       I    between atoms: N_9  and  C_10 
REMARK    4  A    between atoms: C_10  and  C_11 
REMARK    5  A    between atoms: N_13  and  C_14 
ROOT
HETATM    1  C   UNL     1      41.035 -12.128   5.457  1.00  0.00     0.106 C 
HETATM    2  C   UNL     1      41.195 -13.600   5.761  1.00  0.00     0.148 C 
HETATM    3  N   UNL     1      42.196 -14.044   4.825  1.00  0.00    -0.299 N 
HETATM    4  C   UNL     1      42.289 -13.173   3.727  1.00  0.00     0.226 C 
HETATM    5  O   UNL     1      42.981 -13.243   2.724  1.00  0.00    -0.273 OA
HETATM    6  C   UNL     1      41.351 -12.015   3.975  1.00  0.00     0.119 C 
ENDROOT
BRANCH   1   7
HETATM    7  C   UNL     1      41.942 -11.255   6.323  1.00  0.00     0.242 C 
HETATM    8  N   UNL     1      41.299 -10.225   6.987  1.00  0.00    -0.156 N 
HETATM    9  H   UNL     1      40.309 -10.061   6.854  1.00  0.00     0.187 HD
HETATM   10  O   UNL     1      43.143 -11.510   6.360  1.00  0.00    -0.272 OA
BRANCH   8  11
HETATM   11  C   UNL     1      41.971  -9.379   7.837  1.00  0.00     0.725 A 
HETATM   12  N   UNL     1      42.935  -8.515   7.389  1.00  0.00    -0.106 N 
HETATM   13  N   UNL     1      43.461  -7.792   8.391  1.00  0.00    -0.144 NA
HETATM   14  H   UNL     1      43.272  -8.370   6.446  1.00  0.00     0.208 HD
HETATM   15  C   UNL     1      42.763  -8.253   9.437  1.00  0.00     0.166 A 
HETATM   16  N   UNL     1      41.846  -9.221   9.131  1.00  0.00    -0.046 NA
BRANCH  15  17
HETATM   17  C   UNL     1      42.951  -7.751  10.825  1.00  0.00     0.087 C 
BRANCH  17  18
HETATM   18  C   UNL     1      43.753  -8.712  11.721  1.00  0.00    -0.016 C 
HETATM   19  C   UNL     1      44.677  -9.621  10.905  1.00  0.00     0.010 C 
HETATM   20  C   UNL     1      42.797  -9.566  12.555  1.00  0.00     0.010 C 
ENDBRANCH  17  18
ENDBRANCH  15  17
ENDBRANCH   8  11
ENDBRANCH   1   7
BRANCH   3  21
HETATM   21  C   UNL     1      42.952 -15.209   4.935  1.00  0.00     0.165 A 
HETATM   22  N   UNL     1      43.777 -15.421   5.965  1.00  0.00    -0.155 NA
HETATM   23  N   UNL     1      44.332 -16.613   5.727  1.00  0.00    -0.275 N 
HETATM   24  H   UNL     1      45.033 -16.952   6.377  1.00  0.00     0.189 HD
HETATM   25  C   UNL     1      43.856 -17.238   4.613  1.00  0.00     0.065 A 
HETATM   26  C   UNL     1      42.941 -16.347   4.057  1.00  0.00     0.040 A 
HETATM   27  C   UNL     1      44.161 -18.487   4.056  1.00  0.00     0.051 A 
HETATM   28  C   UNL     1      42.299 -16.723   2.857  1.00  0.00     0.019 A 
HETATM   29  C   UNL     1      42.583 -17.970   2.280  1.00  0.00     0.020 A 
HETATM   30  C   UNL     1      43.499 -18.832   2.876  1.00  0.00     0.013 A 
HETATM   31 BR   UNL     1      43.865 -20.505   2.069  1.00  0.00    -0.051 Br
ENDBRANCH   3  21
TORSDOF 5
ENDMDL
MODEL 5
REMARK VINA RESULT:      -8.1      5.692      9.412
REMARK  5 active torsions:
REMARK  status: ('A' for Active; 'I' for Inactive)
REMARK    1  A    between atoms: C_2  and  C_3 
REMARK    2  A    between atoms: C_3  and  C_4 
REMARK    3  A    between atoms: C_8  and  N_9 
REMARK       I    between atoms: N_9  and  C_10 
REMARK    4  A    between atoms: C_10  and  C_11 
REMARK    5  A    between atoms: N_13  and  C_14 
ROOT
HETATM    1  C   UNL     1      40.645  -9.664   6.599  1.00  0.00     0.106 C 
HETATM    2  C   UNL     1      40.126 -10.829   5.788  1.00  0.00     0.148 C 
HETATM    3  N   UNL     1      41.088 -11.875   6.023  1.00  0.00    -0.299 N 
HETATM    4  C   UNL     1      42.316 -11.350   6.457  1.00  0.00     0.226 C 
HETATM    5  O   UNL     1      43.368 -11.916   6.707  1.00  0.00    -0.273 OA
HETATM    6  C   UNL     1      42.152  -9.856   6.610  1.00  0.00     0.119 C 
ENDROOT
BRANCH   1   7
HETATM    7  C   UNL     1      40.045  -9.621   8.004  1.00  0.00     0.242 C 
HETATM    8  N   UNL     1      40.958  -9.420   9.023  1.00  0.00    -0.156 N 
HETATM    9  H   UNL     1      41.949  -9.354   8.826  1.00  0.00     0.187 HD
HETATM   10  O   UNL     1      38.833  -9.776   8.130  1.00  0.00    -0.272 OA
BRANCH   8  11
HETATM   11  C   UNL     1      40.569  -9.316  10.337  1.00  0.00     0.725 A 
HETATM   12  N   UNL     1      39.919 -10.335  10.985  1.00  0.00    -0.106 N 
HETATM   13  N   UNL     1      39.628 -10.012  12.255  1.00  0.00    -0.144 NA
HETATM   14  H   UNL     1      39.652 -11.245  10.632  1.00  0.00     0.208 HD
HETATM   15  C   UNL     1      40.141  -8.778  12.333  1.00  0.00     0.166 A 
HETATM   16  N   UNL     1      40.723  -8.326  11.180  1.00  0.00    -0.046 NA
BRANCH  15  17
HETATM   17  C   UNL     1      40.102  -7.957  13.573  1.00  0.00     0.087 C 
BRANCH  17  18
HETATM   18  C   UNL     1      41.066  -8.452  14.667  1.00  0.00    -0.016 C 
HETATM   19  C   UNL     1      41.035  -7.554  15.907  1.00  0.00     0.010 C 
HETATM   20  C   UNL     1      42.491  -8.516  14.114  1.00  0.00     0.010 C 
ENDBRANCH  17  18
ENDBRANCH  15  17
ENDBRANCH   8  11
ENDBRANCH   1   7
BRANCH   3  21
HETATM   21  C   UNL     1      40.878 -13.235   5.807  1.00  0.00     0.165 A 
HETATM   22  N   UNL     1      39.915 -13.912   6.441  1.00  0.00    -0.155 NA
HETATM   23  N   UNL     1      40.024 -15.168   5.999  1.00  0.00    -0.275 N 
HETATM   24  H   UNL     1      39.402 -15.868   6.392  1.00  0.00     0.189 HD
HETATM   25  C   UNL     1      40.978 -15.343   5.041  1.00  0.00     0.065 A 
HETATM   26  C   UNL     1      41.568 -14.091   4.882  1.00  0.00     0.040 A 
HETATM   27  C   UNL     1      41.367 -16.483   4.326  1.00  0.00     0.051 A 
HETATM   28  C   UNL     1      42.628 -13.975   3.955  1.00  0.00     0.019 A 
HETATM   29  C   UNL     1      43.035 -15.100   3.223  1.00  0.00     0.020 A 
HETATM   30  C   UNL     1      42.410 -16.329   3.410  1.00  0.00     0.013 A 
HETATM   31 BR   UNL     1      42.986 -17.830   2.410  1.00  0.00    -0.051 Br
ENDBRANCH   3  21
TORSDOF 5
ENDMDL
MODEL 6
REMARK VINA RESULT:      -7.9      2.334      2.671
REMARK  5 active torsions:
REMARK  status: ('A' for Active; 'I' for Inactive)
REMARK    1  A    between atoms: C_2  and  C_3 
REMARK    2  A    between atoms: C_3  and  C_4 
REMARK    3  A    between atoms: C_8  and  N_9 
REMARK       I    between atoms: N_9  and  C_10 
REMARK    4  A    between atoms: C_10  and  C_11 
REMARK    5  A    between atoms: N_13  and  C_14 
ROOT
HETATM    1  C   UNL     1      41.500 -11.896   4.933  1.00  0.00     0.106 C 
HETATM    2  C   UNL     1      42.773 -12.687   5.123  1.00  0.00     0.148 C 
HETATM    3  N   UNL     1      42.316 -14.008   5.471  1.00  0.00    -0.299 N 
HETATM    4  C   UNL     1      41.002 -13.978   5.968  1.00  0.00     0.226 C 
HETATM    5  O   UNL     1      40.305 -14.881   6.401  1.00  0.00    -0.273 OA
HETATM    6  C   UNL     1      40.504 -12.555   5.871  1.00  0.00     0.119 C 
ENDROOT
BRANCH   1   7
HETATM    7  C   UNL     1      41.030 -11.894   3.478  1.00  0.00     0.242 C 
HETATM    8  N   UNL     1      41.891 -11.282   2.587  1.00  0.00    -0.156 N 
HETATM    9  H   UNL     1      42.742 -10.837   2.910  1.00  0.00     0.187 HD
HETATM   10  O   UNL     1      39.947 -12.410   3.211  1.00  0.00    -0.272 OA
BRANCH   8  11
HETATM   11  C   UNL     1      41.630 -11.237   1.239  1.00  0.00     0.725 A 
HETATM   12  N   UNL     1      41.136 -12.319   0.558  1.00  0.00    -0.106 N 
HETATM   13  N   UNL     1      40.964 -12.052  -0.747  1.00  0.00    -0.144 NA
HETATM   14  H   UNL     1      40.901 -13.239   0.909  1.00  0.00     0.208 HD
HETATM   15  C   UNL     1      41.360 -10.774  -0.803  1.00  0.00     0.166 A 
HETATM   16  N   UNL     1      41.771 -10.248   0.391  1.00  0.00    -0.046 NA
BRANCH  15  17
HETATM   17  C   UNL     1      41.346  -9.973  -2.057  1.00  0.00     0.087 C 
BRANCH  17  18
HETATM   18  C   UNL     1      41.354  -8.453  -1.814  1.00  0.00    -0.016 C 
HETATM   19  C   UNL     1      39.937  -7.877  -1.741  1.00  0.00     0.010 C 
HETATM   20  C   UNL     1      42.138  -7.752  -2.925  1.00  0.00     0.010 C 
ENDBRANCH  17  18
ENDBRANCH  15  17
ENDBRANCH   8  11
ENDBRANCH   1   7
BRANCH   3  21
HETATM   21  C   UNL     1      43.069 -15.177   5.388  1.00  0.00     0.165 A 
HETATM   22  N   UNL     1      43.988 -15.492   6.307  1.00  0.00    -0.155 NA
HETATM   23  N   UNL     1      44.507 -16.653   5.895  1.00  0.00    -0.275 N 
HETATM   24  H   UNL     1      45.265 -17.056   6.437  1.00  0.00     0.189 HD
HETATM   25  C   UNL     1      43.921 -17.161   4.774  1.00  0.00     0.065 A 
HETATM   26  C   UNL     1      42.964 -16.219   4.403  1.00  0.00     0.040 A 
HETATM   27  C   UNL     1      44.161 -18.345   4.066  1.00  0.00     0.051 A 
HETATM   28  C   UNL     1      42.207 -16.471   3.238  1.00  0.00     0.019 A 
HETATM   29  C   UNL     1      42.424 -17.651   2.512  1.00  0.00     0.020 A 
HETATM   30  C   UNL     1      43.386 -18.569   2.926  1.00  0.00     0.013 A 
HETATM   31 BR   UNL     1      43.659 -20.150   1.921  1.00  0.00    -0.051 Br
ENDBRANCH   3  21
TORSDOF 5
ENDMDL
MODEL 7
REMARK VINA RESULT:      -7.9      4.551      8.734
REMARK  5 active torsions:
REMARK  status: ('A' for Active; 'I' for Inactive)
REMARK    1  A    between atoms: C_2  and  C_3 
REMARK    2  A    between atoms: C_3  and  C_4 
REMARK    3  A    between atoms: C_8  and  N_9 
REMARK       I    between atoms: N_9  and  C_10 
REMARK    4  A    between atoms: C_10  and  C_11 
REMARK    5  A    between atoms: N_13  and  C_14 
ROOT
HETATM    1  C   UNL     1      43.011 -13.920   5.377  1.00  0.00     0.106 C 
HETATM    2  C   UNL     1      43.009 -13.915   3.865  1.00  0.00     0.148 C 
HETATM    3  N   UNL     1      41.739 -13.330   3.519  1.00  0.00    -0.299 N 
HETATM    4  C   UNL     1      40.824 -13.435   4.579  1.00  0.00     0.226 C 
HETATM    5  O   UNL     1      39.651 -13.100   4.641  1.00  0.00    -0.273 OA
HETATM    6  C   UNL     1      41.545 -14.054   5.753  1.00  0.00     0.119 C 
ENDROOT
BRANCH   1   7
HETATM    7  C   UNL     1      43.659 -12.665   5.960  1.00  0.00     0.242 C 
HETATM    8  N   UNL     1      43.510 -12.513   7.327  1.00  0.00    -0.156 N 
HETATM    9  H   UNL     1      42.969 -13.178   7.867  1.00  0.00     0.187 HD
HETATM   10  O   UNL     1      44.238 -11.895   5.199  1.00  0.00    -0.272 OA
BRANCH   8  11
HETATM   11  C   UNL     1      44.072 -11.459   8.006  1.00  0.00     0.725 A 
HETATM   12  N   UNL     1      44.977 -10.615   7.416  1.00  0.00    -0.106 N 
HETATM   13  N   UNL     1      45.398  -9.664   8.265  1.00  0.00    -0.144 NA
HETATM   14  H   UNL     1      45.338 -10.629   6.470  1.00  0.00     0.208 HD
HETATM   15  C   UNL     1      44.701  -9.971   9.365  1.00  0.00     0.166 A 
HETATM   16  N   UNL     1      43.882 -11.060   9.239  1.00  0.00    -0.046 NA
BRANCH  15  17
HETATM   17  C   UNL     1      44.788  -9.190  10.628  1.00  0.00     0.087 C 
BRANCH  17  18
HETATM   18  C   UNL     1      43.453  -8.547  11.046  1.00  0.00    -0.016 C 
HETATM   19  C   UNL     1      43.145  -7.286  10.235  1.00  0.00     0.010 C 
HETATM   20  C   UNL     1      43.485  -8.205  12.537  1.00  0.00     0.010 C 
ENDBRANCH  17  18
ENDBRANCH  15  17
ENDBRANCH   8  11
ENDBRANCH   1   7
BRANCH   3  21
HETATM   21  C   UNL     1      41.410 -12.774   2.285  1.00  0.00     0.165 A 
HETATM   22  N   UNL     1      41.699 -11.505   1.981  1.00  0.00    -0.155 NA
HETATM   23  N   UNL     1      41.229 -11.326   0.744  1.00  0.00    -0.275 N 
HETATM   24  H   UNL     1      41.309 -10.403   0.330  1.00  0.00     0.189 HD
HETATM   25  C   UNL     1      40.699 -12.450   0.180  1.00  0.00     0.065 A 
HETATM   26  C   UNL     1      40.798 -13.432   1.163  1.00  0.00     0.040 A 
HETATM   27  C   UNL     1      40.142 -12.670  -1.086  1.00  0.00     0.051 A 
HETATM   28  C   UNL     1      40.292 -14.717   0.864  1.00  0.00     0.019 A 
HETATM   29  C   UNL     1      39.733 -14.965  -0.398  1.00  0.00     0.020 A 
HETATM   30  C   UNL     1      39.663 -13.954  -1.352  1.00  0.00     0.013 A 
HETATM   31 BR   UNL     1      38.897 -14.321  -3.043  1.00  0.00    -0.051 Br
ENDBRANCH   3  21
TORSDOF 5
ENDMDL
MODEL 8
REMARK VINA RESULT:      -7.8      4.490      9.129
REMARK  5 active torsions:
REMARK  status: ('A' for Active; 'I' for Inactive)
REMARK    1  A    between atoms: C_2  and  C_3 
REMARK    2  A    between atoms: C_3  and  C_4 
REMARK    3  A    between atoms: C_8  and  N_9 
REMARK       I    between atoms: N_9  and  C_10 
REMARK    4  A    between atoms: C_10  and  C_11 
REMARK    5  A    between atoms: N_13  and  C_14 
ROOT
HETATM    1  C   UNL     1      39.022 -13.705  -2.175  1.00  0.00     0.106 C 
HETATM    2  C   UNL     1      39.661 -12.761  -3.168  1.00  0.00     0.148 C 
HETATM    3  N   UNL     1      39.037 -11.492  -2.895  1.00  0.00    -0.299 N 
HETATM    4  C   UNL     1      37.812 -11.659  -2.229  1.00  0.00     0.226 C 
HETATM    5  O   UNL     1      36.988 -10.829  -1.880  1.00  0.00    -0.273 OA
HETATM    6  C   UNL     1      37.633 -13.133  -1.955  1.00  0.00     0.119 C 
ENDROOT
BRANCH   1   7
HETATM    7  C   UNL     1      39.827 -13.818  -0.881  1.00  0.00     0.242 C 
HETATM    8  N   UNL     1      39.522 -14.915  -0.097  1.00  0.00    -0.156 N 
HETATM    9  H   UNL     1      38.784 -15.555  -0.365  1.00  0.00     0.187 HD
HETATM   10  O   UNL     1      40.656 -12.946  -0.627  1.00  0.00    -0.272 OA
BRANCH   8  11
HETATM   11  C   UNL     1      40.188 -15.177   1.076  1.00  0.00     0.725 A 
HETATM   12  N   UNL     1      39.533 -15.288   2.275  1.00  0.00    -0.106 N 
HETATM   13  N   UNL     1      40.381 -15.538   3.285  1.00  0.00    -0.144 NA
HETATM   14  H   UNL     1      38.543 -15.207   2.469  1.00  0.00     0.208 HD
HETATM   15  C   UNL     1      41.551 -15.584   2.636  1.00  0.00     0.166 A 
HETATM   16  N   UNL     1      41.466 -15.369   1.287  1.00  0.00    -0.046 NA
BRANCH  15  17
HETATM   17  C   UNL     1      42.847 -15.860   3.313  1.00  0.00     0.087 C 
BRANCH  17  18
HETATM   18  C   UNL     1      42.997 -17.320   3.778  1.00  0.00    -0.016 C 
HETATM   19  C   UNL     1      44.084 -17.473   4.846  1.00  0.00     0.010 C 
HETATM   20  C   UNL     1      43.322 -18.216   2.581  1.00  0.00     0.010 C 
ENDBRANCH  17  18
ENDBRANCH  15  17
ENDBRANCH   8  11
ENDBRANCH   1   7
BRANCH   3  21
HETATM   21  C   UNL     1      39.530 -10.246  -3.276  1.00  0.00     0.165 A 
HETATM   22  N   UNL     1      38.977  -9.539  -4.267  1.00  0.00    -0.155 NA
HETATM   23  N   UNL     1      39.713  -8.427  -4.354  1.00  0.00    -0.275 N 
HETATM   24  H   UNL     1      39.485  -7.760  -5.084  1.00  0.00     0.189 HD
HETATM   25  C   UNL     1      40.694  -8.331  -3.412  1.00  0.00     0.065 A 
HETATM   26  C   UNL     1      40.611  -9.511  -2.677  1.00  0.00     0.040 A 
HETATM   27  C   UNL     1      41.636  -7.325  -3.163  1.00  0.00     0.051 A 
HETATM   28  C   UNL     1      41.541  -9.704  -1.631  1.00  0.00     0.019 A 
HETATM   29  C   UNL     1      42.492  -8.710  -1.358  1.00  0.00     0.020 A 
HETATM   30  C   UNL     1      42.532  -7.542  -2.114  1.00  0.00     0.013 A 
HETATM   31 BR   UNL     1      43.831  -6.223  -1.723  1.00  0.00    -0.051 Br
ENDBRANCH   3  21
TORSDOF 5
ENDMDL
MODEL 9
REMARK VINA RESULT:      -7.7      3.392      7.178
REMARK  5 active torsions:
REMARK  status: ('A' for Active; 'I' for Inactive)
REMARK    1  A    between atoms: C_2  and  C_3 
REMARK    2  A    between atoms: C_3  and  C_4 
REMARK    3  A    between atoms: C_8  and  N_9 
REMARK       I    between atoms: N_9  and  C_10 
REMARK    4  A    between atoms: C_10  and  C_11 
REMARK    5  A    between atoms: N_13  and  C_14 
ROOT
HETATM    1  C   UNL     1      40.055 -10.641   3.505  1.00  0.00     0.106 C 
HETATM    2  C   UNL     1      39.684 -12.103   3.609  1.00  0.00     0.148 C 
HETATM    3  N   UNL     1      40.241 -12.690   2.417  1.00  0.00    -0.299 N 
HETATM    4  C   UNL     1      40.459 -11.719   1.425  1.00  0.00     0.226 C 
HETATM    5  O   UNL     1      40.868 -11.843   0.281  1.00  0.00    -0.273 OA
HETATM    6  C   UNL     1      40.108 -10.372   2.011  1.00  0.00     0.119 C 
ENDROOT
BRANCH   1   7
HETATM    7  C   UNL     1      41.373 -10.325   4.210  1.00  0.00     0.242 C 
HETATM    8  N   UNL     1      41.976 -11.404   4.831  1.00  0.00    -0.156 N 
HETATM    9  H   UNL     1      41.530 -12.313   4.839  1.00  0.00     0.187 HD
HETATM   10  O   UNL     1      41.789  -9.169   4.188  1.00  0.00    -0.272 OA
BRANCH   8  11
HETATM   11  C   UNL     1      43.187 -11.290   5.471  1.00  0.00     0.725 A 
HETATM   12  N   UNL     1      44.376 -11.448   4.808  1.00  0.00    -0.106 N 
HETATM   13  N   UNL     1      45.428 -11.301   5.630  1.00  0.00    -0.144 NA
HETATM   14  H   UNL     1      44.538 -11.649   3.830  1.00  0.00     0.208 HD
HETATM   15  C   UNL     1      44.815 -11.039   6.791  1.00  0.00     0.166 A 
HETATM   16  N   UNL     1      43.448 -11.024   6.727  1.00  0.00    -0.046 NA
BRANCH  15  17
HETATM   17  C   UNL     1      45.550 -10.769   8.056  1.00  0.00     0.087 C 
BRANCH  17  18
HETATM   18  C   UNL     1      44.803  -9.817   9.008  1.00  0.00    -0.016 C 
HETATM   19  C   UNL     1      44.974  -8.350   8.603  1.00  0.00     0.010 C 
HETATM   20  C   UNL     1      45.303 -10.017  10.440  1.00  0.00     0.010 C 
ENDBRANCH  17  18
ENDBRANCH  15  17
ENDBRANCH   8  11
ENDBRANCH   1   7
BRANCH   3  21
HETATM   21  C   UNL     1      40.491 -14.046   2.220  1.00  0.00     0.165 A 
HETATM   22  N   UNL     1      39.806 -14.770   1.330  1.00  0.00    -0.155 NA
HETATM   23  N   UNL     1      40.303 -16.006   1.429  1.00  0.00    -0.275 N 
HETATM   24  H   UNL     1      39.888 -16.735   0.859  1.00  0.00     0.189 HD
HETATM   25  C   UNL     1      41.345 -16.121   2.302  1.00  0.00     0.065 A 
HETATM   26  C   UNL     1      41.504 -14.849   2.849  1.00  0.00     0.040 A 
HETATM   27  C   UNL     1      42.134 -17.223   2.655  1.00  0.00     0.051 A 
HETATM   28  C   UNL     1      42.511 -14.672   3.823  1.00  0.00     0.019 A 
HETATM   29  C   UNL     1      43.318 -15.758   4.192  1.00  0.00     0.020 A 
HETATM   30  C   UNL     1      43.128 -17.009   3.612  1.00  0.00     0.013 A 
HETATM   31 BR   UNL     1      44.230 -18.456   4.135  1.00  0.00    -0.051 Br
ENDBRANCH   3  21
TORSDOF 5
ENDMDL
MODEL 10
REMARK VINA RESULT:      -7.7      4.265      8.247
REMARK  5 active torsions:
REMARK  status: ('A' for Active; 'I' for Inactive)
REMARK    1  A    between atoms: C_2  and  C_3 
REMARK    2  A    between atoms: C_3  and  C_4 
REMARK    3  A    between atoms: C_8  and  N_9 
REMARK       I    between atoms: N_9  and  C_10 
REMARK    4  A    between atoms: C_10  and  C_11 
REMARK    5  A    between atoms: N_13  and  C_14 
ROOT
HETATM    1  C   UNL     1      40.773 -10.762   4.992  1.00  0.00     0.106 C 
HETATM    2  C   UNL     1      40.251 -11.990   4.280  1.00  0.00     0.148 C 
HETATM    3  N   UNL     1      41.189 -12.197   3.206  1.00  0.00    -0.299 N 
HETATM    4  C   UNL     1      41.890 -11.016   2.908  1.00  0.00     0.226 C 
HETATM    5  O   UNL     1      42.720 -10.793   2.041  1.00  0.00    -0.273 OA
HETATM    6  C   UNL     1      41.463  -9.961   3.901  1.00  0.00     0.119 C 
ENDROOT
BRANCH   1   7
HETATM    7  C   UNL     1      41.708 -11.115   6.148  1.00  0.00     0.242 C 
HETATM    8  N   UNL     1      42.357 -10.038   6.723  1.00  0.00    -0.156 N 
HETATM    9  H   UNL     1      42.235  -9.102   6.355  1.00  0.00     0.187 HD
HETATM   10  O   UNL     1      41.826 -12.295   6.469  1.00  0.00    -0.272 OA
BRANCH   8  11
HETATM   11  C   UNL     1      43.199 -10.187   7.799  1.00  0.00     0.725 A 
HETATM   12  N   UNL     1      44.419 -10.801   7.687  1.00  0.00    -0.106 N 
HETATM   13  N   UNL     1      45.066 -10.843   8.863  1.00  0.00    -0.144 NA
HETATM   14  H   UNL     1      44.858 -11.200   6.867  1.00  0.00     0.208 HD
HETATM   15  C   UNL     1      44.190 -10.221   9.662  1.00  0.00     0.166 A 
HETATM   16  N   UNL     1      43.042  -9.808   9.043  1.00  0.00    -0.046 NA
BRANCH  15  17
HETATM   17  C   UNL     1      44.439  -9.978  11.109  1.00  0.00     0.087 C 
BRANCH  17  18
HETATM   18  C   UNL     1      43.194  -9.491  11.872  1.00  0.00    -0.016 C 
HETATM   19  C   UNL     1      43.484  -8.238  12.702  1.00  0.00     0.010 C 
HETATM   20  C   UNL     1      42.676 -10.604  12.785  1.00  0.00     0.010 C 
ENDBRANCH  17  18
ENDBRANCH  15  17
ENDBRANCH   8  11
ENDBRANCH   1   7
BRANCH   3  21
HETATM   21  C   UNL     1      41.364 -13.383   2.498  1.00  0.00     0.165 A 
HETATM   22  N   UNL     1      40.867 -13.553   1.269  1.00  0.00    -0.155 NA
HETATM   23  N   UNL     1      41.216 -14.795   0.922  1.00  0.00    -0.275 N 
HETATM   24  H   UNL     1      40.897 -15.148   0.025  1.00  0.00     0.189 HD
HETATM   25  C   UNL     1      41.989 -15.438   1.843  1.00  0.00     0.065 A 
HETATM   26  C   UNL     1      42.113 -14.542   2.903  1.00  0.00     0.040 A 
HETATM   27  C   UNL     1      42.566 -16.714   1.833  1.00  0.00     0.051 A 
HETATM   28  C   UNL     1      42.852 -14.955   4.033  1.00  0.00     0.019 A 
HETATM   29  C   UNL     1      43.444 -16.227   4.047  1.00  0.00     0.020 A 
HETATM   30  C   UNL     1      43.300 -17.086   2.961  1.00  0.00     0.013 A 
HETATM   31 BR   UNL     1      44.106 -18.797   3.013  1.00  0.00    -0.051 Br
ENDBRANCH   3  21
TORSDOF 5
ENDMDL
