MODEL 1
REMARK VINA RESULT:      -8.3      0.000      0.000
REMARK  11 active torsions:
REMARK  status: ('A' for Active; 'I' for Inactive)
REMARK    1  A    between atoms: C_2  and  O_3 
REMARK    2  A    between atoms: C_2  and  C_4 
REMARK    3  A    between atoms: C_8  and  C_9 
REMARK    4  A    between atoms: C_12  and  C_13 
REMARK    5  A    between atoms: C_13  and  C_14 
REMARK    6  A    between atoms: C_14  and  N_15 
REMARK    7  A    between atoms: C_14  and  C_29 
REMARK       I    between atoms: N_15  and  C_16 
REMARK    8  A    between atoms: C_16  and  C_17 
REMARK    9  A    between atoms: C_21  and  O_22 
REMARK   10  A    between atoms: O_22  and  C_23 
REMARK   11  A    between atoms: C_29  and  N_30 
ROOT
HETATM    1  C   UNL     1      44.145 -18.466   4.874  1.00  0.00     0.114 C 
ENDROOT
BRANCH   1   2
HETATM    2  C   UNL     1      43.928 -18.722   3.359  1.00  0.00     0.065 C 
BRANCH   2   3
HETATM    3  C   UNL     1      43.221 -17.597   2.639  1.00  0.00    -0.056 A 
HETATM    4  C   UNL     1      43.938 -16.534   2.072  1.00  0.00     0.008 A 
HETATM    5  C   UNL     1      43.273 -15.457   1.476  1.00  0.00     0.014 A 
HETATM    6  C   UNL     1      41.874 -15.401   1.455  1.00  0.00    -0.006 A 
HETATM    7  C   UNL     1      41.160 -16.462   2.029  1.00  0.00     0.014 A 
HETATM    8  C   UNL     1      41.822 -17.545   2.615  1.00  0.00     0.008 A 
BRANCH   6   9
HETATM    9  C   UNL     1      41.151 -14.268   0.893  1.00  0.00     0.085 A 
HETATM   10  C   UNL     1      41.225 -12.955   1.305  1.00  0.00     0.130 A 
HETATM   11  N   UNL     1      40.345 -12.263   0.510  1.00  0.00    -0.315 N 
HETATM   12  C   UNL     1      39.774 -13.184  -0.358  1.00  0.00     0.143 A 
HETATM   13  C   UNL     1      40.033 -10.909   0.520  1.00  0.00     0.098 A 
HETATM   14  C   UNL     1      38.794 -12.708  -1.304  1.00  0.00     0.017 A 
HETATM   15  N   UNL     1      40.253 -14.395  -0.146  1.00  0.00    -0.228 NA
HETATM   16  C   UNL     1      38.509 -11.380  -1.284  1.00  0.00     0.015 A 
HETATM   17  C   UNL     1      39.129 -10.447  -0.356  1.00  0.00     0.018 A 
BRANCH  14  18
HETATM   18  C   UNL     1      38.126 -13.651  -2.293  1.00  0.00     0.150 C 
HETATM   19  C   UNL     1      36.932 -12.994  -2.979  1.00  0.00     0.044 C 
BRANCH  18  20
HETATM   20  O   UNL     1      39.048 -14.075  -3.300  1.00  0.00    -0.391 OA
HETATM   21  H   UNL     1      39.813 -14.460  -2.839  1.00  0.00     0.210 HD
ENDBRANCH  18  20
ENDBRANCH  14  18
ENDBRANCH   6   9
ENDBRANCH   2   3
ENDBRANCH   1   2
BRANCH   1  22
HETATM   22  N   UNL     1      43.493 -17.193   5.251  1.00  0.00    -0.350 N 
HETATM   23  C   UNL     1      44.135 -16.173   5.922  1.00  0.00     0.252 C 
HETATM   24  O   UNL     1      45.242 -16.327   6.429  1.00  0.00    -0.268 OA
HETATM   25  H   UNL     1      42.720 -16.894   4.661  1.00  0.00     0.163 HD
BRANCH  23  26
HETATM   26  C   UNL     1      43.428 -14.869   5.989  1.00  0.00     0.033 A 
HETATM   27  C   UNL     1      42.195 -14.744   5.344  1.00  0.00     0.043 A 
HETATM   28  C   UNL     1      41.508 -13.528   5.392  1.00  0.00     0.068 A 
HETATM   29 CL   UNL     1      39.979 -13.431   4.595  1.00  0.00    -0.081 Cl
HETATM   30  C   UNL     1      42.057 -12.421   6.056  1.00  0.00     0.091 A 
HETATM   31  C   UNL     1      43.286 -12.557   6.707  1.00  0.00     0.039 A 
HETATM   32  C   UNL     1      43.976 -13.773   6.667  1.00  0.00     0.020 A 
BRANCH  30  33
HETATM   33  O   UNL     1      41.323 -11.266   6.084  1.00  0.00    -0.345 OA
BRANCH  33  34
HETATM   34  C   UNL     1      41.916 -10.087   5.522  1.00  0.00     0.121 C 
HETATM   35  C   UNL     1      42.024 -10.201   4.002  1.00  0.00     0.040 C 
HETATM   36  C   UNL     1      41.002  -8.922   5.892  1.00  0.00     0.040 C 
ENDBRANCH  33  34
ENDBRANCH  30  33
ENDBRANCH  23  26
ENDBRANCH   1  22
BRANCH   1  37
HETATM   37  C   UNL     1      43.636 -19.694   5.682  1.00  0.00     0.254 C 
BRANCH  37  38
HETATM   38  N   UNL     1      44.302 -20.952   5.257  1.00  0.00    -0.077 N 
HETATM   39  H   UNL     1      44.266 -21.100   4.243  1.00  0.00     0.274 HD
HETATM   40  H   UNL     1      45.319 -20.908   5.486  1.00  0.00     0.274 HD
HETATM   41  H   UNL     1      43.932 -21.785   5.727  1.00  0.00     0.274 HD
ENDBRANCH  37  38
ENDBRANCH   1  37
TORSDOF 11
ENDMDL
MODEL 2
REMARK VINA RESULT:      -8.1      2.449      5.578
REMARK  11 active torsions:
REMARK  status: ('A' for Active; 'I' for Inactive)
REMARK    1  A    between atoms: C_2  and  O_3 
REMARK    2  A    between atoms: C_2  and  C_4 
REMARK    3  A    between atoms: C_8  and  C_9 
REMARK    4  A    between atoms: C_12  and  C_13 
REMARK    5  A    between atoms: C_13  and  C_14 
REMARK    6  A    between atoms: C_14  and  N_15 
REMARK    7  A    between atoms: C_14  and  C_29 
REMARK       I    between atoms: N_15  and  C_16 
REMARK    8  A    between atoms: C_16  and  C_17 
REMARK    9  A    between atoms: C_21  and  O_22 
REMARK   10  A    between atoms: O_22  and  C_23 
REMARK   11  A    between atoms: C_29  and  N_30 
ROOT
HETATM    1  C   UNL     1      43.893 -11.892   7.208  1.00  0.00     0.114 C 
ENDROOT
BRANCH   1   2
HETATM    2  C   UNL     1      42.899 -10.917   6.522  1.00  0.00     0.065 C 
BRANCH   2   3
HETATM    3  C   UNL     1      42.307 -11.446   5.236  1.00  0.00    -0.056 A 
HETATM    4  C   UNL     1      42.966 -11.278   4.010  1.00  0.00     0.008 A 
HETATM    5  C   UNL     1      42.375 -11.700   2.814  1.00  0.00     0.014 A 
HETATM    6  C   UNL     1      41.099 -12.276   2.808  1.00  0.00    -0.006 A 
HETATM    7  C   UNL     1      40.440 -12.436   4.034  1.00  0.00     0.014 A 
HETATM    8  C   UNL     1      41.032 -12.025   5.233  1.00  0.00     0.008 A 
BRANCH   6   9
HETATM    9  C   UNL     1      40.433 -12.675   1.576  1.00  0.00     0.085 A 
HETATM   10  C   UNL     1      40.580 -13.874   0.910  1.00  0.00     0.130 A 
HETATM   11  N   UNL     1      39.790 -13.779  -0.209  1.00  0.00    -0.315 N 
HETATM   12  C   UNL     1      39.189 -12.527  -0.175  1.00  0.00     0.143 A 
HETATM   13  C   UNL     1      39.587 -14.709  -1.220  1.00  0.00     0.098 A 
HETATM   14  C   UNL     1      38.305 -12.168  -1.257  1.00  0.00     0.017 A 
HETATM   15  N   UNL     1      39.560 -11.853   0.897  1.00  0.00    -0.228 NA
HETATM   16  C   UNL     1      38.113 -13.095  -2.232  1.00  0.00     0.015 A 
HETATM   17  C   UNL     1      38.763 -14.396  -2.232  1.00  0.00     0.018 A 
BRANCH  14  18
HETATM   18  C   UNL     1      37.603 -10.820  -1.293  1.00  0.00     0.150 C 
HETATM   19  C   UNL     1      36.576 -10.749  -2.418  1.00  0.00     0.044 C 
BRANCH  18  20
HETATM   20  O   UNL     1      36.937 -10.556  -0.055  1.00  0.00    -0.391 OA
HETATM   21  H   UNL     1      36.131 -11.098  -0.046  1.00  0.00     0.210 HD
ENDBRANCH  18  20
ENDBRANCH  14  18
ENDBRANCH   6   9
ENDBRANCH   2   3
ENDBRANCH   1   2
BRANCH   1  22
HETATM   22  N   UNL     1      43.985 -13.135   6.411  1.00  0.00    -0.350 N 
HETATM   23  C   UNL     1      43.636 -14.379   6.891  1.00  0.00     0.252 C 
HETATM   24  O   UNL     1      43.406 -14.575   8.081  1.00  0.00    -0.268 OA
HETATM   25  H   UNL     1      43.901 -13.028   5.403  1.00  0.00     0.163 HD
BRANCH  23  26
HETATM   26  C   UNL     1      43.533 -15.475   5.893  1.00  0.00     0.033 A 
HETATM   27  C   UNL     1      42.453 -15.471   5.007  1.00  0.00     0.043 A 
HETATM   28  C   UNL     1      42.332 -16.490   4.058  1.00  0.00     0.068 A 
HETATM   29 CL   UNL     1      40.989 -16.429   2.973  1.00  0.00    -0.081 Cl
HETATM   30  C   UNL     1      43.267 -17.534   4.004  1.00  0.00     0.091 A 
HETATM   31  C   UNL     1      44.350 -17.525   4.887  1.00  0.00     0.039 A 
HETATM   32  C   UNL     1      44.480 -16.505   5.837  1.00  0.00     0.020 A 
BRANCH  30  33
HETATM   33  O   UNL     1      43.103 -18.487   3.037  1.00  0.00    -0.345 OA
BRANCH  33  34
HETATM   34  C   UNL     1      43.991 -19.614   3.056  1.00  0.00     0.121 C 
HETATM   35  C   UNL     1      43.715 -20.506   4.266  1.00  0.00     0.040 C 
HETATM   36  C   UNL     1      43.735 -20.392   1.768  1.00  0.00     0.040 C 
ENDBRANCH  33  34
ENDBRANCH  30  33
ENDBRANCH  23  26
ENDBRANCH   1  22
BRANCH   1  37
HETATM   37  C   UNL     1      45.259 -11.176   7.412  1.00  0.00     0.254 C 
BRANCH  37  38
HETATM   38  N   UNL     1      46.105 -11.239   6.192  1.00  0.00    -0.077 N 
HETATM   39  H   UNL     1      46.671 -12.093   6.143  1.00  0.00     0.274 HD
HETATM   40  H   UNL     1      45.499 -11.270   5.343  1.00  0.00     0.274 HD
HETATM   41  H   UNL     1      46.720 -10.426   6.085  1.00  0.00     0.274 HD
ENDBRANCH  37  38
ENDBRANCH   1  37
TORSDOF 11
ENDMDL
MODEL 3
REMARK VINA RESULT:      -8.0      1.485      2.347
REMARK  11 active torsions:
REMARK  status: ('A' for Active; 'I' for Inactive)
REMARK    1  A    between atoms: C_2  and  O_3 
REMARK    2  A    between atoms: C_2  and  C_4 
REMARK    3  A    between atoms: C_8  and  C_9 
REMARK    4  A    between atoms: C_12  and  C_13 
REMARK    5  A    between atoms: C_13  and  C_14 
REMARK    6  A    between atoms: C_14  and  N_15 
REMARK    7  A    between atoms: C_14  and  C_29 
REMARK       I    between atoms: N_15  and  C_16 
REMARK    8  A    between atoms: C_16  and  C_17 
REMARK    9  A    between atoms: C_21  and  O_22 
REMARK   10  A    between atoms: O_22  and  C_23 
REMARK   11  A    between atoms: C_29  and  N_30 
ROOT
HETATM    1  C   UNL     1      44.000 -17.961   4.911  1.00  0.00     0.114 C 
ENDROOT
BRANCH   1   2
HETATM    2  C   UNL     1      43.725 -18.343   3.433  1.00  0.00     0.065 C 
BRANCH   2   3
HETATM    3  C   UNL     1      42.996 -17.278   2.647  1.00  0.00    -0.056 A 
HETATM    4  C   UNL     1      43.692 -16.243   2.008  1.00  0.00     0.008 A 
HETATM    5  C   UNL     1      43.006 -15.217   1.348  1.00  0.00     0.014 A 
HETATM    6  C   UNL     1      41.607 -15.184   1.333  1.00  0.00    -0.006 A 
HETATM    7  C   UNL     1      40.913 -16.216   1.979  1.00  0.00     0.014 A 
HETATM    8  C   UNL     1      41.596 -17.250   2.630  1.00  0.00     0.008 A 
BRANCH   6   9
HETATM    9  C   UNL     1      40.862 -14.102   0.704  1.00  0.00     0.085 A 
HETATM   10  C   UNL     1      39.894 -14.224  -0.271  1.00  0.00     0.130 A 
HETATM   11  N   UNL     1      39.509 -12.943  -0.577  1.00  0.00    -0.315 N 
HETATM   12  C   UNL     1      40.254 -12.091   0.227  1.00  0.00     0.143 A 
HETATM   13  C   UNL     1      38.568 -12.508  -1.503  1.00  0.00     0.098 A 
HETATM   14  C   UNL     1      40.044 -10.671   0.092  1.00  0.00     0.017 A 
HETATM   15  N   UNL     1      41.069 -12.774   1.010  1.00  0.00    -0.228 NA
HETATM   16  C   UNL     1      39.114 -10.267  -0.812  1.00  0.00     0.015 A 
HETATM   17  C   UNL     1      38.354 -11.191  -1.639  1.00  0.00     0.018 A 
BRANCH  14  18
HETATM   18  C   UNL     1      40.816  -9.672   0.941  1.00  0.00     0.150 C 
HETATM   19  C   UNL     1      40.193  -9.508   2.323  1.00  0.00     0.044 C 
BRANCH  18  20
HETATM   20  O   UNL     1      42.177 -10.080   1.104  1.00  0.00    -0.391 OA
HETATM   21  H   UNL     1      42.241 -10.992   0.772  1.00  0.00     0.210 HD
ENDBRANCH  18  20
ENDBRANCH  14  18
ENDBRANCH   6   9
ENDBRANCH   2   3
ENDBRANCH   1   2
BRANCH   1  22
HETATM   22  N   UNL     1      43.332 -16.676   5.216  1.00  0.00    -0.350 N 
HETATM   23  C   UNL     1      43.911 -15.668   5.957  1.00  0.00     0.252 C 
HETATM   24  O   UNL     1      44.951 -15.842   6.586  1.00  0.00    -0.268 OA
HETATM   25  H   UNL     1      42.636 -16.364   4.543  1.00  0.00     0.163 HD
BRANCH  23  26
HETATM   26  C   UNL     1      43.224 -14.351   5.947  1.00  0.00     0.033 A 
HETATM   27  C   UNL     1      42.037 -14.224   5.221  1.00  0.00     0.043 A 
HETATM   28  C   UNL     1      41.370 -12.996   5.195  1.00  0.00     0.068 A 
HETATM   29 CL   UNL     1      39.897 -12.896   4.299  1.00  0.00    -0.081 Cl
HETATM   30  C   UNL     1      41.894 -11.881   5.865  1.00  0.00     0.091 A 
HETATM   31  C   UNL     1      43.076 -12.020   6.597  1.00  0.00     0.039 A 
HETATM   32  C   UNL     1      43.747 -13.247   6.632  1.00  0.00     0.020 A 
BRANCH  30  33
HETATM   33  O   UNL     1      41.180 -10.715   5.818  1.00  0.00    -0.345 OA
BRANCH  33  34
HETATM   34  C   UNL     1      40.226 -10.476   6.863  1.00  0.00     0.121 C 
HETATM   35  C   UNL     1      40.732  -9.406   7.830  1.00  0.00     0.040 C 
HETATM   36  C   UNL     1      38.946  -9.999   6.183  1.00  0.00     0.040 C 
ENDBRANCH  33  34
ENDBRANCH  30  33
ENDBRANCH  23  26
ENDBRANCH   1  22
BRANCH   1  37
HETATM   37  C   UNL     1      43.560 -19.130   5.838  1.00  0.00     0.254 C 
BRANCH  37  38
HETATM   38  N   UNL     1      44.093 -20.437   5.372  1.00  0.00    -0.077 N 
HETATM   39  H   UNL     1      44.122 -21.143   6.115  1.00  0.00     0.274 HD
HETATM   40  H   UNL     1      43.461 -20.837   4.645  1.00  0.00     0.274 HD
HETATM   41  H   UNL     1      45.023 -20.365   4.947  1.00  0.00     0.274 HD
ENDBRANCH  37  38
ENDBRANCH   1  37
TORSDOF 11
ENDMDL
MODEL 4
REMARK VINA RESULT:      -7.8      8.563     13.621
REMARK  11 active torsions:
REMARK  status: ('A' for Active; 'I' for Inactive)
REMARK    1  A    between atoms: C_2  and  O_3 
REMARK    2  A    between atoms: C_2  and  C_4 
REMARK    3  A    between atoms: C_8  and  C_9 
REMARK    4  A    between atoms: C_12  and  C_13 
REMARK    5  A    between atoms: C_13  and  C_14 
REMARK    6  A    between atoms: C_14  and  N_15 
REMARK    7  A    between atoms: C_14  and  C_29 
REMARK       I    between atoms: N_15  and  C_16 
REMARK    8  A    between atoms: C_16  and  C_17 
REMARK    9  A    between atoms: C_21  and  O_22 
REMARK   10  A    between atoms: O_22  and  C_23 
REMARK   11  A    between atoms: C_29  and  N_30 
ROOT
HETATM    1  C   UNL     1      42.932  -9.571   9.329  1.00  0.00     0.114 C 
ENDROOT
BRANCH   1   2
HETATM    2  C   UNL     1      43.331 -10.320  10.629  1.00  0.00     0.065 C 
BRANCH   2   3
HETATM    3  C   UNL     1      42.983  -9.579  11.898  1.00  0.00    -0.056 A 
HETATM    4  C   UNL     1      41.938 -10.010  12.728  1.00  0.00     0.008 A 
HETATM    5  C   UNL     1      41.570  -9.274  13.860  1.00  0.00     0.014 A 
HETATM    6  C   UNL     1      42.218  -8.075  14.178  1.00  0.00    -0.006 A 
HETATM    7  C   UNL     1      43.257  -7.643  13.343  1.00  0.00     0.014 A 
HETATM    8  C   UNL     1      43.635  -8.381  12.217  1.00  0.00     0.008 A 
BRANCH   6   9
HETATM    9  C   UNL     1      41.823  -7.257  15.317  1.00  0.00     0.085 A 
HETATM   10  C   UNL     1      41.704  -5.883  15.344  1.00  0.00     0.130 A 
HETATM   11  N   UNL     1      41.347  -5.565  16.631  1.00  0.00    -0.315 N 
HETATM   12  C   UNL     1      41.257  -6.760  17.334  1.00  0.00     0.143 A 
HETATM   13  C   UNL     1      41.110  -4.316  17.191  1.00  0.00     0.098 A 
HETATM   14  C   UNL     1      40.902  -6.701  18.731  1.00  0.00     0.017 A 
HETATM   15  N   UNL     1      41.534  -7.789  16.555  1.00  0.00    -0.228 NA
HETATM   16  C   UNL     1      40.666  -5.472  19.258  1.00  0.00     0.015 A 
HETATM   17  C   UNL     1      40.773  -4.242  18.488  1.00  0.00     0.018 A 
BRANCH  14  18
HETATM   18  C   UNL     1      40.777  -7.963  19.569  1.00  0.00     0.150 C 
HETATM   19  C   UNL     1      39.385  -8.577  19.460  1.00  0.00     0.044 C 
BRANCH  18  20
HETATM   20  O   UNL     1      41.736  -8.945  19.166  1.00  0.00    -0.391 OA
HETATM   21  H   UNL     1      41.336  -9.816  19.330  1.00  0.00     0.210 HD
ENDBRANCH  18  20
ENDBRANCH  14  18
ENDBRANCH   6   9
ENDBRANCH   2   3
ENDBRANCH   1   2
BRANCH   1  22
HETATM   22  N   UNL     1      42.793 -10.548   8.227  1.00  0.00    -0.350 N 
HETATM   23  C   UNL     1      43.834 -10.934   7.410  1.00  0.00     0.252 C 
HETATM   24  O   UNL     1      44.913 -10.347   7.413  1.00  0.00    -0.268 OA
HETATM   25  H   UNL     1      42.056 -11.241   8.333  1.00  0.00     0.163 HD
BRANCH  23  26
HETATM   26  C   UNL     1      43.596 -12.109   6.533  1.00  0.00     0.033 A 
HETATM   27  C   UNL     1      43.722 -13.388   7.082  1.00  0.00     0.043 A 
HETATM   28  C   UNL     1      43.503 -14.511   6.280  1.00  0.00     0.068 A 
HETATM   29 CL   UNL     1      43.654 -16.068   7.012  1.00  0.00    -0.081 Cl
HETATM   30  C   UNL     1      43.186 -14.370   4.921  1.00  0.00     0.091 A 
HETATM   31  C   UNL     1      43.051 -13.088   4.382  1.00  0.00     0.039 A 
HETATM   32  C   UNL     1      43.264 -11.959   5.181  1.00  0.00     0.020 A 
BRANCH  30  33
HETATM   33  O   UNL     1      42.962 -15.509   4.197  1.00  0.00    -0.345 OA
BRANCH  33  34
HETATM   34  C   UNL     1      42.375 -15.366   2.896  1.00  0.00     0.121 C 
HETATM   35  C   UNL     1      43.253 -16.013   1.826  1.00  0.00     0.040 C 
HETATM   36  C   UNL     1      41.020 -16.068   2.950  1.00  0.00     0.040 C 
ENDBRANCH  33  34
ENDBRANCH  30  33
ENDBRANCH  23  26
ENDBRANCH   1  22
BRANCH   1  37
HETATM   37  C   UNL     1      41.647  -8.735   9.590  1.00  0.00     0.254 C 
BRANCH  37  38
HETATM   38  N   UNL     1      40.412  -9.535   9.376  1.00  0.00    -0.077 N 
HETATM   39  H   UNL     1      39.686  -9.019   8.867  1.00  0.00     0.274 HD
HETATM   40  H   UNL     1      40.627 -10.361   8.775  1.00  0.00     0.274 HD
HETATM   41  H   UNL     1      40.011  -9.900  10.246  1.00  0.00     0.274 HD
ENDBRANCH  37  38
ENDBRANCH   1  37
TORSDOF 11
ENDMDL
MODEL 5
REMARK VINA RESULT:      -7.6      9.108     14.174
REMARK  11 active torsions:
REMARK  status: ('A' for Active; 'I' for Inactive)
REMARK    1  A    between atoms: C_2  and  O_3 
REMARK    2  A    between atoms: C_2  and  C_4 
REMARK    3  A    between atoms: C_8  and  C_9 
REMARK    4  A    between atoms: C_12  and  C_13 
REMARK    5  A    between atoms: C_13  and  C_14 
REMARK    6  A    between atoms: C_14  and  N_15 
REMARK    7  A    between atoms: C_14  and  C_29 
REMARK       I    between atoms: N_15  and  C_16 
REMARK    8  A    between atoms: C_16  and  C_17 
REMARK    9  A    between atoms: C_21  and  O_22 
REMARK   10  A    between atoms: O_22  and  C_23 
REMARK   11  A    between atoms: C_29  and  N_30 
ROOT
HETATM    1  C   UNL     1      42.199  -9.099   9.749  1.00  0.00     0.114 C 
ENDROOT
BRANCH   1   2
HETATM    2  C   UNL     1      42.871  -9.731  10.996  1.00  0.00     0.065 C 
BRANCH   2   3
HETATM    3  C   UNL     1      42.510  -9.057  12.299  1.00  0.00    -0.056 A 
HETATM    4  C   UNL     1      43.233  -7.952  12.769  1.00  0.00     0.008 A 
HETATM    5  C   UNL     1      42.943  -7.382  14.014  1.00  0.00     0.014 A 
HETATM    6  C   UNL     1      41.941  -7.918  14.833  1.00  0.00    -0.006 A 
HETATM    7  C   UNL     1      41.225  -9.027  14.362  1.00  0.00     0.014 A 
HETATM    8  C   UNL     1      41.505  -9.592  13.114  1.00  0.00     0.008 A 
BRANCH   6   9
HETATM    9  C   UNL     1      41.651  -7.384  16.157  1.00  0.00     0.085 A 
HETATM   10  C   UNL     1      41.892  -6.100  16.598  1.00  0.00     0.130 A 
HETATM   11  N   UNL     1      41.492  -6.076  17.911  1.00  0.00    -0.315 N 
HETATM   12  C   UNL     1      41.019  -7.346  18.215  1.00  0.00     0.143 A 
HETATM   13  C   UNL     1      41.529  -5.025  18.820  1.00  0.00     0.098 A 
HETATM   14  C   UNL     1      40.542  -7.591  19.553  1.00  0.00     0.017 A 
HETATM   15  N   UNL     1      41.101  -8.143  17.167  1.00  0.00    -0.228 NA
HETATM   16  C   UNL     1      40.578  -6.549  20.424  1.00  0.00     0.015 A 
HETATM   17  C   UNL     1      41.083  -5.232  20.068  1.00  0.00     0.018 A 
BRANCH  14  18
HETATM   18  C   UNL     1      40.002  -8.952  19.964  1.00  0.00     0.150 C 
HETATM   19  C   UNL     1      40.383  -9.300  21.400  1.00  0.00     0.044 C 
BRANCH  18  20
HETATM   20  O   UNL     1      38.577  -8.995  19.851  1.00  0.00    -0.391 OA
HETATM   21  H   UNL     1      38.288  -8.109  19.574  1.00  0.00     0.210 HD
ENDBRANCH  18  20
ENDBRANCH  14  18
ENDBRANCH   6   9
ENDBRANCH   2   3
ENDBRANCH   1   2
BRANCH   1  22
HETATM   22  N   UNL     1      42.210 -10.078   8.639  1.00  0.00    -0.350 N 
HETATM   23  C   UNL     1      43.299 -10.300   7.824  1.00  0.00     0.252 C 
HETATM   24  O   UNL     1      44.278  -9.559   7.834  1.00  0.00    -0.268 OA
HETATM   25  H   UNL     1      41.583 -10.873   8.739  1.00  0.00     0.163 HD
BRANCH  23  26
HETATM   26  C   UNL     1      43.240 -11.492   6.939  1.00  0.00     0.033 A 
HETATM   27  C   UNL     1      42.388 -11.459   5.831  1.00  0.00     0.043 A 
HETATM   28  C   UNL     1      42.315 -12.566   4.982  1.00  0.00     0.068 A 
HETATM   29 CL   UNL     1      41.261 -12.468   3.617  1.00  0.00    -0.081 Cl
HETATM   30  C   UNL     1      43.063 -13.722   5.245  1.00  0.00     0.091 A 
HETATM   31  C   UNL     1      43.920 -13.743   6.348  1.00  0.00     0.039 A 
HETATM   32  C   UNL     1      44.003 -12.636   7.200  1.00  0.00     0.020 A 
BRANCH  30  33
HETATM   33  O   UNL     1      42.962 -14.762   4.361  1.00  0.00    -0.345 OA
BRANCH  33  34
HETATM   34  C   UNL     1      42.337 -15.969   4.823  1.00  0.00     0.121 C 
HETATM   35  C   UNL     1      40.994 -16.188   4.129  1.00  0.00     0.040 C 
HETATM   36  C   UNL     1      43.291 -17.110   4.481  1.00  0.00     0.040 C 
ENDBRANCH  33  34
ENDBRANCH  30  33
ENDBRANCH  23  26
ENDBRANCH   1  22
BRANCH   1  37
HETATM   37  C   UNL     1      40.776  -8.598  10.128  1.00  0.00     0.254 C 
BRANCH  37  38
HETATM   38  N   UNL     1      39.741  -9.638   9.888  1.00  0.00    -0.077 N 
HETATM   39  H   UNL     1      39.925 -10.509  10.398  1.00  0.00     0.274 HD
HETATM   40  H   UNL     1      38.819  -9.307  10.247  1.00  0.00     0.274 HD
HETATM   41  H   UNL     1      39.609  -9.856   8.895  1.00  0.00     0.274 HD
ENDBRANCH  37  38
ENDBRANCH   1  37
TORSDOF 11
ENDMDL
MODEL 6
REMARK VINA RESULT:      -7.5      2.669      7.515
REMARK  11 active torsions:
REMARK  status: ('A' for Active; 'I' for Inactive)
REMARK    1  A    between atoms: C_2  and  O_3 
REMARK    2  A    between atoms: C_2  and  C_4 
REMARK    3  A    between atoms: C_8  and  C_9 
REMARK    4  A    between atoms: C_12  and  C_13 
REMARK    5  A    between atoms: C_13  and  C_14 
REMARK    6  A    between atoms: C_14  and  N_15 
REMARK    7  A    between atoms: C_14  and  C_29 
REMARK       I    between atoms: N_15  and  C_16 
REMARK    8  A    between atoms: C_16  and  C_17 
REMARK    9  A    between atoms: C_21  and  O_22 
REMARK   10  A    between atoms: O_22  and  C_23 
REMARK   11  A    between atoms: C_29  and  N_30 
ROOT
HETATM    1  C   UNL     1      39.377 -10.085   1.130  1.00  0.00     0.114 C 
ENDROOT
BRANCH   1   2
HETATM    2  C   UNL     1      38.778 -11.504   0.943  1.00  0.00     0.065 C 
BRANCH   2   3
HETATM    3  C   UNL     1      39.667 -12.619   1.445  1.00  0.00    -0.056 A 
HETATM    4  C   UNL     1      40.742 -13.091   0.679  1.00  0.00     0.008 A 
HETATM    5  C   UNL     1      41.512 -14.175   1.114  1.00  0.00     0.014 A 
HETATM    6  C   UNL     1      41.211 -14.834   2.312  1.00  0.00    -0.006 A 
HETATM    7  C   UNL     1      40.131 -14.364   3.072  1.00  0.00     0.014 A 
HETATM    8  C   UNL     1      39.366 -13.273   2.646  1.00  0.00     0.008 A 
BRANCH   6   9
HETATM    9  C   UNL     1      41.957 -15.999   2.767  1.00  0.00     0.085 A 
HETATM   10  C   UNL     1      42.319 -17.093   2.010  1.00  0.00     0.130 A 
HETATM   11  N   UNL     1      42.970 -17.943   2.869  1.00  0.00    -0.315 N 
HETATM   12  C   UNL     1      42.982 -17.329   4.115  1.00  0.00     0.143 A 
HETATM   13  C   UNL     1      43.527 -19.190   2.614  1.00  0.00     0.098 A 
HETATM   14  C   UNL     1      43.606 -18.029   5.211  1.00  0.00     0.017 A 
HETATM   15  N   UNL     1      42.383 -16.154   4.069  1.00  0.00    -0.228 NA
HETATM   16  C   UNL     1      44.154 -19.242   4.939  1.00  0.00     0.015 A 
HETATM   17  C   UNL     1      44.118 -19.853   3.619  1.00  0.00     0.018 A 
BRANCH  14  18
HETATM   18  C   UNL     1      43.668 -17.423   6.604  1.00  0.00     0.150 C 
HETATM   19  C   UNL     1      44.777 -16.382   6.718  1.00  0.00     0.044 C 
BRANCH  18  20
HETATM   20  O   UNL     1      42.427 -16.800   6.948  1.00  0.00    -0.391 OA
HETATM   21  H   UNL     1      42.609 -16.197   7.689  1.00  0.00     0.210 HD
ENDBRANCH  18  20
ENDBRANCH  14  18
ENDBRANCH   6   9
ENDBRANCH   2   3
ENDBRANCH   1   2
BRANCH   1  22
HETATM   22  N   UNL     1      40.322 -10.100   2.269  1.00  0.00    -0.350 N 
HETATM   23  C   UNL     1      39.993  -9.688   3.542  1.00  0.00     0.252 C 
HETATM   24  O   UNL     1      38.946  -9.092   3.780  1.00  0.00    -0.268 OA
HETATM   25  H   UNL     1      41.065 -10.794   2.224  1.00  0.00     0.163 HD
BRANCH  23  26
HETATM   26  C   UNL     1      40.961 -10.013   4.621  1.00  0.00     0.033 A 
HETATM   27  C   UNL     1      41.598 -11.257   4.593  1.00  0.00     0.043 A 
HETATM   28  C   UNL     1      42.513 -11.588   5.595  1.00  0.00     0.068 A 
HETATM   29 CL   UNL     1      43.287 -13.130   5.505  1.00  0.00    -0.081 Cl
HETATM   30  C   UNL     1      42.779 -10.699   6.647  1.00  0.00     0.091 A 
HETATM   31  C   UNL     1      42.145  -9.453   6.662  1.00  0.00     0.039 A 
HETATM   32  C   UNL     1      41.231  -9.112   5.658  1.00  0.00     0.020 A 
BRANCH  30  33
HETATM   33  O   UNL     1      43.702 -11.075   7.583  1.00  0.00    -0.345 OA
BRANCH  33  34
HETATM   34  C   UNL     1      44.901 -10.295   7.687  1.00  0.00     0.121 C 
HETATM   35  C   UNL     1      45.292 -10.085   9.150  1.00  0.00     0.040 C 
HETATM   36  C   UNL     1      45.994 -11.079   6.965  1.00  0.00     0.040 C 
ENDBRANCH  33  34
ENDBRANCH  30  33
ENDBRANCH  23  26
ENDBRANCH   1  22
BRANCH   1  37
HETATM   37  C   UNL     1      40.017  -9.615  -0.208  1.00  0.00     0.254 C 
BRANCH  37  38
HETATM   38  N   UNL     1      41.500  -9.697  -0.171  1.00  0.00    -0.077 N 
HETATM   39  H   UNL     1      41.897 -10.132  -1.011  1.00  0.00     0.274 HD
HETATM   40  H   UNL     1      41.906  -8.736  -0.150  1.00  0.00     0.274 HD
HETATM   41  H   UNL     1      41.858 -10.185   0.656  1.00  0.00     0.274 HD
ENDBRANCH  37  38
ENDBRANCH   1  37
TORSDOF 11
ENDMDL
MODEL 7
REMARK VINA RESULT:      -7.5      3.477      9.245
REMARK  11 active torsions:
REMARK  status: ('A' for Active; 'I' for Inactive)
REMARK    1  A    between atoms: C_2  and  O_3 
REMARK    2  A    between atoms: C_2  and  C_4 
REMARK    3  A    between atoms: C_8  and  C_9 
REMARK    4  A    between atoms: C_12  and  C_13 
REMARK    5  A    between atoms: C_13  and  C_14 
REMARK    6  A    between atoms: C_14  and  N_15 
REMARK    7  A    between atoms: C_14  and  C_29 
REMARK       I    between atoms: N_15  and  C_16 
REMARK    8  A    between atoms: C_16  and  C_17 
REMARK    9  A    between atoms: C_21  and  O_22 
REMARK   10  A    between atoms: O_22  and  C_23 
REMARK   11  A    between atoms: C_29  and  N_30 
ROOT
HETATM    1  C   UNL     1      38.900 -11.531   1.337  1.00  0.00     0.114 C 
ENDROOT
BRANCH   1   2
HETATM    2  C   UNL     1      38.446 -10.808   2.633  1.00  0.00     0.065 C 
BRANCH   2   3
HETATM    3  C   UNL     1      39.508 -10.745   3.707  1.00  0.00    -0.056 A 
HETATM    4  C   UNL     1      39.377 -11.469   4.900  1.00  0.00     0.008 A 
HETATM    5  C   UNL     1      40.324 -11.345   5.922  1.00  0.00     0.014 A 
HETATM    6  C   UNL     1      41.412 -10.473   5.790  1.00  0.00    -0.006 A 
HETATM    7  C   UNL     1      41.536  -9.746   4.599  1.00  0.00     0.014 A 
HETATM    8  C   UNL     1      40.597  -9.876   3.570  1.00  0.00     0.008 A 
BRANCH   6   9
HETATM    9  C   UNL     1      42.385 -10.279   6.856  1.00  0.00     0.085 A 
HETATM   10  C   UNL     1      43.715 -10.643   6.835  1.00  0.00     0.130 A 
HETATM   11  N   UNL     1      44.217 -10.296   8.065  1.00  0.00    -0.315 N 
HETATM   12  C   UNL     1      43.172  -9.729   8.784  1.00  0.00     0.143 A 
HETATM   13  C   UNL     1      45.504 -10.455   8.564  1.00  0.00     0.098 A 
HETATM   14  C   UNL     1      43.436  -9.283  10.130  1.00  0.00     0.017 A 
HETATM   15  N   UNL     1      42.064  -9.705   8.068  1.00  0.00    -0.228 NA
HETATM   16  C   UNL     1      44.703  -9.439  10.595  1.00  0.00     0.015 A 
HETATM   17  C   UNL     1      45.771 -10.041   9.811  1.00  0.00     0.018 A 
BRANCH  14  18
HETATM   18  C   UNL     1      42.349  -8.647  10.981  1.00  0.00     0.150 C 
HETATM   19  C   UNL     1      42.895  -8.153  12.316  1.00  0.00     0.044 C 
BRANCH  18  20
HETATM   20  O   UNL     1      41.747  -7.541  10.302  1.00  0.00    -0.391 OA
HETATM   21  H   UNL     1      41.818  -6.773  10.893  1.00  0.00     0.210 HD
ENDBRANCH  18  20
ENDBRANCH  14  18
ENDBRANCH   6   9
ENDBRANCH   2   3
ENDBRANCH   1   2
BRANCH   1  22
HETATM   22  N   UNL     1      39.476 -12.848   1.689  1.00  0.00    -0.350 N 
HETATM   23  C   UNL     1      40.703 -13.290   1.245  1.00  0.00     0.252 C 
HETATM   24  O   UNL     1      41.324 -12.703   0.363  1.00  0.00    -0.268 OA
HETATM   25  H   UNL     1      39.175 -13.244   2.577  1.00  0.00     0.163 HD
BRANCH  23  26
HETATM   26  C   UNL     1      41.251 -14.508   1.896  1.00  0.00     0.033 A 
HETATM   27  C   UNL     1      40.743 -14.883   3.143  1.00  0.00     0.043 A 
HETATM   28  C   UNL     1      41.240 -16.024   3.778  1.00  0.00     0.068 A 
HETATM   29 CL   UNL     1      40.566 -16.455   5.309  1.00  0.00    -0.081 Cl
HETATM   30  C   UNL     1      42.264 -16.782   3.192  1.00  0.00     0.091 A 
HETATM   31  C   UNL     1      42.759 -16.406   1.940  1.00  0.00     0.039 A 
HETATM   32  C   UNL     1      42.262 -15.267   1.296  1.00  0.00     0.020 A 
BRANCH  30  33
HETATM   33  O   UNL     1      42.690 -17.900   3.855  1.00  0.00    -0.345 OA
BRANCH  33  34
HETATM   34  C   UNL     1      44.062 -17.947   4.269  1.00  0.00     0.121 C 
HETATM   35  C   UNL     1      44.324 -16.958   5.405  1.00  0.00     0.040 C 
HETATM   36  C   UNL     1      44.324 -19.371   4.750  1.00  0.00     0.040 C 
ENDBRANCH  33  34
ENDBRANCH  30  33
ENDBRANCH  23  26
ENDBRANCH   1  22
BRANCH   1  37
HETATM   37  C   UNL     1      37.703 -11.616   0.347  1.00  0.00     0.254 C 
BRANCH  37  38
HETATM   38  N   UNL     1      37.949 -12.603  -0.737  1.00  0.00    -0.077 N 
HETATM   39  H   UNL     1      37.635 -13.548  -0.493  1.00  0.00     0.274 HD
HETATM   40  H   UNL     1      37.394 -12.345  -1.582  1.00  0.00     0.274 HD
HETATM   41  H   UNL     1      38.930 -12.644  -1.030  1.00  0.00     0.274 HD
ENDBRANCH  37  38
ENDBRANCH   1  37
TORSDOF 11
ENDMDL
MODEL 8
REMARK VINA RESULT:      -7.5      2.860      8.268
REMARK  11 active torsions:
REMARK  status: ('A' for Active; 'I' for Inactive)
REMARK    1  A    between atoms: C_2  and  O_3 
REMARK    2  A    between atoms: C_2  and  C_4 
REMARK    3  A    between atoms: C_8  and  C_9 
REMARK    4  A    between atoms: C_12  and  C_13 
REMARK    5  A    between atoms: C_13  and  C_14 
REMARK    6  A    between atoms: C_14  and  N_15 
REMARK    7  A    between atoms: C_14  and  C_29 
REMARK       I    between atoms: N_15  and  C_16 
REMARK    8  A    between atoms: C_16  and  C_17 
REMARK    9  A    between atoms: C_21  and  O_22 
REMARK   10  A    between atoms: O_22  and  C_23 
REMARK   11  A    between atoms: C_29  and  N_30 
ROOT
HETATM    1  C   UNL     1      38.896 -12.133  -0.677  1.00  0.00     0.114 C 
ENDROOT
BRANCH   1   2
HETATM    2  C   UNL     1      39.048 -10.695  -0.116  1.00  0.00     0.065 C 
BRANCH   2   3
HETATM    3  C   UNL     1      39.958 -10.595   1.086  1.00  0.00    -0.056 A 
HETATM    4  C   UNL     1      41.337 -10.821   0.973  1.00  0.00     0.008 A 
HETATM    5  C   UNL     1      42.162 -10.805   2.104  1.00  0.00     0.014 A 
HETATM    6  C   UNL     1      41.626 -10.590   3.379  1.00  0.00    -0.006 A 
HETATM    7  C   UNL     1      40.247 -10.371   3.490  1.00  0.00     0.014 A 
HETATM    8  C   UNL     1      39.421 -10.376   2.361  1.00  0.00     0.008 A 
BRANCH   6   9
HETATM    9  C   UNL     1      42.448 -10.621   4.582  1.00  0.00     0.085 A 
HETATM   10  C   UNL     1      43.688 -11.209   4.718  1.00  0.00     0.130 A 
HETATM   11  N   UNL     1      44.050 -11.016   6.028  1.00  0.00    -0.315 N 
HETATM   12  C   UNL     1      43.017 -10.314   6.636  1.00  0.00     0.143 A 
HETATM   13  C   UNL     1      45.205 -11.421   6.687  1.00  0.00     0.098 A 
HETATM   14  C   UNL     1      43.147  -9.990   8.035  1.00  0.00     0.017 A 
HETATM   15  N   UNL     1      42.048 -10.062   5.777  1.00  0.00    -0.228 NA
HETATM   16  C   UNL     1      44.287 -10.386   8.658  1.00  0.00     0.015 A 
HETATM   17  C   UNL     1      45.347 -11.123   7.987  1.00  0.00     0.018 A 
BRANCH  14  18
HETATM   18  C   UNL     1      42.064  -9.218   8.772  1.00  0.00     0.150 C 
HETATM   19  C   UNL     1      42.111  -7.729   8.445  1.00  0.00     0.044 C 
BRANCH  18  20
HETATM   20  O   UNL     1      40.765  -9.713   8.440  1.00  0.00    -0.391 OA
HETATM   21  H   UNL     1      40.893 -10.560   7.979  1.00  0.00     0.210 HD
ENDBRANCH  18  20
ENDBRANCH  14  18
ENDBRANCH   6   9
ENDBRANCH   2   3
ENDBRANCH   1   2
BRANCH   1  22
HETATM   22  N   UNL     1      39.252 -13.108   0.378  1.00  0.00    -0.350 N 
HETATM   23  C   UNL     1      40.052 -14.210   0.163  1.00  0.00     0.252 C 
HETATM   24  O   UNL     1      40.368 -14.572  -0.967  1.00  0.00    -0.268 OA
HETATM   25  H   UNL     1      39.264 -12.752   1.330  1.00  0.00     0.163 HD
BRANCH  23  26
HETATM   26  C   UNL     1      40.529 -14.935   1.369  1.00  0.00     0.033 A 
HETATM   27  C   UNL     1      41.704 -15.685   1.275  1.00  0.00     0.043 A 
HETATM   28  C   UNL     1      42.176 -16.375   2.394  1.00  0.00     0.068 A 
HETATM   29 CL   UNL     1      43.643 -17.273   2.230  1.00  0.00    -0.081 Cl
HETATM   30  C   UNL     1      41.468 -16.349   3.604  1.00  0.00     0.091 A 
HETATM   31  C   UNL     1      40.299 -15.588   3.693  1.00  0.00     0.039 A 
HETATM   32  C   UNL     1      39.823 -14.890   2.578  1.00  0.00     0.020 A 
BRANCH  30  33
HETATM   33  O   UNL     1      41.996 -17.029   4.668  1.00  0.00    -0.345 OA
BRANCH  33  34
HETATM   34  C   UNL     1      42.760 -16.279   5.623  1.00  0.00     0.121 C 
HETATM   35  C   UNL     1      42.006 -16.153   6.947  1.00  0.00     0.040 C 
HETATM   36  C   UNL     1      44.062 -17.047   5.837  1.00  0.00     0.040 C 
ENDBRANCH  33  34
ENDBRANCH  30  33
ENDBRANCH  23  26
ENDBRANCH   1  22
BRANCH   1  37
HETATM   37  C   UNL     1      37.458 -12.318  -1.241  1.00  0.00     0.254 C 
BRANCH  37  38
HETATM   38  N   UNL     1      37.351 -13.528  -2.098  1.00  0.00    -0.077 N 
HETATM   39  H   UNL     1      37.963 -14.291  -1.790  1.00  0.00     0.274 HD
HETATM   40  H   UNL     1      36.385 -13.918  -2.039  1.00  0.00     0.274 HD
HETATM   41  H   UNL     1      37.531 -13.338  -3.090  1.00  0.00     0.274 HD
ENDBRANCH  37  38
ENDBRANCH   1  37
TORSDOF 11
ENDMDL
MODEL 9
REMARK VINA RESULT:      -7.4      2.947      8.220
REMARK  11 active torsions:
REMARK  status: ('A' for Active; 'I' for Inactive)
REMARK    1  A    between atoms: C_2  and  O_3 
REMARK    2  A    between atoms: C_2  and  C_4 
REMARK    3  A    between atoms: C_8  and  C_9 
REMARK    4  A    between atoms: C_12  and  C_13 
REMARK    5  A    between atoms: C_13  and  C_14 
REMARK    6  A    between atoms: C_14  and  N_15 
REMARK    7  A    between atoms: C_14  and  C_29 
REMARK       I    between atoms: N_15  and  C_16 
REMARK    8  A    between atoms: C_16  and  C_17 
REMARK    9  A    between atoms: C_21  and  O_22 
REMARK   10  A    between atoms: O_22  and  C_23 
REMARK   11  A    between atoms: C_29  and  N_30 
ROOT
HETATM    1  C   UNL     1      38.761 -12.184  -0.742  1.00  0.00     0.114 C 
ENDROOT
BRANCH   1   2
HETATM    2  C   UNL     1      38.498 -10.757  -0.191  1.00  0.00     0.065 C 
BRANCH   2   3
HETATM    3  C   UNL     1      39.147 -10.484   1.146  1.00  0.00    -0.056 A 
HETATM    4  C   UNL     1      40.525 -10.253   1.251  1.00  0.00     0.008 A 
HETATM    5  C   UNL     1      41.131 -10.079   2.501  1.00  0.00     0.014 A 
HETATM    6  C   UNL     1      40.379 -10.159   3.679  1.00  0.00    -0.006 A 
HETATM    7  C   UNL     1      39.003 -10.397   3.571  1.00  0.00     0.014 A 
HETATM    8  C   UNL     1      38.392 -10.560   2.323  1.00  0.00     0.008 A 
BRANCH   6   9
HETATM    9  C   UNL     1      40.987 -10.038   4.998  1.00  0.00     0.085 A 
HETATM   10  C   UNL     1      40.410  -9.493   6.125  1.00  0.00     0.130 A 
HETATM   11  N   UNL     1      41.367  -9.563   7.106  1.00  0.00    -0.315 N 
HETATM   12  C   UNL     1      42.488 -10.153   6.537  1.00  0.00     0.143 A 
HETATM   13  C   UNL     1      41.300  -9.142   8.428  1.00  0.00     0.098 A 
HETATM   14  C   UNL     1      43.655 -10.336   7.366  1.00  0.00     0.017 A 
HETATM   15  N   UNL     1      42.273 -10.452   5.270  1.00  0.00    -0.228 NA
HETATM   16  C   UNL     1      43.566  -9.926   8.658  1.00  0.00     0.015 A 
HETATM   17  C   UNL     1      42.373  -9.309   9.216  1.00  0.00     0.018 A 
BRANCH  14  18
HETATM   18  C   UNL     1      44.920 -10.980   6.821  1.00  0.00     0.150 C 
HETATM   19  C   UNL     1      46.107 -10.769   7.755  1.00  0.00     0.044 C 
BRANCH  18  20
HETATM   20  O   UNL     1      44.739 -12.386   6.629  1.00  0.00    -0.391 OA
HETATM   21  H   UNL     1      43.807 -12.522   6.389  1.00  0.00     0.210 HD
ENDBRANCH  18  20
ENDBRANCH  14  18
ENDBRANCH   6   9
ENDBRANCH   2   3
ENDBRANCH   1   2
BRANCH   1  22
HETATM   22  N   UNL     1      39.127 -13.079   0.378  1.00  0.00    -0.350 N 
HETATM   23  C   UNL     1      40.042 -14.104   0.271  1.00  0.00     0.252 C 
HETATM   24  O   UNL     1      40.477 -14.475  -0.816  1.00  0.00    -0.268 OA
HETATM   25  H   UNL     1      39.032 -12.688   1.312  1.00  0.00     0.163 HD
BRANCH  23  26
HETATM   26  C   UNL     1      40.493 -14.733   1.539  1.00  0.00     0.033 A 
HETATM   27  C   UNL     1      41.300 -15.872   1.469  1.00  0.00     0.043 A 
HETATM   28  C   UNL     1      41.738 -16.483   2.646  1.00  0.00     0.068 A 
HETATM   29 CL   UNL     1      42.748 -17.878   2.505  1.00  0.00    -0.081 Cl
HETATM   30  C   UNL     1      41.354 -15.984   3.899  1.00  0.00     0.091 A 
HETATM   31  C   UNL     1      40.556 -14.839   3.961  1.00  0.00     0.039 A 
HETATM   32  C   UNL     1      40.117 -14.219   2.786  1.00  0.00     0.020 A 
BRANCH  30  33
HETATM   33  O   UNL     1      41.836 -16.616   5.013  1.00  0.00    -0.345 OA
BRANCH  33  34
HETATM   34  C   UNL     1      42.828 -15.930   5.790  1.00  0.00     0.121 C 
HETATM   35  C   UNL     1      42.378 -15.781   7.243  1.00  0.00     0.040 C 
HETATM   36  C   UNL     1      44.096 -16.778   5.723  1.00  0.00     0.040 C 
ENDBRANCH  33  34
ENDBRANCH  30  33
ENDBRANCH  23  26
ENDBRANCH   1  22
BRANCH   1  37
HETATM   37  C   UNL     1      37.520 -12.663  -1.547  1.00  0.00     0.254 C 
BRANCH  37  38
HETATM   38  N   UNL     1      37.816 -13.878  -2.351  1.00  0.00    -0.077 N 
HETATM   39  H   UNL     1      36.978 -14.287  -2.779  1.00  0.00     0.274 HD
HETATM   40  H   UNL     1      38.433 -13.627  -3.154  1.00  0.00     0.274 HD
HETATM   41  H   UNL     1      38.306 -14.605  -1.819  1.00  0.00     0.274 HD
ENDBRANCH  37  38
ENDBRANCH   1  37
TORSDOF 11
ENDMDL
MODEL 10
REMARK VINA RESULT:      -7.4      5.928      8.992
REMARK  11 active torsions:
REMARK  status: ('A' for Active; 'I' for Inactive)
REMARK    1  A    between atoms: C_2  and  O_3 
REMARK    2  A    between atoms: C_2  and  C_4 
REMARK    3  A    between atoms: C_8  and  C_9 
REMARK    4  A    between atoms: C_12  and  C_13 
REMARK    5  A    between atoms: C_13  and  C_14 
REMARK    6  A    between atoms: C_14  and  N_15 
REMARK    7  A    between atoms: C_14  and  C_29 
REMARK       I    between atoms: N_15  and  C_16 
REMARK    8  A    between atoms: C_16  and  C_17 
REMARK    9  A    between atoms: C_21  and  O_22 
REMARK   10  A    between atoms: O_22  and  C_23 
REMARK   11  A    between atoms: C_29  and  N_30 
ROOT
HETATM    1  C   UNL     1      42.014  -8.570   8.130  1.00  0.00     0.114 C 
ENDROOT
BRANCH   1   2
HETATM    2  C   UNL     1      43.402  -9.218   7.889  1.00  0.00     0.065 C 
BRANCH   2   3
HETATM    3  C   UNL     1      43.339 -10.596   7.270  1.00  0.00    -0.056 A 
HETATM    4  C   UNL     1      44.359 -11.534   7.482  1.00  0.00     0.008 A 
HETATM    5  C   UNL     1      44.334 -12.779   6.842  1.00  0.00     0.014 A 
HETATM    6  C   UNL     1      43.302 -13.107   5.955  1.00  0.00    -0.006 A 
HETATM    7  C   UNL     1      42.288 -12.165   5.740  1.00  0.00     0.014 A 
HETATM    8  C   UNL     1      42.305 -10.924   6.386  1.00  0.00     0.008 A 
BRANCH   6   9
HETATM    9  C   UNL     1      43.274 -14.372   5.231  1.00  0.00     0.085 A 
HETATM   10  C   UNL     1      43.797 -15.575   5.653  1.00  0.00     0.130 A 
HETATM   11  N   UNL     1      43.567 -16.462   4.631  1.00  0.00    -0.315 N 
HETATM   12  C   UNL     1      42.907 -15.763   3.629  1.00  0.00     0.143 A 
HETATM   13  C   UNL     1      43.903 -17.807   4.545  1.00  0.00     0.098 A 
HETATM   14  C   UNL     1      42.554 -16.472   2.424  1.00  0.00     0.017 A 
HETATM   15  N   UNL     1      42.717 -14.504   3.977  1.00  0.00    -0.228 NA
HETATM   16  C   UNL     1      42.884 -17.789   2.363  1.00  0.00     0.015 A 
HETATM   17  C   UNL     1      43.578 -18.486   3.435  1.00  0.00     0.018 A 
BRANCH  14  18
HETATM   18  C   UNL     1      41.826 -15.781   1.282  1.00  0.00     0.150 C 
HETATM   19  C   UNL     1      40.324 -15.705   1.537  1.00  0.00     0.044 C 
BRANCH  18  20
HETATM   20  O   UNL     1      42.319 -14.453   1.088  1.00  0.00    -0.391 OA
HETATM   21  H   UNL     1      41.892 -13.892   1.758  1.00  0.00     0.210 HD
ENDBRANCH  18  20
ENDBRANCH  14  18
ENDBRANCH   6   9
ENDBRANCH   2   3
ENDBRANCH   1   2
BRANCH   1  22
HETATM   22  N   UNL     1      41.841  -8.310   9.577  1.00  0.00    -0.350 N 
HETATM   23  C   UNL     1      40.937  -8.980  10.373  1.00  0.00     0.252 C 
HETATM   24  O   UNL     1      40.069  -9.707   9.898  1.00  0.00    -0.268 OA
HETATM   25  H   UNL     1      42.658  -7.952  10.067  1.00  0.00     0.163 HD
BRANCH  23  26
HETATM   26  C   UNL     1      41.072  -8.794  11.840  1.00  0.00     0.033 A 
HETATM   27  C   UNL     1      42.155  -8.053  12.322  1.00  0.00     0.043 A 
HETATM   28  C   UNL     1      42.305  -7.862  13.698  1.00  0.00     0.068 A 
HETATM   29 CL   UNL     1      43.649  -6.923  14.242  1.00  0.00    -0.081 Cl
HETATM   30  C   UNL     1      41.398  -8.431  14.604  1.00  0.00     0.091 A 
HETATM   31  C   UNL     1      40.313  -9.162  14.114  1.00  0.00     0.039 A 
HETATM   32  C   UNL     1      40.153  -9.353  12.737  1.00  0.00     0.020 A 
BRANCH  30  33
HETATM   33  O   UNL     1      41.590  -8.187  15.937  1.00  0.00    -0.345 OA
BRANCH  33  34
HETATM   34  C   UNL     1      40.604  -7.398  16.618  1.00  0.00     0.121 C 
HETATM   35  C   UNL     1      40.421  -7.878  18.058  1.00  0.00     0.040 C 
HETATM   36  C   UNL     1      41.116  -5.961  16.610  1.00  0.00     0.040 C 
ENDBRANCH  33  34
ENDBRANCH  30  33
ENDBRANCH  23  26
ENDBRANCH   1  22
BRANCH   1  37
HETATM   37  C   UNL     1      41.877  -7.297   7.246  1.00  0.00     0.254 C 
BRANCH  37  38
HETATM   38  N   UNL     1      40.502  -7.145   6.703  1.00  0.00    -0.077 N 
HETATM   39  H   UNL     1      39.779  -7.203   7.428  1.00  0.00     0.274 HD
HETATM   40  H   UNL     1      40.390  -6.194   6.287  1.00  0.00     0.274 HD
HETATM   41  H   UNL     1      40.284  -7.818   5.961  1.00  0.00     0.274 HD
ENDBRANCH  37  38
ENDBRANCH   1  37
TORSDOF 11
ENDMDL
