MODEL 1
REMARK VINA RESULT:      -7.8      0.000      0.000
REMARK  9 active torsions:
REMARK  status: ('A' for Active; 'I' for Inactive)
REMARK    1  A    between atoms: O_2  and  C_3 
REMARK    2  A    between atoms: C_3  and  C_4 
REMARK    3  A    between atoms: C_4  and  O_5 
REMARK    4  A    between atoms: O_5  and  C_6 
REMARK    5  A    between atoms: C_8  and  C_25 
REMARK    6  A    between atoms: C_11  and  C_12 
REMARK       I    between atoms: C_12  and  N_14 
REMARK    7  A    between atoms: N_14  and  C_15 
REMARK    8  A    between atoms: C_15  and  C_17 
REMARK    9  A    between atoms: C_21  and  O_22 
ROOT
HETATM    1  C   UNL     1      42.969 -15.622   3.580  1.00  0.00     0.085 A 
HETATM    2  C   UNL     1      43.246 -16.933   3.170  1.00  0.00     0.050 A 
HETATM    3  C   UNL     1      43.511 -17.936   4.114  1.00  0.00    -0.020 A 
HETATM    4  C   UNL     1      43.497 -17.600   5.474  1.00  0.00     0.013 A 
HETATM    5  C   UNL     1      43.191 -16.298   5.885  1.00  0.00     0.021 A 
HETATM    6  C   UNL     1      42.893 -15.306   4.942  1.00  0.00     0.065 A 
ENDROOT
BRANCH   6   7
HETATM    7  C   UNL     1      42.475 -13.977   5.465  1.00  0.00     0.255 C 
HETATM    8  O   UNL     1      41.701 -13.910   6.414  1.00  0.00    -0.268 OA
HETATM    9  N   UNL     1      42.961 -12.880   4.793  1.00  0.00    -0.349 N 
HETATM   10  H   UNL     1      43.681 -13.026   4.095  1.00  0.00     0.163 HD
BRANCH   9  11
HETATM   11  C   UNL     1      42.675 -11.518   5.205  1.00  0.00     0.114 C 
HETATM   12  C   UNL     1      42.610 -10.603   3.981  1.00  0.00     0.037 C 
BRANCH  11  13
HETATM   13  C   UNL     1      43.690 -11.073   6.243  1.00  0.00    -0.033 A 
HETATM   14  C   UNL     1      45.035 -11.442   6.087  1.00  0.00     0.009 A 
HETATM   15  C   UNL     1      45.995 -11.038   7.013  1.00  0.00     0.003 A 
HETATM   16  C   UNL     1      45.624 -10.245   8.096  1.00  0.00     0.037 A 
HETATM   17  C   UNL     1      44.298  -9.841   8.258  1.00  0.00     0.068 A 
HETATM   18  C   UNL     1      43.336 -10.256   7.333  1.00  0.00     0.046 A 
BRANCH  17  19
HETATM   19  O   UNL     1      44.073  -9.050   9.352  1.00  0.00    -0.356 OA
HETATM   20  C   UNL     1      44.552  -9.531  10.601  1.00  0.00     0.210 C 
ENDBRANCH  17  19
ENDBRANCH  11  13
ENDBRANCH   9  11
ENDBRANCH   6   7
BRANCH   1  21
HETATM   21  O   UNL     1      42.728 -14.709   2.585  1.00  0.00    -0.348 OA
BRANCH  21  22
HETATM   22  C   UNL     1      41.611 -15.102   1.759  1.00  0.00     0.201 C 
BRANCH  22  23
HETATM   23  C   UNL     1      40.305 -14.546   2.326  1.00  0.00     0.193 C 
BRANCH  23  24
HETATM   24  O   UNL     1      40.487 -13.177   2.704  1.00  0.00    -0.394 OA
HETATM   25  C   UNL     1      39.448 -12.732   3.566  1.00  0.00     0.201 C 
ENDBRANCH  23  24
ENDBRANCH  22  23
ENDBRANCH  21  22
ENDBRANCH   1  21
BRANCH   3  26
HETATM   26  C   UNL     1      43.765 -19.300   3.680  1.00  0.00     0.010 A 
HETATM   27  C   UNL     1      43.736 -19.882   2.390  1.00  0.00     0.152 A 
HETATM   28  N   UNL     1      44.026 -21.185   2.401  1.00  0.00    -0.187 NA
HETATM   29  N   UNL     1      44.237 -21.448   3.700  1.00  0.00    -0.289 N 
HETATM   30  H   UNL     1      44.473 -22.399   3.965  1.00  0.00     0.188 HD
HETATM   31  C   UNL     1      44.097 -20.355   4.505  1.00  0.00     0.123 A 
ENDBRANCH   3  26
TORSDOF 9
ENDMDL
MODEL 2
REMARK VINA RESULT:      -7.6      3.146      6.682
REMARK  9 active torsions:
REMARK  status: ('A' for Active; 'I' for Inactive)
REMARK    1  A    between atoms: O_2  and  C_3 
REMARK    2  A    between atoms: C_3  and  C_4 
REMARK    3  A    between atoms: C_4  and  O_5 
REMARK    4  A    between atoms: O_5  and  C_6 
REMARK    5  A    between atoms: C_8  and  C_25 
REMARK    6  A    between atoms: C_11  and  C_12 
REMARK       I    between atoms: C_12  and  N_14 
REMARK    7  A    between atoms: N_14  and  C_15 
REMARK    8  A    between atoms: C_15  and  C_17 
REMARK    9  A    between atoms: C_21  and  O_22 
ROOT
HETATM    1  C   UNL     1      42.643 -15.529   3.943  1.00  0.00     0.085 A 
HETATM    2  C   UNL     1      42.943 -16.878   4.171  1.00  0.00     0.050 A 
HETATM    3  C   UNL     1      43.322 -17.716   3.112  1.00  0.00    -0.020 A 
HETATM    4  C   UNL     1      43.389 -17.177   1.820  1.00  0.00     0.013 A 
HETATM    5  C   UNL     1      43.118 -15.822   1.596  1.00  0.00     0.021 A 
HETATM    6  C   UNL     1      42.774 -14.980   2.661  1.00  0.00     0.065 A 
ENDROOT
BRANCH   6   7
HETATM    7  C   UNL     1      42.606 -13.534   2.354  1.00  0.00     0.255 C 
HETATM    8  O   UNL     1      43.416 -12.720   2.785  1.00  0.00    -0.268 OA
HETATM    9  N   UNL     1      41.489 -13.193   1.629  1.00  0.00    -0.349 N 
HETATM   10  H   UNL     1      40.937 -13.939   1.220  1.00  0.00     0.163 HD
BRANCH   9  11
HETATM   11  C   UNL     1      41.206 -11.830   1.219  1.00  0.00     0.114 C 
HETATM   12  C   UNL     1      40.036 -11.270   2.030  1.00  0.00     0.037 C 
BRANCH  11  13
HETATM   13  C   UNL     1      40.981 -11.784  -0.282  1.00  0.00    -0.033 A 
HETATM   14  C   UNL     1      41.236 -10.591  -0.977  1.00  0.00     0.009 A 
HETATM   15  C   UNL     1      41.055 -10.519  -2.357  1.00  0.00     0.003 A 
HETATM   16  C   UNL     1      40.633 -11.645  -3.061  1.00  0.00     0.037 A 
HETATM   17  C   UNL     1      40.400 -12.851  -2.398  1.00  0.00     0.068 A 
HETATM   18  C   UNL     1      40.574 -12.916  -1.013  1.00  0.00     0.046 A 
BRANCH  17  19
HETATM   19  O   UNL     1      40.009 -13.881  -3.208  1.00  0.00    -0.356 OA
HETATM   20  C   UNL     1      39.025 -14.767  -2.690  1.00  0.00     0.210 C 
ENDBRANCH  17  19
ENDBRANCH  11  13
ENDBRANCH   9  11
ENDBRANCH   6   7
BRANCH   1  21
HETATM   21  O   UNL     1      42.278 -14.790   5.039  1.00  0.00    -0.348 OA
BRANCH  21  22
HETATM   22  C   UNL     1      43.394 -14.564   5.927  1.00  0.00     0.201 C 
BRANCH  22  23
HETATM   23  C   UNL     1      42.951 -14.692   7.384  1.00  0.00     0.193 C 
BRANCH  23  24
HETATM   24  O   UNL     1      42.678 -16.064   7.687  1.00  0.00    -0.394 OA
HETATM   25  C   UNL     1      43.856 -16.857   7.627  1.00  0.00     0.201 C 
ENDBRANCH  23  24
ENDBRANCH  22  23
ENDBRANCH  21  22
ENDBRANCH   1  21
BRANCH   3  26
HETATM   26  C   UNL     1      43.663 -19.106   3.364  1.00  0.00     0.010 A 
HETATM   27  C   UNL     1      43.617 -20.239   2.516  1.00  0.00     0.152 A 
HETATM   28  N   UNL     1      44.011 -21.360   3.125  1.00  0.00    -0.187 NA
HETATM   29  N   UNL     1      44.307 -20.954   4.369  1.00  0.00    -0.289 N 
HETATM   30  H   UNL     1      44.631 -21.646   5.037  1.00  0.00     0.188 HD
HETATM   31  C   UNL     1      44.119 -19.615   4.562  1.00  0.00     0.123 A 
ENDBRANCH   3  26
TORSDOF 9
ENDMDL
MODEL 3
REMARK VINA RESULT:      -7.6      3.421      6.394
REMARK  9 active torsions:
REMARK  status: ('A' for Active; 'I' for Inactive)
REMARK    1  A    between atoms: O_2  and  C_3 
REMARK    2  A    between atoms: C_3  and  C_4 
REMARK    3  A    between atoms: C_4  and  O_5 
REMARK    4  A    between atoms: O_5  and  C_6 
REMARK    5  A    between atoms: C_8  and  C_25 
REMARK    6  A    between atoms: C_11  and  C_12 
REMARK       I    between atoms: C_12  and  N_14 
REMARK    7  A    between atoms: N_14  and  C_15 
REMARK    8  A    between atoms: C_15  and  C_17 
REMARK    9  A    between atoms: C_21  and  O_22 
ROOT
HETATM    1  C   UNL     1      42.732 -15.479   3.999  1.00  0.00     0.085 A 
HETATM    2  C   UNL     1      43.024 -16.830   4.224  1.00  0.00     0.050 A 
HETATM    3  C   UNL     1      43.354 -17.679   3.157  1.00  0.00    -0.020 A 
HETATM    4  C   UNL     1      43.381 -17.148   1.860  1.00  0.00     0.013 A 
HETATM    5  C   UNL     1      43.118 -15.791   1.638  1.00  0.00     0.021 A 
HETATM    6  C   UNL     1      42.823 -14.939   2.710  1.00  0.00     0.065 A 
ENDROOT
BRANCH   6   7
HETATM    7  C   UNL     1      42.662 -13.493   2.400  1.00  0.00     0.255 C 
HETATM    8  O   UNL     1      43.454 -12.678   2.859  1.00  0.00    -0.268 OA
HETATM    9  N   UNL     1      41.568 -13.154   1.638  1.00  0.00    -0.349 N 
HETATM   10  H   UNL     1      41.032 -13.900   1.210  1.00  0.00     0.163 HD
BRANCH   9  11
HETATM   11  C   UNL     1      41.295 -11.790   1.222  1.00  0.00     0.114 C 
HETATM   12  C   UNL     1      40.146 -11.209   2.048  1.00  0.00     0.037 C 
BRANCH  11  13
HETATM   13  C   UNL     1      41.046 -11.753  -0.276  1.00  0.00    -0.033 A 
HETATM   14  C   UNL     1      41.324 -10.576  -0.987  1.00  0.00     0.009 A 
HETATM   15  C   UNL     1      41.122 -10.514  -2.365  1.00  0.00     0.003 A 
HETATM   16  C   UNL     1      40.655 -11.633  -3.050  1.00  0.00     0.037 A 
HETATM   17  C   UNL     1      40.398 -12.825  -2.369  1.00  0.00     0.068 A 
HETATM   18  C   UNL     1      40.593 -12.881  -0.987  1.00  0.00     0.046 A 
BRANCH  17  19
HETATM   19  O   UNL     1      39.964 -13.852  -3.162  1.00  0.00    -0.356 OA
HETATM   20  C   UNL     1      39.078 -14.791  -2.565  1.00  0.00     0.210 C 
ENDBRANCH  17  19
ENDBRANCH  11  13
ENDBRANCH   9  11
ENDBRANCH   6   7
BRANCH   1  21
HETATM   21  O   UNL     1      42.415 -14.729   5.103  1.00  0.00    -0.348 OA
BRANCH  21  22
HETATM   22  C   UNL     1      41.020 -14.854   5.451  1.00  0.00     0.201 C 
BRANCH  22  23
HETATM   23  C   UNL     1      40.270 -13.563   5.127  1.00  0.00     0.193 C 
BRANCH  23  24
HETATM   24  O   UNL     1      39.520 -13.140   6.271  1.00  0.00    -0.394 OA
HETATM   25  C   UNL     1      39.509 -11.724   6.392  1.00  0.00     0.201 C 
ENDBRANCH  23  24
ENDBRANCH  22  23
ENDBRANCH  21  22
ENDBRANCH   1  21
BRANCH   3  26
HETATM   26  C   UNL     1      43.687 -19.072   3.405  1.00  0.00     0.010 A 
HETATM   27  C   UNL     1      43.608 -20.207   2.562  1.00  0.00     0.152 A 
HETATM   28  N   UNL     1      44.006 -21.330   3.165  1.00  0.00    -0.187 NA
HETATM   29  N   UNL     1      44.337 -20.923   4.400  1.00  0.00    -0.289 N 
HETATM   30  H   UNL     1      44.671 -21.616   5.061  1.00  0.00     0.188 HD
HETATM   31  C   UNL     1      44.168 -19.581   4.593  1.00  0.00     0.123 A 
ENDBRANCH   3  26
TORSDOF 9
ENDMDL
MODEL 4
REMARK VINA RESULT:      -7.1      3.692      7.291
REMARK  9 active torsions:
REMARK  status: ('A' for Active; 'I' for Inactive)
REMARK    1  A    between atoms: O_2  and  C_3 
REMARK    2  A    between atoms: C_3  and  C_4 
REMARK    3  A    between atoms: C_4  and  O_5 
REMARK    4  A    between atoms: O_5  and  C_6 
REMARK    5  A    between atoms: C_8  and  C_25 
REMARK    6  A    between atoms: C_11  and  C_12 
REMARK       I    between atoms: C_12  and  N_14 
REMARK    7  A    between atoms: N_14  and  C_15 
REMARK    8  A    between atoms: C_15  and  C_17 
REMARK    9  A    between atoms: C_21  and  O_22 
ROOT
HETATM    1  C   UNL     1      41.495 -15.928   3.309  1.00  0.00     0.085 A 
HETATM    2  C   UNL     1      42.024 -17.119   3.822  1.00  0.00     0.050 A 
HETATM    3  C   UNL     1      43.035 -17.807   3.134  1.00  0.00    -0.020 A 
HETATM    4  C   UNL     1      43.501 -17.280   1.922  1.00  0.00     0.013 A 
HETATM    5  C   UNL     1      42.994 -16.074   1.425  1.00  0.00     0.021 A 
HETATM    6  C   UNL     1      42.009 -15.372   2.132  1.00  0.00     0.065 A 
ENDROOT
BRANCH   6   7
HETATM    7  C   UNL     1      41.601 -14.048   1.589  1.00  0.00     0.255 C 
HETATM    8  O   UNL     1      42.399 -13.118   1.583  1.00  0.00    -0.268 OA
HETATM    9  N   UNL     1      40.297 -13.942   1.166  1.00  0.00    -0.349 N 
HETATM   10  H   UNL     1      39.743 -14.788   1.102  1.00  0.00     0.163 HD
BRANCH   9  11
HETATM   11  C   UNL     1      39.759 -12.728   0.578  1.00  0.00     0.114 C 
HETATM   12  C   UNL     1      38.870 -12.004   1.590  1.00  0.00     0.037 C 
BRANCH  11  13
HETATM   13  C   UNL     1      39.053 -13.060  -0.725  1.00  0.00    -0.033 A 
HETATM   14  C   UNL     1      39.389 -14.241  -1.404  1.00  0.00     0.009 A 
HETATM   15  C   UNL     1      38.748 -14.584  -2.594  1.00  0.00     0.003 A 
HETATM   16  C   UNL     1      37.751 -13.757  -3.108  1.00  0.00     0.037 A 
HETATM   17  C   UNL     1      37.379 -12.592  -2.436  1.00  0.00     0.068 A 
HETATM   18  C   UNL     1      38.030 -12.247  -1.249  1.00  0.00     0.046 A 
BRANCH  17  19
HETATM   19  O   UNL     1      36.376 -11.882  -3.038  1.00  0.00    -0.356 OA
HETATM   20  C   UNL     1      36.469 -10.464  -2.980  1.00  0.00     0.210 C 
ENDBRANCH  17  19
ENDBRANCH  11  13
ENDBRANCH   9  11
ENDBRANCH   6   7
BRANCH   1  21
HETATM   21  O   UNL     1      40.507 -15.330   4.049  1.00  0.00    -0.348 OA
BRANCH  21  22
HETATM   22  C   UNL     1      41.040 -14.666   5.215  1.00  0.00     0.201 C 
BRANCH  22  23
HETATM   23  C   UNL     1      40.341 -15.163   6.480  1.00  0.00     0.193 C 
BRANCH  23  24
HETATM   24  O   UNL     1      41.192 -16.083   7.172  1.00  0.00    -0.394 OA
HETATM   25  C   UNL     1      42.526 -15.599   7.252  1.00  0.00     0.201 C 
ENDBRANCH  23  24
ENDBRANCH  22  23
ENDBRANCH  21  22
ENDBRANCH   1  21
BRANCH   3  26
HETATM   26  C   UNL     1      43.601 -19.025   3.690  1.00  0.00     0.010 A 
HETATM   27  C   UNL     1      43.728 -20.323   3.138  1.00  0.00     0.152 A 
HETATM   28  N   UNL     1      44.307 -21.188   3.974  1.00  0.00    -0.187 NA
HETATM   29  N   UNL     1      44.549 -20.452   5.070  1.00  0.00    -0.289 N 
HETATM   30  H   UNL     1      44.990 -20.904   5.864  1.00  0.00     0.188 HD
HETATM   31  C   UNL     1      44.150 -19.152   4.950  1.00  0.00     0.123 A 
ENDBRANCH   3  26
TORSDOF 9
ENDMDL
MODEL 5
REMARK VINA RESULT:      -6.7      3.997      9.798
REMARK  9 active torsions:
REMARK  status: ('A' for Active; 'I' for Inactive)
REMARK    1  A    between atoms: O_2  and  C_3 
REMARK    2  A    between atoms: C_3  and  C_4 
REMARK    3  A    between atoms: C_4  and  O_5 
REMARK    4  A    between atoms: O_5  and  C_6 
REMARK    5  A    between atoms: C_8  and  C_25 
REMARK    6  A    between atoms: C_11  and  C_12 
REMARK       I    between atoms: C_12  and  N_14 
REMARK    7  A    between atoms: N_14  and  C_15 
REMARK    8  A    between atoms: C_15  and  C_17 
REMARK    9  A    between atoms: C_21  and  O_22 
ROOT
HETATM    1  C   UNL     1      43.585  -8.579   9.258  1.00  0.00     0.085 A 
HETATM    2  C   UNL     1      43.195  -7.733  10.304  1.00  0.00     0.050 A 
HETATM    3  C   UNL     1      43.143  -8.205  11.624  1.00  0.00    -0.020 A 
HETATM    4  C   UNL     1      43.484  -9.541  11.873  1.00  0.00     0.013 A 
HETATM    5  C   UNL     1      43.903 -10.378  10.833  1.00  0.00     0.021 A 
HETATM    6  C   UNL     1      43.987  -9.894   9.521  1.00  0.00     0.065 A 
ENDROOT
BRANCH   6   7
HETATM    7  C   UNL     1      44.542 -10.816   8.493  1.00  0.00     0.255 C 
HETATM    8  O   UNL     1      45.747 -11.037   8.457  1.00  0.00    -0.268 OA
HETATM    9  N   UNL     1      43.640 -11.332   7.592  1.00  0.00    -0.349 N 
HETATM   10  H   UNL     1      42.652 -11.187   7.765  1.00  0.00     0.163 HD
BRANCH   9  11
HETATM   11  C   UNL     1      44.021 -12.275   6.555  1.00  0.00     0.114 C 
HETATM   12  C   UNL     1      44.076 -11.568   5.200  1.00  0.00     0.037 C 
BRANCH  11  13
HETATM   13  C   UNL     1      43.083 -13.469   6.580  1.00  0.00    -0.033 A 
HETATM   14  C   UNL     1      41.748 -13.299   6.181  1.00  0.00     0.009 A 
HETATM   15  C   UNL     1      40.865 -14.378   6.177  1.00  0.00     0.003 A 
HETATM   16  C   UNL     1      41.311 -15.642   6.556  1.00  0.00     0.037 A 
HETATM   17  C   UNL     1      42.641 -15.842   6.930  1.00  0.00     0.068 A 
HETATM   18  C   UNL     1      43.521 -14.757   6.941  1.00  0.00     0.046 A 
BRANCH  17  19
HETATM   19  O   UNL     1      42.952 -17.133   7.259  1.00  0.00    -0.356 OA
HETATM   20  C   UNL     1      43.299 -18.002   6.188  1.00  0.00     0.210 C 
ENDBRANCH  17  19
ENDBRANCH  11  13
ENDBRANCH   9  11
ENDBRANCH   6   7
BRANCH   1  21
HETATM   21  O   UNL     1      43.601  -8.029   8.001  1.00  0.00    -0.348 OA
BRANCH  21  22
HETATM   22  C   UNL     1      42.331  -7.431   7.663  1.00  0.00     0.201 C 
BRANCH  22  23
HETATM   23  C   UNL     1      41.299  -8.512   7.346  1.00  0.00     0.193 C 
BRANCH  23  24
HETATM   24  O   UNL     1      41.777  -9.339   6.280  1.00  0.00    -0.394 OA
HETATM   25  C   UNL     1      41.046  -9.119   5.082  1.00  0.00     0.201 C 
ENDBRANCH  23  24
ENDBRANCH  22  23
ENDBRANCH  21  22
ENDBRANCH   1  21
BRANCH   3  26
HETATM   26  C   UNL     1      42.768  -7.311  12.707  1.00  0.00     0.010 A 
HETATM   27  C   UNL     1      41.897  -6.195  12.726  1.00  0.00     0.152 A 
HETATM   28  N   UNL     1      41.817  -5.620  13.929  1.00  0.00    -0.187 NA
HETATM   29  N   UNL     1      42.640  -6.361  14.686  1.00  0.00    -0.289 N 
HETATM   30  H   UNL     1      42.752  -6.108  15.663  1.00  0.00     0.188 HD
HETATM   31  C   UNL     1      43.230  -7.386  14.004  1.00  0.00     0.123 A 
ENDBRANCH   3  26
TORSDOF 9
ENDMDL
MODEL 6
REMARK VINA RESULT:      -6.6      2.224      4.481
REMARK  9 active torsions:
REMARK  status: ('A' for Active; 'I' for Inactive)
REMARK    1  A    between atoms: O_2  and  C_3 
REMARK    2  A    between atoms: C_3  and  C_4 
REMARK    3  A    between atoms: C_4  and  O_5 
REMARK    4  A    between atoms: O_5  and  C_6 
REMARK    5  A    between atoms: C_8  and  C_25 
REMARK    6  A    between atoms: C_11  and  C_12 
REMARK       I    between atoms: C_12  and  N_14 
REMARK    7  A    between atoms: N_14  and  C_15 
REMARK    8  A    between atoms: C_15  and  C_17 
REMARK    9  A    between atoms: C_21  and  O_22 
ROOT
HETATM    1  C   UNL     1      42.854 -15.634   2.901  1.00  0.00     0.085 A 
HETATM    2  C   UNL     1      43.119 -16.997   2.713  1.00  0.00     0.050 A 
HETATM    3  C   UNL     1      43.546 -17.797   3.783  1.00  0.00    -0.020 A 
HETATM    4  C   UNL     1      43.706 -17.204   5.043  1.00  0.00     0.013 A 
HETATM    5  C   UNL     1      43.412 -15.850   5.238  1.00  0.00     0.021 A 
HETATM    6  C   UNL     1      42.953 -15.062   4.175  1.00  0.00     0.065 A 
ENDROOT
BRANCH   6   7
HETATM    7  C   UNL     1      42.563 -13.660   4.490  1.00  0.00     0.255 C 
HETATM    8  O   UNL     1      41.838 -13.429   5.451  1.00  0.00    -0.268 OA
HETATM    9  N   UNL     1      43.016 -12.695   3.621  1.00  0.00    -0.349 N 
HETATM   10  H   UNL     1      43.700 -12.962   2.922  1.00  0.00     0.163 HD
BRANCH   9  11
HETATM   11  C   UNL     1      42.752 -11.280   3.814  1.00  0.00     0.114 C 
HETATM   12  C   UNL     1      43.187 -10.852   5.216  1.00  0.00     0.037 C 
BRANCH  11  13
HETATM   13  C   UNL     1      41.292 -10.988   3.515  1.00  0.00    -0.033 A 
HETATM   14  C   UNL     1      40.539 -10.248   4.440  1.00  0.00     0.009 A 
HETATM   15  C   UNL     1      39.201  -9.948   4.189  1.00  0.00     0.003 A 
HETATM   16  C   UNL     1      38.606 -10.370   3.002  1.00  0.00     0.037 A 
HETATM   17  C   UNL     1      39.342 -11.082   2.053  1.00  0.00     0.068 A 
HETATM   18  C   UNL     1      40.680 -11.389   2.313  1.00  0.00     0.046 A 
BRANCH  17  19
HETATM   19  O   UNL     1      38.644 -11.419   0.926  1.00  0.00    -0.356 OA
HETATM   20  C   UNL     1      39.076 -10.831  -0.295  1.00  0.00     0.210 C 
ENDBRANCH  17  19
ENDBRANCH  11  13
ENDBRANCH   9  11
ENDBRANCH   6   7
BRANCH   1  21
HETATM   21  O   UNL     1      42.447 -14.932   1.795  1.00  0.00    -0.348 OA
BRANCH  21  22
HETATM   22  C   UNL     1      41.099 -15.276   1.411  1.00  0.00     0.201 C 
BRANCH  22  23
HETATM   23  C   UNL     1      40.643 -14.417   0.233  1.00  0.00     0.193 C 
BRANCH  23  24
HETATM   24  O   UNL     1      39.573 -15.071  -0.458  1.00  0.00    -0.394 OA
HETATM   25  C   UNL     1      39.151 -14.326  -1.591  1.00  0.00     0.201 C 
ENDBRANCH  23  24
ENDBRANCH  22  23
ENDBRANCH  21  22
ENDBRANCH   1  21
BRANCH   3  26
HETATM   26  C   UNL     1      43.787 -19.217   3.586  1.00  0.00     0.010 A 
HETATM   27  C   UNL     1      43.784 -20.001   2.407  1.00  0.00     0.152 A 
HETATM   28  N   UNL     1      44.050 -21.288   2.639  1.00  0.00    -0.187 NA
HETATM   29  N   UNL     1      44.219 -21.339   3.969  1.00  0.00    -0.289 N 
HETATM   30  H   UNL     1      44.429 -22.237   4.393  1.00  0.00     0.188 HD
HETATM   31  C   UNL     1      44.076 -20.127   4.581  1.00  0.00     0.123 A 
ENDBRANCH   3  26
TORSDOF 9
ENDMDL
MODEL 7
REMARK VINA RESULT:      -6.5      3.033      8.000
REMARK  9 active torsions:
REMARK  status: ('A' for Active; 'I' for Inactive)
REMARK    1  A    between atoms: O_2  and  C_3 
REMARK    2  A    between atoms: C_3  and  C_4 
REMARK    3  A    between atoms: C_4  and  O_5 
REMARK    4  A    between atoms: O_5  and  C_6 
REMARK    5  A    between atoms: C_8  and  C_25 
REMARK    6  A    between atoms: C_11  and  C_12 
REMARK       I    between atoms: C_12  and  N_14 
REMARK    7  A    between atoms: N_14  and  C_15 
REMARK    8  A    between atoms: C_15  and  C_17 
REMARK    9  A    between atoms: C_21  and  O_22 
ROOT
HETATM    1  C   UNL     1      42.381 -13.703   4.863  1.00  0.00     0.085 A 
HETATM    2  C   UNL     1      43.328 -13.206   5.768  1.00  0.00     0.050 A 
HETATM    3  C   UNL     1      43.596 -11.831   5.840  1.00  0.00    -0.020 A 
HETATM    4  C   UNL     1      42.901 -10.965   4.985  1.00  0.00     0.013 A 
HETATM    5  C   UNL     1      41.933 -11.458   4.102  1.00  0.00     0.021 A 
HETATM    6  C   UNL     1      41.643 -12.827   4.057  1.00  0.00     0.065 A 
ENDROOT
BRANCH   6   7
HETATM    7  C   UNL     1      40.528 -13.255   3.169  1.00  0.00     0.255 C 
HETATM    8  O   UNL     1      39.369 -12.999   3.477  1.00  0.00    -0.268 OA
HETATM    9  N   UNL     1      40.884 -13.976   2.053  1.00  0.00    -0.349 N 
HETATM   10  H   UNL     1      41.868 -14.043   1.819  1.00  0.00     0.163 HD
BRANCH   9  11
HETATM   11  C   UNL     1      39.916 -14.431   1.072  1.00  0.00     0.114 C 
HETATM   12  C   UNL     1      39.898 -15.959   1.021  1.00  0.00     0.037 C 
BRANCH  11  13
HETATM   13  C   UNL     1      40.205 -13.782  -0.270  1.00  0.00    -0.033 A 
HETATM   14  C   UNL     1      39.807 -14.435  -1.447  1.00  0.00     0.009 A 
HETATM   15  C   UNL     1      40.043 -13.859  -2.694  1.00  0.00     0.003 A 
HETATM   16  C   UNL     1      40.665 -12.616  -2.779  1.00  0.00     0.037 A 
HETATM   17  C   UNL     1      41.045 -11.933  -1.622  1.00  0.00     0.068 A 
HETATM   18  C   UNL     1      40.815 -12.517  -0.374  1.00  0.00     0.046 A 
BRANCH  17  19
HETATM   19  O   UNL     1      41.627 -10.715  -1.844  1.00  0.00    -0.356 OA
HETATM   20  C   UNL     1      41.664  -9.812  -0.746  1.00  0.00     0.210 C 
ENDBRANCH  17  19
ENDBRANCH  11  13
ENDBRANCH   9  11
ENDBRANCH   6   7
BRANCH   1  21
HETATM   21  O   UNL     1      42.191 -15.061   4.862  1.00  0.00    -0.348 OA
BRANCH  21  22
HETATM   22  C   UNL     1      43.231 -15.746   4.132  1.00  0.00     0.201 C 
BRANCH  22  23
HETATM   23  C   UNL     1      43.935 -16.761   5.030  1.00  0.00     0.193 C 
BRANCH  23  24
HETATM   24  O   UNL     1      43.532 -18.087   4.669  1.00  0.00    -0.394 OA
HETATM   25  C   UNL     1      43.896 -18.395   3.330  1.00  0.00     0.201 C 
ENDBRANCH  23  24
ENDBRANCH  22  23
ENDBRANCH  21  22
ENDBRANCH   1  21
BRANCH   3  26
HETATM   26  C   UNL     1      44.557 -11.322   6.805  1.00  0.00     0.010 A 
HETATM   27  C   UNL     1      45.946 -11.073   6.685  1.00  0.00     0.152 A 
HETATM   28  N   UNL     1      46.488 -10.604   7.811  1.00  0.00    -0.187 NA
HETATM   29  N   UNL     1      45.452 -10.555   8.662  1.00  0.00    -0.289 N 
HETATM   30  H   UNL     1      45.621 -10.229   9.608  1.00  0.00     0.188 HD
HETATM   31  C   UNL     1      44.274 -10.970   8.108  1.00  0.00     0.123 A 
ENDBRANCH   3  26
TORSDOF 9
ENDMDL
MODEL 8
REMARK VINA RESULT:      -6.5      3.824      8.092
REMARK  9 active torsions:
REMARK  status: ('A' for Active; 'I' for Inactive)
REMARK    1  A    between atoms: O_2  and  C_3 
REMARK    2  A    between atoms: C_3  and  C_4 
REMARK    3  A    between atoms: C_4  and  O_5 
REMARK    4  A    between atoms: O_5  and  C_6 
REMARK    5  A    between atoms: C_8  and  C_25 
REMARK    6  A    between atoms: C_11  and  C_12 
REMARK       I    between atoms: C_12  and  N_14 
REMARK    7  A    between atoms: N_14  and  C_15 
REMARK    8  A    between atoms: C_15  and  C_17 
REMARK    9  A    between atoms: C_21  and  O_22 
ROOT
HETATM    1  C   UNL     1      40.318 -12.804   1.375  1.00  0.00     0.085 A 
HETATM    2  C   UNL     1      40.234 -11.937   0.278  1.00  0.00     0.050 A 
HETATM    3  C   UNL     1      40.025 -12.437  -1.016  1.00  0.00    -0.020 A 
HETATM    4  C   UNL     1      39.907 -13.823  -1.189  1.00  0.00     0.013 A 
HETATM    5  C   UNL     1      39.961 -14.688  -0.090  1.00  0.00     0.021 A 
HETATM    6  C   UNL     1      40.134 -14.182   1.205  1.00  0.00     0.065 A 
ENDROOT
BRANCH   6   7
HETATM    7  C   UNL     1      40.074 -15.158   2.327  1.00  0.00     0.255 C 
HETATM    8  O   UNL     1      39.313 -16.117   2.262  1.00  0.00    -0.268 OA
HETATM    9  N   UNL     1      40.864 -14.878   3.417  1.00  0.00    -0.349 N 
HETATM   10  H   UNL     1      41.543 -14.130   3.338  1.00  0.00     0.163 HD
BRANCH   9  11
HETATM   11  C   UNL     1      40.944 -15.753   4.573  1.00  0.00     0.114 C 
HETATM   12  C   UNL     1      40.771 -14.942   5.858  1.00  0.00     0.037 C 
BRANCH  11  13
HETATM   13  C   UNL     1      42.237 -16.547   4.525  1.00  0.00    -0.033 A 
HETATM   14  C   UNL     1      43.132 -16.464   5.603  1.00  0.00     0.009 A 
HETATM   15  C   UNL     1      44.321 -17.192   5.598  1.00  0.00     0.003 A 
HETATM   16  C   UNL     1      44.620 -18.025   4.522  1.00  0.00     0.037 A 
HETATM   17  C   UNL     1      43.733 -18.148   3.451  1.00  0.00     0.068 A 
HETATM   18  C   UNL     1      42.546 -17.409   3.456  1.00  0.00     0.046 A 
BRANCH  17  19
HETATM   19  O   UNL     1      44.138 -19.013   2.472  1.00  0.00    -0.356 OA
HETATM   20  C   UNL     1      43.225 -20.041   2.108  1.00  0.00     0.210 C 
ENDBRANCH  17  19
ENDBRANCH  11  13
ENDBRANCH   9  11
ENDBRANCH   6   7
BRANCH   1  21
HETATM   21  O   UNL     1      40.528 -12.223   2.599  1.00  0.00    -0.348 OA
BRANCH  21  22
HETATM   22  C   UNL     1      41.496 -11.154   2.524  1.00  0.00     0.201 C 
BRANCH  22  23
HETATM   23  C   UNL     1      42.808 -11.574   3.184  1.00  0.00     0.193 C 
BRANCH  23  24
HETATM   24  O   UNL     1      43.153 -10.638   4.211  1.00  0.00    -0.394 OA
HETATM   25  C   UNL     1      42.047  -9.816   4.561  1.00  0.00     0.201 C 
ENDBRANCH  23  24
ENDBRANCH  22  23
ENDBRANCH  21  22
ENDBRANCH   1  21
BRANCH   3  26
HETATM   26  C   UNL     1      39.907 -11.527  -2.143  1.00  0.00     0.010 A 
HETATM   27  C   UNL     1      40.854 -10.653  -2.730  1.00  0.00     0.152 A 
HETATM   28  N   UNL     1      40.356  -9.966  -3.761  1.00  0.00    -0.187 NA
HETATM   29  N   UNL     1      39.086 -10.392  -3.839  1.00  0.00    -0.289 N 
HETATM   30  H   UNL     1      38.491  -9.999  -4.560  1.00  0.00     0.188 HD
HETATM   31  C   UNL     1      38.769 -11.328  -2.896  1.00  0.00     0.123 A 
ENDBRANCH   3  26
TORSDOF 9
ENDMDL
MODEL 9
REMARK VINA RESULT:      -6.5      3.829      6.667
REMARK  9 active torsions:
REMARK  status: ('A' for Active; 'I' for Inactive)
REMARK    1  A    between atoms: O_2  and  C_3 
REMARK    2  A    between atoms: C_3  and  C_4 
REMARK    3  A    between atoms: C_4  and  O_5 
REMARK    4  A    between atoms: O_5  and  C_6 
REMARK    5  A    between atoms: C_8  and  C_25 
REMARK    6  A    between atoms: C_11  and  C_12 
REMARK       I    between atoms: C_12  and  N_14 
REMARK    7  A    between atoms: N_14  and  C_15 
REMARK    8  A    between atoms: C_15  and  C_17 
REMARK    9  A    between atoms: C_21  and  O_22 
ROOT
HETATM    1  C   UNL     1      41.452 -14.011   3.050  1.00  0.00     0.085 A 
HETATM    2  C   UNL     1      42.312 -15.044   3.442  1.00  0.00     0.050 A 
HETATM    3  C   UNL     1      42.151 -16.342   2.935  1.00  0.00    -0.020 A 
HETATM    4  C   UNL     1      41.108 -16.584   2.030  1.00  0.00     0.013 A 
HETATM    5  C   UNL     1      40.266 -15.546   1.615  1.00  0.00     0.021 A 
HETATM    6  C   UNL     1      40.452 -14.244   2.098  1.00  0.00     0.065 A 
ENDROOT
BRANCH   6   7
HETATM    7  C   UNL     1      39.583 -13.180   1.526  1.00  0.00     0.255 C 
HETATM    8  O   UNL     1      38.855 -12.524   2.264  1.00  0.00    -0.268 OA
HETATM    9  N   UNL     1      39.620 -13.036   0.159  1.00  0.00    -0.349 N 
HETATM   10  H   UNL     1      40.331 -13.540  -0.357  1.00  0.00     0.163 HD
BRANCH   9  11
HETATM   11  C   UNL     1      38.859 -12.017  -0.543  1.00  0.00     0.114 C 
HETATM   12  C   UNL     1      37.802 -12.673  -1.433  1.00  0.00     0.037 C 
BRANCH  11  13
HETATM   13  C   UNL     1      39.805 -11.101  -1.297  1.00  0.00    -0.033 A 
HETATM   14  C   UNL     1      39.558 -10.826  -2.651  1.00  0.00     0.009 A 
HETATM   15  C   UNL     1      40.398  -9.976  -3.369  1.00  0.00     0.003 A 
HETATM   16  C   UNL     1      41.486  -9.379  -2.736  1.00  0.00     0.037 A 
HETATM   17  C   UNL     1      41.737  -9.614  -1.383  1.00  0.00     0.068 A 
HETATM   18  C   UNL     1      40.898 -10.474  -0.669  1.00  0.00     0.046 A 
BRANCH  17  19
HETATM   19  O   UNL     1      42.824  -8.951  -0.881  1.00  0.00    -0.356 OA
HETATM   20  C   UNL     1      43.144  -7.701  -1.479  1.00  0.00     0.210 C 
ENDBRANCH  17  19
ENDBRANCH  11  13
ENDBRANCH   9  11
ENDBRANCH   6   7
BRANCH   1  21
HETATM   21  O   UNL     1      41.685 -12.778   3.604  1.00  0.00    -0.348 OA
BRANCH  21  22
HETATM   22  C   UNL     1      43.095 -12.473   3.656  1.00  0.00     0.201 C 
BRANCH  22  23
HETATM   23  C   UNL     1      43.432 -11.718   4.940  1.00  0.00     0.193 C 
BRANCH  23  24
HETATM   24  O   UNL     1      44.766 -11.205   4.863  1.00  0.00    -0.394 OA
HETATM   25  C   UNL     1      45.432 -11.294   6.116  1.00  0.00     0.201 C 
ENDBRANCH  23  24
ENDBRANCH  22  23
ENDBRANCH  21  22
ENDBRANCH   1  21
BRANCH   3  26
HETATM   26  C   UNL     1      43.069 -17.399   3.323  1.00  0.00     0.010 A 
HETATM   27  C   UNL     1      43.450 -18.587   2.652  1.00  0.00     0.152 A 
HETATM   28  N   UNL     1      44.327 -19.317   3.346  1.00  0.00    -0.187 NA
HETATM   29  N   UNL     1      44.509 -18.604   4.468  1.00  0.00    -0.289 N 
HETATM   30  H   UNL     1      45.145 -18.969   5.171  1.00  0.00     0.188 HD
HETATM   31  C   UNL     1      43.784 -17.448   4.502  1.00  0.00     0.123 A 
ENDBRANCH   3  26
TORSDOF 9
ENDMDL
MODEL 10
REMARK VINA RESULT:      -6.3      3.631      5.826
REMARK  9 active torsions:
REMARK  status: ('A' for Active; 'I' for Inactive)
REMARK    1  A    between atoms: O_2  and  C_3 
REMARK    2  A    between atoms: C_3  and  C_4 
REMARK    3  A    between atoms: C_4  and  O_5 
REMARK    4  A    between atoms: O_5  and  C_6 
REMARK    5  A    between atoms: C_8  and  C_25 
REMARK    6  A    between atoms: C_11  and  C_12 
REMARK       I    between atoms: C_12  and  N_14 
REMARK    7  A    between atoms: N_14  and  C_15 
REMARK    8  A    between atoms: C_15  and  C_17 
REMARK    9  A    between atoms: C_21  and  O_22 
ROOT
HETATM    1  C   UNL     1      42.177 -11.296   6.385  1.00  0.00     0.085 A 
HETATM    2  C   UNL     1      41.396 -11.981   5.446  1.00  0.00     0.050 A 
HETATM    3  C   UNL     1      41.774 -13.254   4.993  1.00  0.00    -0.020 A 
HETATM    4  C   UNL     1      42.953 -13.823   5.496  1.00  0.00     0.013 A 
HETATM    5  C   UNL     1      43.717 -13.151   6.456  1.00  0.00     0.021 A 
HETATM    6  C   UNL     1      43.318 -11.895   6.932  1.00  0.00     0.065 A 
ENDROOT
BRANCH   6   7
HETATM    7  C   UNL     1      44.128 -11.297   8.028  1.00  0.00     0.255 C 
HETATM    8  O   UNL     1      45.352 -11.336   7.974  1.00  0.00    -0.268 OA
HETATM    9  N   UNL     1      43.423 -10.772   9.086  1.00  0.00    -0.349 N 
HETATM   10  H   UNL     1      42.418 -10.681   8.995  1.00  0.00     0.163 HD
BRANCH   9  11
HETATM   11  C   UNL     1      44.069 -10.120  10.212  1.00  0.00     0.114 C 
HETATM   12  C   UNL     1      43.861 -10.944  11.483  1.00  0.00     0.037 C 
BRANCH  11  13
HETATM   13  C   UNL     1      43.573  -8.690  10.327  1.00  0.00    -0.033 A 
HETATM   14  C   UNL     1      43.626  -7.854   9.201  1.00  0.00     0.009 A 
HETATM   15  C   UNL     1      43.165  -6.540   9.268  1.00  0.00     0.003 A 
HETATM   16  C   UNL     1      42.630  -6.052  10.458  1.00  0.00     0.037 A 
HETATM   17  C   UNL     1      42.541  -6.873  11.584  1.00  0.00     0.068 A 
HETATM   18  C   UNL     1      43.012  -8.186  11.516  1.00  0.00     0.046 A 
BRANCH  17  19
HETATM   19  O   UNL     1      41.978  -6.277  12.680  1.00  0.00    -0.356 OA
HETATM   20  C   UNL     1      41.075  -7.065  13.445  1.00  0.00     0.210 C 
ENDBRANCH  17  19
ENDBRANCH  11  13
ENDBRANCH   9  11
ENDBRANCH   6   7
BRANCH   1  21
HETATM   21  O   UNL     1      41.729 -10.055   6.764  1.00  0.00    -0.348 OA
BRANCH  21  22
HETATM   22  C   UNL     1      40.337  -9.865   6.430  1.00  0.00     0.201 C 
BRANCH  22  23
HETATM   23  C   UNL     1      39.470  -9.954   7.684  1.00  0.00     0.193 C 
BRANCH  23  24
HETATM   24  O   UNL     1      39.684  -8.798   8.502  1.00  0.00    -0.394 OA
HETATM   25  C   UNL     1      39.924  -9.156   9.857  1.00  0.00     0.201 C 
ENDBRANCH  23  24
ENDBRANCH  22  23
ENDBRANCH  21  22
ENDBRANCH   1  21
BRANCH   3  26
HETATM   26  C   UNL     1      40.940 -13.971   4.043  1.00  0.00     0.010 A 
HETATM   27  C   UNL     1      41.004 -15.307   3.580  1.00  0.00     0.152 A 
HETATM   28  N   UNL     1      40.050 -15.595   2.691  1.00  0.00    -0.187 NA
HETATM   29  N   UNL     1      39.372 -14.444   2.576  1.00  0.00    -0.289 N 
HETATM   30  H   UNL     1      38.584 -14.412   1.937  1.00  0.00     0.188 HD
HETATM   31  C   UNL     1      39.861 -13.443   3.366  1.00  0.00     0.123 A 
ENDBRANCH   3  26
TORSDOF 9
ENDMDL
