MODEL 1
REMARK VINA RESULT:      -9.7      0.000      0.000
REMARK  3 active torsions:
REMARK  status: ('A' for Active; 'I' for Inactive)
REMARK    1  A    between atoms: C_8  and  C_9 
REMARK    2  A    between atoms: C_12  and  C_13 
REMARK    3  A    between atoms: C_24  and  N_25 
ROOT
HETATM    1  C   UNL     1      39.156 -15.187  -1.878  1.00  0.00     0.073 C 
HETATM    2  C   UNL     1      39.969 -13.951  -1.983  1.00  0.00     0.062 A 
HETATM    3  N   UNL     1      40.439 -13.546  -3.175  1.00  0.00    -0.177 NA
HETATM    4  N   UNL     1      41.129 -12.420  -2.897  1.00  0.00    -0.256 N 
HETATM    5  H   UNL     1      41.577 -11.920  -3.656  1.00  0.00     0.191 HD
HETATM    6  C   UNL     1      41.102 -12.102  -1.578  1.00  0.00     0.175 A 
HETATM    7  C   UNL     1      40.369 -13.074  -0.948  1.00  0.00     0.034 A 
HETATM    8  C   UNL     1      40.154 -13.012   0.526  1.00  0.00     0.104 A 
HETATM    9  C   UNL     1      40.693 -11.692   1.072  1.00  0.00     0.067 A 
HETATM   10  C   UNL     1      40.250 -11.303   2.473  1.00  0.00     0.020 C 
HETATM   11  N   UNL     1      39.883 -10.980   3.636  1.00  0.00    -0.096 N 
HETATM   12  C   UNL     1      41.397 -10.800   0.322  1.00  0.00     0.139 A 
HETATM   13  O   UNL     1      41.681 -11.035  -1.037  1.00  0.00    -0.279 OA
ENDROOT
BRANCH   8  14
HETATM   14  C   UNL     1      40.857 -14.237   1.093  1.00  0.00    -0.044 A 
HETATM   15  C   UNL     1      40.153 -15.367   1.542  1.00  0.00     0.009 A 
HETATM   16  C   UNL     1      40.821 -16.447   2.127  1.00  0.00     0.013 A 
HETATM   17  C   UNL     1      42.216 -16.449   2.268  1.00  0.00    -0.026 A 
HETATM   18  C   UNL     1      42.921 -15.338   1.777  1.00  0.00     0.013 A 
HETATM   19  C   UNL     1      42.256 -14.250   1.198  1.00  0.00     0.009 A 
BRANCH  17  20
HETATM   20  C   UNL     1      42.911 -17.568   2.935  1.00  0.00    -0.026 A 
HETATM   21  C   UNL     1      43.122 -18.792   2.277  1.00  0.00     0.012 A 
HETATM   22  C   UNL     1      43.757 -19.859   2.920  1.00  0.00     0.001 A 
HETATM   23  C   UNL     1      44.197 -19.721   4.233  1.00  0.00     0.000 A 
HETATM   24  C   UNL     1      44.003 -18.516   4.904  1.00  0.00     0.001 A 
HETATM   25  C   UNL     1      43.366 -17.452   4.260  1.00  0.00     0.012 A 
ENDBRANCH  17  20
ENDBRANCH   8  14
BRANCH  12  26
HETATM   26  N   UNL     1      41.875  -9.588   0.763  1.00  0.00    -0.282 NA
HETATM   27  H   UNL     1      41.207  -9.006   1.262  1.00  0.00     0.126 HD
HETATM   28  H   UNL     1      42.762  -9.682   1.252  1.00  0.00     0.126 HD
ENDBRANCH  12  26
TORSDOF 3
ENDMDL
MODEL 2
REMARK VINA RESULT:      -9.2      2.047      4.257
REMARK  3 active torsions:
REMARK  status: ('A' for Active; 'I' for Inactive)
REMARK    1  A    between atoms: C_8  and  C_9 
REMARK    2  A    between atoms: C_12  and  C_13 
REMARK    3  A    between atoms: C_24  and  N_25 
ROOT
HETATM    1  C   UNL     1      44.215 -11.753   3.765  1.00  0.00     0.073 C 
HETATM    2  C   UNL     1      42.763 -11.520   3.958  1.00  0.00     0.062 A 
HETATM    3  N   UNL     1      42.322 -10.810   5.010  1.00  0.00    -0.177 NA
HETATM    4  N   UNL     1      40.980 -10.811   4.876  1.00  0.00    -0.256 N 
HETATM    5  H   UNL     1      40.418 -10.320   5.562  1.00  0.00     0.191 HD
HETATM    6  C   UNL     1      40.564 -11.489   3.775  1.00  0.00     0.175 A 
HETATM    7  C   UNL     1      41.689 -11.973   3.158  1.00  0.00     0.034 A 
HETATM    8  C   UNL     1      41.567 -12.774   1.906  1.00  0.00     0.104 A 
HETATM    9  C   UNL     1      40.120 -12.764   1.424  1.00  0.00     0.067 A 
HETATM   10  C   UNL     1      39.875 -13.222  -0.005  1.00  0.00     0.020 C 
HETATM   11  N   UNL     1      39.671 -13.602  -1.191  1.00  0.00    -0.096 N 
HETATM   12  C   UNL     1      39.094 -12.226   2.138  1.00  0.00     0.139 A 
HETATM   13  O   UNL     1      39.299 -11.626   3.395  1.00  0.00    -0.279 OA
ENDROOT
BRANCH   8  14
HETATM   14  C   UNL     1      42.083 -14.162   2.258  1.00  0.00    -0.044 A 
HETATM   15  C   UNL     1      43.161 -14.757   1.583  1.00  0.00     0.009 A 
HETATM   16  C   UNL     1      43.564 -16.063   1.879  1.00  0.00     0.013 A 
HETATM   17  C   UNL     1      42.919 -16.817   2.870  1.00  0.00    -0.026 A 
HETATM   18  C   UNL     1      41.871 -16.202   3.575  1.00  0.00     0.013 A 
HETATM   19  C   UNL     1      41.458 -14.898   3.276  1.00  0.00     0.009 A 
BRANCH  17  20
HETATM   20  C   UNL     1      43.313 -18.213   3.141  1.00  0.00    -0.026 A 
HETATM   21  C   UNL     1      43.162 -19.216   2.168  1.00  0.00     0.012 A 
HETATM   22  C   UNL     1      43.509 -20.543   2.437  1.00  0.00     0.001 A 
HETATM   23  C   UNL     1      44.020 -20.892   3.684  1.00  0.00     0.000 A 
HETATM   24  C   UNL     1      44.183 -19.915   4.662  1.00  0.00     0.001 A 
HETATM   25  C   UNL     1      43.832 -18.590   4.392  1.00  0.00     0.012 A 
ENDBRANCH  17  20
ENDBRANCH   8  14
BRANCH  12  26
HETATM   26  N   UNL     1      37.781 -12.169   1.730  1.00  0.00    -0.282 NA
HETATM   27  H   UNL     1      37.613 -11.685   0.851  1.00  0.00     0.126 HD
HETATM   28  H   UNL     1      37.326 -13.077   1.776  1.00  0.00     0.126 HD
ENDBRANCH  12  26
TORSDOF 3
ENDMDL
MODEL 3
REMARK VINA RESULT:      -8.7      1.162      1.940
REMARK  3 active torsions:
REMARK  status: ('A' for Active; 'I' for Inactive)
REMARK    1  A    between atoms: C_8  and  C_9 
REMARK    2  A    between atoms: C_12  and  C_13 
REMARK    3  A    between atoms: C_24  and  N_25 
ROOT
HETATM    1  C   UNL     1      39.581 -14.280  -1.021  1.00  0.00     0.073 C 
HETATM    2  C   UNL     1      40.313 -13.012  -0.788  1.00  0.00     0.062 A 
HETATM    3  N   UNL     1      40.862 -12.345  -1.817  1.00  0.00    -0.177 NA
HETATM    4  N   UNL     1      41.445 -11.270  -1.245  1.00  0.00    -0.256 N 
HETATM    5  H   UNL     1      41.926 -10.601  -1.836  1.00  0.00     0.191 HD
HETATM    6  C   UNL     1      41.274 -11.235   0.101  1.00  0.00     0.175 A 
HETATM    7  C   UNL     1      40.555 -12.352   0.439  1.00  0.00     0.034 A 
HETATM    8  C   UNL     1      40.200 -12.609   1.865  1.00  0.00     0.104 A 
HETATM    9  C   UNL     1      40.594 -11.408   2.720  1.00  0.00     0.067 A 
HETATM   10  C   UNL     1      39.997 -11.342   4.117  1.00  0.00     0.020 C 
HETATM   11  N   UNL     1      39.502 -11.286   5.276  1.00  0.00    -0.096 N 
HETATM   12  C   UNL     1      41.301 -10.346   2.245  1.00  0.00     0.139 A 
HETATM   13  O   UNL     1      41.725 -10.279   0.904  1.00  0.00    -0.279 OA
ENDROOT
BRANCH   8  14
HETATM   14  C   UNL     1      40.930 -13.891   2.242  1.00  0.00    -0.044 A 
HETATM   15  C   UNL     1      42.330 -13.995   2.208  1.00  0.00     0.009 A 
HETATM   16  C   UNL     1      42.969 -15.208   2.488  1.00  0.00     0.013 A 
HETATM   17  C   UNL     1      42.236 -16.354   2.830  1.00  0.00    -0.026 A 
HETATM   18  C   UNL     1      40.839 -16.233   2.908  1.00  0.00     0.013 A 
HETATM   19  C   UNL     1      40.194 -15.024   2.620  1.00  0.00     0.009 A 
BRANCH  17  20
HETATM   20  C   UNL     1      42.911 -17.644   3.071  1.00  0.00    -0.026 A 
HETATM   21  C   UNL     1      43.658 -17.870   4.241  1.00  0.00     0.012 A 
HETATM   22  C   UNL     1      44.319 -19.083   4.454  1.00  0.00     0.001 A 
HETATM   23  C   UNL     1      44.243 -20.096   3.503  1.00  0.00     0.000 A 
HETATM   24  C   UNL     1      43.506 -19.897   2.339  1.00  0.00     0.001 A 
HETATM   25  C   UNL     1      42.848 -18.683   2.126  1.00  0.00     0.012 A 
ENDBRANCH  17  20
ENDBRANCH   8  14
BRANCH  12  26
HETATM   26  N   UNL     1      41.652  -9.232   2.971  1.00  0.00    -0.282 NA
HETATM   27  H   UNL     1      41.085  -9.046   3.795  1.00  0.00     0.126 HD
HETATM   28  H   UNL     1      42.651  -9.196   3.159  1.00  0.00     0.126 HD
ENDBRANCH  12  26
TORSDOF 3
ENDMDL
MODEL 4
REMARK VINA RESULT:      -8.5      3.651      5.472
REMARK  3 active torsions:
REMARK  status: ('A' for Active; 'I' for Inactive)
REMARK    1  A    between atoms: C_8  and  C_9 
REMARK    2  A    between atoms: C_12  and  C_13 
REMARK    3  A    between atoms: C_24  and  N_25 
ROOT
HETATM    1  C   UNL     1      45.176 -11.596   4.600  1.00  0.00     0.073 C 
HETATM    2  C   UNL     1      44.039 -11.376   5.526  1.00  0.00     0.062 A 
HETATM    3  N   UNL     1      44.250 -10.881   6.757  1.00  0.00    -0.177 NA
HETATM    4  N   UNL     1      43.021 -10.828   7.312  1.00  0.00    -0.256 N 
HETATM    5  H   UNL     1      42.925 -10.473   8.256  1.00  0.00     0.191 HD
HETATM    6  C   UNL     1      42.048 -11.264   6.472  1.00  0.00     0.175 A 
HETATM    7  C   UNL     1      42.667 -11.638   5.307  1.00  0.00     0.034 A 
HETATM    8  C   UNL     1      41.860 -12.170   4.170  1.00  0.00     0.104 A 
HETATM    9  C   UNL     1      40.373 -12.034   4.483  1.00  0.00     0.067 A 
HETATM   10  C   UNL     1      39.414 -12.193   3.314  1.00  0.00     0.020 C 
HETATM   11  N   UNL     1      38.618 -12.325   2.344  1.00  0.00    -0.096 N 
HETATM   12  C   UNL     1      39.893 -11.628   5.690  1.00  0.00     0.139 A 
HETATM   13  O   UNL     1      40.751 -11.296   6.756  1.00  0.00    -0.279 OA
ENDROOT
BRANCH   8  14
HETATM   14  C   UNL     1      42.315 -13.612   3.988  1.00  0.00    -0.044 A 
HETATM   15  C   UNL     1      42.829 -14.088   2.770  1.00  0.00     0.009 A 
HETATM   16  C   UNL     1      43.169 -15.436   2.611  1.00  0.00     0.013 A 
HETATM   17  C   UNL     1      43.026 -16.352   3.663  1.00  0.00    -0.026 A 
HETATM   18  C   UNL     1      42.556 -15.862   4.892  1.00  0.00     0.013 A 
HETATM   19  C   UNL     1      42.205 -14.516   5.054  1.00  0.00     0.009 A 
BRANCH  17  20
HETATM   20  C   UNL     1      43.335 -17.782   3.473  1.00  0.00    -0.026 A 
HETATM   21  C   UNL     1      43.019 -18.445   2.274  1.00  0.00     0.012 A 
HETATM   22  C   UNL     1      43.288 -19.806   2.106  1.00  0.00     0.001 A 
HETATM   23  C   UNL     1      43.883 -20.532   3.135  1.00  0.00     0.000 A 
HETATM   24  C   UNL     1      44.209 -19.897   4.329  1.00  0.00     0.001 A 
HETATM   25  C   UNL     1      43.937 -18.536   4.496  1.00  0.00     0.012 A 
ENDBRANCH  17  20
ENDBRANCH   8  14
BRANCH  12  26
HETATM   26  N   UNL     1      38.564 -11.464   6.007  1.00  0.00    -0.282 NA
HETATM   27  H   UNL     1      38.142 -10.593   5.695  1.00  0.00     0.126 HD
HETATM   28  H   UNL     1      38.010 -12.283   5.768  1.00  0.00     0.126 HD
ENDBRANCH  12  26
TORSDOF 3
ENDMDL
MODEL 5
REMARK VINA RESULT:      -8.2      1.529      4.041
REMARK  3 active torsions:
REMARK  status: ('A' for Active; 'I' for Inactive)
REMARK    1  A    between atoms: C_8  and  C_9 
REMARK    2  A    between atoms: C_12  and  C_13 
REMARK    3  A    between atoms: C_24  and  N_25 
ROOT
HETATM    1  C   UNL     1      41.428 -10.704   3.537  1.00  0.00     0.073 C 
HETATM    2  C   UNL     1      40.100 -10.889   2.902  1.00  0.00     0.062 A 
HETATM    3  N   UNL     1      38.989 -10.433   3.505  1.00  0.00    -0.177 NA
HETATM    4  N   UNL     1      37.989 -10.780   2.669  1.00  0.00    -0.256 N 
HETATM    5  H   UNL     1      37.037 -10.530   2.913  1.00  0.00     0.191 HD
HETATM    6  C   UNL     1      38.432 -11.429   1.563  1.00  0.00     0.175 A 
HETATM    7  C   UNL     1      39.795 -11.530   1.680  1.00  0.00     0.034 A 
HETATM    8  C   UNL     1      40.589 -12.203   0.611  1.00  0.00     0.104 A 
HETATM    9  C   UNL     1      39.686 -12.532  -0.574  1.00  0.00     0.067 A 
HETATM   10  C   UNL     1      40.379 -12.892  -1.878  1.00  0.00     0.020 C 
HETATM   11  N   UNL     1      40.954 -13.190  -2.961  1.00  0.00    -0.096 N 
HETATM   12  C   UNL     1      38.335 -12.363  -0.560  1.00  0.00     0.139 A 
HETATM   13  O   UNL     1      37.662 -11.862   0.570  1.00  0.00    -0.279 OA
ENDROOT
BRANCH   8  14
HETATM   14  C   UNL     1      41.201 -13.431   1.270  1.00  0.00    -0.044 A 
HETATM   15  C   UNL     1      42.545 -13.474   1.677  1.00  0.00     0.009 A 
HETATM   16  C   UNL     1      43.098 -14.642   2.211  1.00  0.00     0.013 A 
HETATM   17  C   UNL     1      42.328 -15.802   2.378  1.00  0.00    -0.026 A 
HETATM   18  C   UNL     1      40.973 -15.741   2.013  1.00  0.00     0.013 A 
HETATM   19  C   UNL     1      40.416 -14.577   1.469  1.00  0.00     0.009 A 
BRANCH  17  20
HETATM   20  C   UNL     1      42.930 -17.047   2.892  1.00  0.00    -0.026 A 
HETATM   21  C   UNL     1      43.594 -17.081   4.131  1.00  0.00     0.012 A 
HETATM   22  C   UNL     1      44.188 -18.255   4.603  1.00  0.00     0.001 A 
HETATM   23  C   UNL     1      44.125 -19.422   3.846  1.00  0.00     0.000 A 
HETATM   24  C   UNL     1      43.469 -19.415   2.619  1.00  0.00     0.001 A 
HETATM   25  C   UNL     1      42.879 -18.239   2.147  1.00  0.00     0.012 A 
ENDBRANCH  17  20
ENDBRANCH   8  14
BRANCH  12  26
HETATM   26  N   UNL     1      37.488 -12.620  -1.614  1.00  0.00    -0.282 NA
HETATM   27  H   UNL     1      36.856 -11.863  -1.864  1.00  0.00     0.126 HD
HETATM   28  H   UNL     1      37.979 -13.008  -2.415  1.00  0.00     0.126 HD
ENDBRANCH  12  26
TORSDOF 3
ENDMDL
MODEL 6
REMARK VINA RESULT:      -8.1      4.284      7.548
REMARK  3 active torsions:
REMARK  status: ('A' for Active; 'I' for Inactive)
REMARK    1  A    between atoms: C_8  and  C_9 
REMARK    2  A    between atoms: C_12  and  C_13 
REMARK    3  A    between atoms: C_24  and  N_25 
ROOT
HETATM    1  C   UNL     1      44.688 -18.653   2.689  1.00  0.00     0.073 C 
HETATM    2  C   UNL     1      44.119 -18.706   4.057  1.00  0.00     0.062 A 
HETATM    3  N   UNL     1      43.799 -19.885   4.615  1.00  0.00    -0.177 NA
HETATM    4  N   UNL     1      43.309 -19.559   5.829  1.00  0.00    -0.256 N 
HETATM    5  H   UNL     1      43.003 -20.300   6.450  1.00  0.00     0.191 HD
HETATM    6  C   UNL     1      43.317 -18.220   6.055  1.00  0.00     0.175 A 
HETATM    7  C   UNL     1      43.825 -17.630   4.926  1.00  0.00     0.034 A 
HETATM    8  C   UNL     1      43.962 -16.146   4.856  1.00  0.00     0.104 A 
HETATM    9  C   UNL     1      43.640 -15.533   6.215  1.00  0.00     0.067 A 
HETATM   10  C   UNL     1      44.065 -14.089   6.428  1.00  0.00     0.020 C 
HETATM   11  N   UNL     1      44.417 -12.890   6.605  1.00  0.00    -0.096 N 
HETATM   12  C   UNL     1      43.154 -16.248   7.267  1.00  0.00     0.139 A 
HETATM   13  O   UNL     1      42.910 -17.631   7.174  1.00  0.00    -0.279 OA
ENDROOT
BRANCH   8  14
HETATM   14  C   UNL     1      43.018 -15.701   3.748  1.00  0.00    -0.044 A 
HETATM   15  C   UNL     1      43.484 -15.220   2.513  1.00  0.00     0.009 A 
HETATM   16  C   UNL     1      42.594 -14.748   1.542  1.00  0.00     0.013 A 
HETATM   17  C   UNL     1      41.209 -14.756   1.760  1.00  0.00    -0.026 A 
HETATM   18  C   UNL     1      40.745 -15.281   2.977  1.00  0.00     0.013 A 
HETATM   19  C   UNL     1      41.632 -15.746   3.956  1.00  0.00     0.009 A 
BRANCH  17  20
HETATM   20  C   UNL     1      40.278 -14.208   0.754  1.00  0.00    -0.026 A 
HETATM   21  C   UNL     1      39.925 -14.942  -0.391  1.00  0.00     0.012 A 
HETATM   22  C   UNL     1      39.064 -14.409  -1.356  1.00  0.00     0.001 A 
HETATM   23  C   UNL     1      38.536 -13.132  -1.191  1.00  0.00     0.000 A 
HETATM   24  C   UNL     1      38.868 -12.387  -0.062  1.00  0.00     0.001 A 
HETATM   25  C   UNL     1      39.731 -12.921   0.899  1.00  0.00     0.012 A 
ENDBRANCH  17  20
ENDBRANCH   8  14
BRANCH  12  26
HETATM   26  N   UNL     1      42.877 -15.742   8.516  1.00  0.00    -0.282 NA
HETATM   27  H   UNL     1      43.686 -15.465   9.068  1.00  0.00     0.126 HD
HETATM   28  H   UNL     1      42.152 -15.030   8.489  1.00  0.00     0.126 HD
ENDBRANCH  12  26
TORSDOF 3
ENDMDL
MODEL 7
REMARK VINA RESULT:      -7.8      4.818      7.244
REMARK  3 active torsions:
REMARK  status: ('A' for Active; 'I' for Inactive)
REMARK    1  A    between atoms: C_8  and  C_9 
REMARK    2  A    between atoms: C_12  and  C_13 
REMARK    3  A    between atoms: C_24  and  N_25 
ROOT
HETATM    1  C   UNL     1      45.661 -10.832   7.245  1.00  0.00     0.073 C 
HETATM    2  C   UNL     1      44.431 -10.521   8.013  1.00  0.00     0.062 A 
HETATM    3  N   UNL     1      44.423 -10.621   9.353  1.00  0.00    -0.177 NA
HETATM    4  N   UNL     1      43.165 -10.285   9.705  1.00  0.00    -0.256 N 
HETATM    5  H   UNL     1      42.916 -10.279  10.688  1.00  0.00     0.191 HD
HETATM    6  C   UNL     1      42.388  -9.971   8.638  1.00  0.00     0.175 A 
HETATM    7  C   UNL     1      43.167 -10.122   7.520  1.00  0.00     0.034 A 
HETATM    8  C   UNL     1      42.597  -9.851   6.169  1.00  0.00     0.104 A 
HETATM    9  C   UNL     1      41.198  -9.257   6.307  1.00  0.00     0.067 A 
HETATM   10  C   UNL     1      40.613  -8.598   5.069  1.00  0.00     0.020 C 
HETATM   11  N   UNL     1      40.126  -8.051   4.042  1.00  0.00    -0.096 N 
HETATM   12  C   UNL     1      40.542  -9.149   7.495  1.00  0.00     0.139 A 
HETATM   13  O   UNL     1      41.118  -9.585   8.704  1.00  0.00    -0.279 OA
ENDROOT
BRANCH   8  14
HETATM   14  C   UNL     1      42.621 -11.188   5.441  1.00  0.00    -0.044 A 
HETATM   15  C   UNL     1      42.028 -12.345   5.975  1.00  0.00     0.009 A 
HETATM   16  C   UNL     1      42.131 -13.575   5.318  1.00  0.00     0.013 A 
HETATM   17  C   UNL     1      42.812 -13.694   4.098  1.00  0.00    -0.026 A 
HETATM   18  C   UNL     1      43.364 -12.527   3.545  1.00  0.00     0.013 A 
HETATM   19  C   UNL     1      43.271 -11.294   4.203  1.00  0.00     0.009 A 
BRANCH  17  20
HETATM   20  C   UNL     1      42.964 -15.004   3.436  1.00  0.00    -0.026 A 
HETATM   21  C   UNL     1      43.119 -15.106   2.043  1.00  0.00     0.012 A 
HETATM   22  C   UNL     1      43.235 -16.350   1.416  1.00  0.00     0.001 A 
HETATM   23  C   UNL     1      43.204 -17.518   2.172  1.00  0.00     0.000 A 
HETATM   24  C   UNL     1      43.056 -17.443   3.554  1.00  0.00     0.001 A 
HETATM   25  C   UNL     1      42.937 -16.198   4.178  1.00  0.00     0.012 A 
ENDBRANCH  17  20
ENDBRANCH   8  14
BRANCH  12  26
HETATM   26  N   UNL     1      39.295  -8.595   7.670  1.00  0.00    -0.282 NA
HETATM   27  H   UNL     1      38.513  -9.245   7.619  1.00  0.00     0.126 HD
HETATM   28  H   UNL     1      39.255  -7.991   8.487  1.00  0.00     0.126 HD
ENDBRANCH  12  26
TORSDOF 3
ENDMDL
MODEL 8
REMARK VINA RESULT:      -7.7      3.033      4.181
REMARK  3 active torsions:
REMARK  status: ('A' for Active; 'I' for Inactive)
REMARK    1  A    between atoms: C_8  and  C_9 
REMARK    2  A    between atoms: C_12  and  C_13 
REMARK    3  A    between atoms: C_24  and  N_25 
ROOT
HETATM    1  C   UNL     1      39.559 -13.377   2.631  1.00  0.00     0.073 C 
HETATM    2  C   UNL     1      40.745 -12.489   2.568  1.00  0.00     0.062 A 
HETATM    3  N   UNL     1      40.909 -11.647   1.535  1.00  0.00    -0.177 NA
HETATM    4  N   UNL     1      42.075 -11.020   1.796  1.00  0.00    -0.256 N 
HETATM    5  H   UNL     1      42.411 -10.317   1.147  1.00  0.00     0.191 HD
HETATM    6  C   UNL     1      42.643 -11.433   2.958  1.00  0.00     0.175 A 
HETATM    7  C   UNL     1      41.817 -12.393   3.485  1.00  0.00     0.034 A 
HETATM    8  C   UNL     1      42.168 -13.054   4.775  1.00  0.00     0.104 A 
HETATM    9  C   UNL     1      43.385 -12.371   5.392  1.00  0.00     0.067 A 
HETATM   10  C   UNL     1      43.666 -12.673   6.855  1.00  0.00     0.020 C 
HETATM   11  N   UNL     1      43.900 -12.923   8.069  1.00  0.00    -0.096 N 
HETATM   12  C   UNL     1      44.109 -11.409   4.757  1.00  0.00     0.139 A 
HETATM   13  O   UNL     1      43.779 -10.965   3.462  1.00  0.00    -0.279 OA
ENDROOT
BRANCH   8  14
HETATM   14  C   UNL     1      42.400 -14.519   4.432  1.00  0.00    -0.044 A 
HETATM   15  C   UNL     1      42.049 -15.560   5.308  1.00  0.00     0.009 A 
HETATM   16  C   UNL     1      42.343 -16.891   4.998  1.00  0.00     0.013 A 
HETATM   17  C   UNL     1      42.980 -17.236   3.797  1.00  0.00    -0.026 A 
HETATM   18  C   UNL     1      43.287 -16.196   2.903  1.00  0.00     0.013 A 
HETATM   19  C   UNL     1      43.004 -14.860   3.213  1.00  0.00     0.009 A 
BRANCH  17  20
HETATM   20  C   UNL     1      43.336 -18.636   3.499  1.00  0.00    -0.026 A 
HETATM   21  C   UNL     1      43.777 -19.509   4.509  1.00  0.00     0.012 A 
HETATM   22  C   UNL     1      44.140 -20.827   4.220  1.00  0.00     0.001 A 
HETATM   23  C   UNL     1      44.064 -21.301   2.913  1.00  0.00     0.000 A 
HETATM   24  C   UNL     1      43.626 -20.457   1.896  1.00  0.00     0.001 A 
HETATM   25  C   UNL     1      43.267 -19.139   2.187  1.00  0.00     0.012 A 
ENDBRANCH  17  20
ENDBRANCH   8  14
BRANCH  12  26
HETATM   26  N   UNL     1      45.194 -10.747   5.286  1.00  0.00    -0.282 NA
HETATM   27  H   UNL     1      46.105 -11.111   5.018  1.00  0.00     0.126 HD
HETATM   28  H   UNL     1      45.120  -9.739   5.174  1.00  0.00     0.126 HD
ENDBRANCH  12  26
TORSDOF 3
ENDMDL
MODEL 9
REMARK VINA RESULT:      -7.3     15.171     16.836
REMARK  3 active torsions:
REMARK  status: ('A' for Active; 'I' for Inactive)
REMARK    1  A    between atoms: C_8  and  C_9 
REMARK    2  A    between atoms: C_12  and  C_13 
REMARK    3  A    between atoms: C_24  and  N_25 
ROOT
HETATM    1  C   UNL     1      47.553 -31.600   0.777  1.00  0.00     0.073 C 
HETATM    2  C   UNL     1      47.565 -30.280   0.100  1.00  0.00     0.062 A 
HETATM    3  N   UNL     1      48.457 -29.341   0.457  1.00  0.00    -0.177 NA
HETATM    4  N   UNL     1      48.173 -28.290  -0.339  1.00  0.00    -0.256 N 
HETATM    5  H   UNL     1      48.732 -27.447  -0.257  1.00  0.00     0.191 HD
HETATM    6  C   UNL     1      47.142 -28.538  -1.186  1.00  0.00     0.175 A 
HETATM    7  C   UNL     1      46.712 -29.814  -0.926  1.00  0.00     0.034 A 
HETATM    8  C   UNL     1      45.574 -30.391  -1.699  1.00  0.00     0.104 A 
HETATM    9  C   UNL     1      45.181 -29.441  -2.827  1.00  0.00     0.067 A 
HETATM   10  C   UNL     1      44.291 -30.013  -3.919  1.00  0.00     0.020 C 
HETATM   11  N   UNL     1      43.553 -30.487  -4.826  1.00  0.00    -0.096 N 
HETATM   12  C   UNL     1      45.708 -28.195  -2.979  1.00  0.00     0.139 A 
HETATM   13  O   UNL     1      46.673 -27.685  -2.090  1.00  0.00    -0.279 OA
ENDROOT
BRANCH   8  14
HETATM   14  C   UNL     1      44.465 -30.620  -0.682  1.00  0.00    -0.044 A 
HETATM   15  C   UNL     1      43.866 -29.565   0.027  1.00  0.00     0.009 A 
HETATM   16  C   UNL     1      42.903 -29.814   1.010  1.00  0.00     0.013 A 
HETATM   17  C   UNL     1      42.487 -31.119   1.308  1.00  0.00    -0.026 A 
HETATM   18  C   UNL     1      43.055 -32.168   0.565  1.00  0.00     0.013 A 
HETATM   19  C   UNL     1      44.027 -31.925  -0.413  1.00  0.00     0.009 A 
BRANCH  17  20
HETATM   20  C   UNL     1      41.510 -31.380   2.382  1.00  0.00    -0.026 A 
HETATM   21  C   UNL     1      41.547 -30.666   3.593  1.00  0.00     0.012 A 
HETATM   22  C   UNL     1      40.638 -30.933   4.620  1.00  0.00     0.001 A 
HETATM   23  C   UNL     1      39.668 -31.918   4.454  1.00  0.00     0.000 A 
HETATM   24  C   UNL     1      39.608 -32.636   3.263  1.00  0.00     0.001 A 
HETATM   25  C   UNL     1      40.521 -32.368   2.239  1.00  0.00     0.012 A 
ENDBRANCH  17  20
ENDBRANCH   8  14
BRANCH  12  26
HETATM   26  N   UNL     1      45.404 -27.319  -3.995  1.00  0.00    -0.282 NA
HETATM   27  H   UNL     1      45.849 -26.406  -3.936  1.00  0.00     0.126 HD
HETATM   28  H   UNL     1      45.497 -27.748  -4.912  1.00  0.00     0.126 HD
ENDBRANCH  12  26
TORSDOF 3
ENDMDL
MODEL 10
REMARK VINA RESULT:      -7.3      3.460      4.794
REMARK  3 active torsions:
REMARK  status: ('A' for Active; 'I' for Inactive)
REMARK    1  A    between atoms: C_8  and  C_9 
REMARK    2  A    between atoms: C_12  and  C_13 
REMARK    3  A    between atoms: C_24  and  N_25 
ROOT
HETATM    1  C   UNL     1      40.389 -14.601   7.050  1.00  0.00     0.073 C 
HETATM    2  C   UNL     1      40.149 -13.635   5.951  1.00  0.00     0.062 A 
HETATM    3  N   UNL     1      38.898 -13.254   5.641  1.00  0.00    -0.177 NA
HETATM    4  N   UNL     1      39.054 -12.400   4.609  1.00  0.00    -0.256 N 
HETATM    5  H   UNL     1      38.232 -11.967   4.202  1.00  0.00     0.191 HD
HETATM    6  C   UNL     1      40.355 -12.226   4.265  1.00  0.00     0.175 A 
HETATM    7  C   UNL     1      41.097 -13.017   5.103  1.00  0.00     0.034 A 
HETATM    8  C   UNL     1      42.583 -13.051   4.978  1.00  0.00     0.104 A 
HETATM    9  C   UNL     1      43.042 -11.998   3.974  1.00  0.00     0.067 A 
HETATM   10  C   UNL     1      44.522 -11.650   3.980  1.00  0.00     0.020 C 
HETATM   11  N   UNL     1      45.750 -11.361   3.986  1.00  0.00    -0.096 N 
HETATM   12  C   UNL     1      42.186 -11.263   3.212  1.00  0.00     0.139 A 
HETATM   13  O   UNL     1      40.790 -11.424   3.299  1.00  0.00    -0.279 OA
ENDROOT
BRANCH   8  14
HETATM   14  C   UNL     1      42.925 -14.476   4.564  1.00  0.00    -0.044 A 
HETATM   15  C   UNL     1      42.659 -14.968   3.275  1.00  0.00     0.009 A 
HETATM   16  C   UNL     1      42.915 -16.304   2.948  1.00  0.00     0.013 A 
HETATM   17  C   UNL     1      43.462 -17.191   3.886  1.00  0.00    -0.026 A 
HETATM   18  C   UNL     1      43.768 -16.684   5.159  1.00  0.00     0.013 A 
HETATM   19  C   UNL     1      43.505 -15.350   5.495  1.00  0.00     0.009 A 
BRANCH  17  20
HETATM   20  C   UNL     1      43.680 -18.612   3.551  1.00  0.00    -0.026 A 
HETATM   21  C   UNL     1      43.494 -19.091   2.243  1.00  0.00     0.012 A 
HETATM   22  C   UNL     1      43.674 -20.443   1.934  1.00  0.00     0.001 A 
HETATM   23  C   UNL     1      44.049 -21.342   2.929  1.00  0.00     0.000 A 
HETATM   24  C   UNL     1      44.243 -20.890   4.231  1.00  0.00     0.001 A 
HETATM   25  C   UNL     1      44.059 -19.539   4.538  1.00  0.00     0.012 A 
ENDBRANCH  17  20
ENDBRANCH   8  14
BRANCH  12  26
HETATM   26  N   UNL     1      42.554 -10.285   2.317  1.00  0.00    -0.282 NA
HETATM   27  H   UNL     1      43.531 -10.292   2.034  1.00  0.00     0.126 HD
HETATM   28  H   UNL     1      41.913 -10.225   1.530  1.00  0.00     0.126 HD
ENDBRANCH  12  26
TORSDOF 3
ENDMDL
