MODEL 1
REMARK VINA RESULT:      -8.7      0.000      0.000
REMARK  6 active torsions:
REMARK  status: ('A' for Active; 'I' for Inactive)
REMARK    1  A    between atoms: C_3  and  C_4 
REMARK    2  A    between atoms: C_9  and  N_10 
REMARK       I    between atoms: N_10  and  C_11 
REMARK       I    between atoms: C_11  and  N_12 
REMARK    3  A    between atoms: N_12  and  C_13 
REMARK    4  A    between atoms: C_13  and  C_14 
REMARK    5  A    between atoms: C_14  and  C_15 
REMARK    6  A    between atoms: N_17  and  C_18 
ROOT
HETATM    1  N   UNL     1      41.623 -13.467   2.964  1.00  0.00    -0.309 N 
HETATM    2  C   UNL     1      40.943 -13.199   4.117  1.00  0.00     0.320 C 
HETATM    3  N   UNL     1      41.688 -13.058   5.247  1.00  0.00    -0.343 N 
HETATM    4  O   UNL     1      39.729 -13.056   4.232  1.00  0.00    -0.247 OA
HETATM    5  H   UNL     1      42.616 -13.590   3.044  1.00  0.00     0.170 HD
HETATM    6  H   UNL     1      41.098 -12.816   6.035  1.00  0.00     0.164 HD
ENDROOT
BRANCH   3   7
HETATM    7  C   UNL     1      43.123 -13.129   5.494  1.00  0.00     0.129 C 
BRANCH   7   8
HETATM    8  C   UNL     1      43.453 -13.961   6.739  1.00  0.00     0.061 C 
BRANCH   8   9
HETATM    9  C   UNL     1      43.566 -15.421   6.462  1.00  0.00    -0.020 A 
HETATM   10  C   UNL     1      43.563 -16.062   5.239  1.00  0.00     0.127 A 
HETATM   11  N   UNL     1      43.665 -17.417   5.473  1.00  0.00    -0.245 N 
HETATM   12  N   UNL     1      43.748 -17.670   6.807  1.00  0.00    -0.180 NA
HETATM   13  C   UNL     1      43.681 -16.475   7.388  1.00  0.00     0.148 A 
BRANCH  11  14
HETATM   14  C   UNL     1      43.675 -18.476   4.521  1.00  0.00     0.058 A 
HETATM   15  C   UNL     1      43.990 -19.789   4.897  1.00  0.00     0.031 A 
HETATM   16  C   UNL     1      44.005 -20.806   3.938  1.00  0.00     0.002 A 
HETATM   17  C   UNL     1      43.706 -20.523   2.608  1.00  0.00     0.000 A 
HETATM   18  C   UNL     1      43.389 -19.221   2.227  1.00  0.00     0.002 A 
HETATM   19  C   UNL     1      43.371 -18.199   3.180  1.00  0.00     0.031 A 
ENDBRANCH  11  14
ENDBRANCH   8   9
ENDBRANCH   7   8
ENDBRANCH   3   7
BRANCH   1  20
HETATM   20  C   UNL     1      41.098 -13.602   1.662  1.00  0.00     0.036 A 
HETATM   21  C   UNL     1      40.481 -14.755   1.183  1.00  0.00     0.030 A 
HETATM   22  C   UNL     1      39.984 -14.803  -0.125  1.00  0.00     0.018 A 
HETATM   23  C   UNL     1      40.083 -13.692  -0.973  1.00  0.00     0.015 A 
HETATM   24  C   UNL     1      40.694 -12.514  -0.503  1.00  0.00    -0.046 A 
HETATM   25  C   UNL     1      40.834 -11.279  -1.351  1.00  0.00     0.049 C 
HETATM   26  C   UNL     1      41.208 -12.494   0.810  1.00  0.00     0.037 A 
BRANCH  23  27
HETATM   27  C   UNL     1      39.552 -13.795  -2.365  1.00  0.00     0.156 C 
HETATM   28  C   UNL     1      38.058 -13.761  -2.565  1.00  0.00     0.097 C 
HETATM   29  O   UNL     1      40.314 -13.929  -3.318  1.00  0.00    -0.293 OA
ENDBRANCH  23  27
ENDBRANCH   1  20
TORSDOF 6
ENDMDL
MODEL 2
REMARK VINA RESULT:      -8.6      3.046      6.714
REMARK  6 active torsions:
REMARK  status: ('A' for Active; 'I' for Inactive)
REMARK    1  A    between atoms: C_3  and  C_4 
REMARK    2  A    between atoms: C_9  and  N_10 
REMARK       I    between atoms: N_10  and  C_11 
REMARK       I    between atoms: C_11  and  N_12 
REMARK    3  A    between atoms: N_12  and  C_13 
REMARK    4  A    between atoms: C_13  and  C_14 
REMARK    5  A    between atoms: C_14  and  C_15 
REMARK    6  A    between atoms: N_17  and  C_18 
ROOT
HETATM    1  N   UNL     1      41.403 -12.308   4.834  1.00  0.00    -0.309 N 
HETATM    2  C   UNL     1      40.297 -13.065   5.094  1.00  0.00     0.320 C 
HETATM    3  N   UNL     1      39.513 -13.385   4.029  1.00  0.00    -0.343 N 
HETATM    4  O   UNL     1      39.950 -13.498   6.189  1.00  0.00    -0.247 OA
HETATM    5  H   UNL     1      41.529 -12.003   3.886  1.00  0.00     0.170 HD
HETATM    6  H   UNL     1      38.748 -13.984   4.318  1.00  0.00     0.164 HD
ENDROOT
BRANCH   3   7
HETATM    7  C   UNL     1      39.614 -13.085   2.607  1.00  0.00     0.129 C 
BRANCH   7   8
HETATM    8  C   UNL     1      39.796 -14.350   1.761  1.00  0.00     0.061 C 
BRANCH   8   9
HETATM    9  C   UNL     1      41.030 -15.114   2.097  1.00  0.00    -0.020 A 
HETATM   10  C   UNL     1      41.146 -16.449   2.429  1.00  0.00     0.127 A 
HETATM   11  N   UNL     1      42.477 -16.708   2.684  1.00  0.00    -0.245 N 
HETATM   12  N   UNL     1      43.225 -15.585   2.514  1.00  0.00    -0.180 NA
HETATM   13  C   UNL     1      42.354 -14.639   2.171  1.00  0.00     0.148 A 
BRANCH  11  14
HETATM   14  C   UNL     1      43.073 -17.936   3.088  1.00  0.00     0.058 A 
HETATM   15  C   UNL     1      43.086 -19.051   2.239  1.00  0.00     0.031 A 
HETATM   16  C   UNL     1      43.668 -20.249   2.667  1.00  0.00     0.002 A 
HETATM   17  C   UNL     1      44.236 -20.341   3.935  1.00  0.00     0.000 A 
HETATM   18  C   UNL     1      44.228 -19.236   4.783  1.00  0.00     0.002 A 
HETATM   19  C   UNL     1      43.651 -18.035   4.362  1.00  0.00     0.031 A 
ENDBRANCH  11  14
ENDBRANCH   8   9
ENDBRANCH   7   8
ENDBRANCH   3   7
BRANCH   1  20
HETATM   20  C   UNL     1      42.399 -11.891   5.742  1.00  0.00     0.036 A 
HETATM   21  C   UNL     1      43.602 -12.561   5.947  1.00  0.00     0.030 A 
HETATM   22  C   UNL     1      44.539 -12.076   6.867  1.00  0.00     0.018 A 
HETATM   23  C   UNL     1      44.293 -10.899   7.588  1.00  0.00     0.015 A 
HETATM   24  C   UNL     1      43.087 -10.201   7.387  1.00  0.00    -0.046 A 
HETATM   25  C   UNL     1      42.754  -8.931   8.119  1.00  0.00     0.049 C 
HETATM   26  C   UNL     1      42.148 -10.720   6.472  1.00  0.00     0.037 A 
BRANCH  23  27
HETATM   27  C   UNL     1      45.316 -10.427   8.570  1.00  0.00     0.156 C 
HETATM   28  C   UNL     1      46.388  -9.484   8.088  1.00  0.00     0.097 C 
HETATM   29  O   UNL     1      45.294 -10.819   9.733  1.00  0.00    -0.293 OA
ENDBRANCH  23  27
ENDBRANCH   1  20
TORSDOF 6
ENDMDL
MODEL 3
REMARK VINA RESULT:      -8.5      5.416      9.088
REMARK  6 active torsions:
REMARK  status: ('A' for Active; 'I' for Inactive)
REMARK    1  A    between atoms: C_3  and  C_4 
REMARK    2  A    between atoms: C_9  and  N_10 
REMARK       I    between atoms: N_10  and  C_11 
REMARK       I    between atoms: C_11  and  N_12 
REMARK    3  A    between atoms: N_12  and  C_13 
REMARK    4  A    between atoms: C_13  and  C_14 
REMARK    5  A    between atoms: C_14  and  C_15 
REMARK    6  A    between atoms: N_17  and  C_18 
ROOT
HETATM    1  N   UNL     1      43.609 -10.832   8.828  1.00  0.00    -0.309 N 
HETATM    2  C   UNL     1      44.789 -11.003   8.165  1.00  0.00     0.320 C 
HETATM    3  N   UNL     1      44.737 -11.698   6.996  1.00  0.00    -0.343 N 
HETATM    4  O   UNL     1      45.889 -10.578   8.509  1.00  0.00    -0.247 OA
HETATM    5  H   UNL     1      42.799 -11.273   8.431  1.00  0.00     0.170 HD
HETATM    6  H   UNL     1      45.652 -11.729   6.559  1.00  0.00     0.164 HD
ENDROOT
BRANCH   3   7
HETATM    7  C   UNL     1      43.638 -12.317   6.267  1.00  0.00     0.129 C 
BRANCH   7   8
HETATM    8  C   UNL     1      43.362 -13.747   6.747  1.00  0.00     0.061 C 
BRANCH   8   9
HETATM    9  C   UNL     1      43.247 -14.732   5.635  1.00  0.00    -0.020 A 
HETATM   10  C   UNL     1      43.546 -16.080   5.652  1.00  0.00     0.127 A 
HETATM   11  N   UNL     1      43.309 -16.582   4.389  1.00  0.00    -0.245 N 
HETATM   12  N   UNL     1      42.853 -15.603   3.562  1.00  0.00    -0.180 NA
HETATM   13  C   UNL     1      42.826 -14.504   4.311  1.00  0.00     0.148 A 
BRANCH  11  14
HETATM   14  C   UNL     1      43.499 -17.912   3.921  1.00  0.00     0.058 A 
HETATM   15  C   UNL     1      43.974 -18.921   4.771  1.00  0.00     0.031 A 
HETATM   16  C   UNL     1      44.163 -20.217   4.281  1.00  0.00     0.002 A 
HETATM   17  C   UNL     1      43.882 -20.513   2.949  1.00  0.00     0.000 A 
HETATM   18  C   UNL     1      43.406 -19.517   2.100  1.00  0.00     0.002 A 
HETATM   19  C   UNL     1      43.213 -18.220   2.583  1.00  0.00     0.031 A 
ENDBRANCH  11  14
ENDBRANCH   8   9
ENDBRANCH   7   8
ENDBRANCH   3   7
BRANCH   1  20
HETATM   20  C   UNL     1      43.382 -10.111  10.019  1.00  0.00     0.036 A 
HETATM   21  C   UNL     1      43.434 -10.670  11.294  1.00  0.00     0.030 A 
HETATM   22  C   UNL     1      43.199  -9.881  12.426  1.00  0.00     0.018 A 
HETATM   23  C   UNL     1      42.923  -8.512  12.302  1.00  0.00     0.015 A 
HETATM   24  C   UNL     1      42.877  -7.927  11.022  1.00  0.00    -0.046 A 
HETATM   25  C   UNL     1      42.592  -6.466  10.810  1.00  0.00     0.049 C 
HETATM   26  C   UNL     1      43.095  -8.744   9.895  1.00  0.00     0.037 A 
BRANCH  23  27
HETATM   27  C   UNL     1      42.664  -7.713  13.538  1.00  0.00     0.156 C 
HETATM   28  C   UNL     1      41.247  -7.615  14.043  1.00  0.00     0.097 C 
HETATM   29  O   UNL     1      43.582  -7.132  14.111  1.00  0.00    -0.293 OA
ENDBRANCH  23  27
ENDBRANCH   1  20
TORSDOF 6
ENDMDL
MODEL 4
REMARK VINA RESULT:      -8.0      4.389      8.339
REMARK  6 active torsions:
REMARK  status: ('A' for Active; 'I' for Inactive)
REMARK    1  A    between atoms: C_3  and  C_4 
REMARK    2  A    between atoms: C_9  and  N_10 
REMARK       I    between atoms: N_10  and  C_11 
REMARK       I    between atoms: C_11  and  N_12 
REMARK    3  A    between atoms: N_12  and  C_13 
REMARK    4  A    between atoms: C_13  and  C_14 
REMARK    5  A    between atoms: C_14  and  C_15 
REMARK    6  A    between atoms: N_17  and  C_18 
ROOT
HETATM    1  N   UNL     1      43.297 -14.411   4.460  1.00  0.00    -0.309 N 
HETATM    2  C   UNL     1      42.435 -13.891   5.381  1.00  0.00     0.320 C 
HETATM    3  N   UNL     1      42.666 -12.610   5.779  1.00  0.00    -0.343 N 
HETATM    4  O   UNL     1      41.462 -14.457   5.872  1.00  0.00    -0.247 OA
HETATM    5  H   UNL     1      44.066 -13.829   4.182  1.00  0.00     0.170 HD
HETATM    6  H   UNL     1      41.947 -12.303   6.425  1.00  0.00     0.164 HD
ENDROOT
BRANCH   3   7
HETATM    7  C   UNL     1      43.680 -11.632   5.407  1.00  0.00     0.129 C 
BRANCH   7   8
HETATM    8  C   UNL     1      44.978 -11.817   6.201  1.00  0.00     0.061 C 
BRANCH   8   9
HETATM    9  C   UNL     1      45.015 -11.032   7.467  1.00  0.00    -0.020 A 
HETATM   10  C   UNL     1      44.070 -10.985   8.471  1.00  0.00     0.127 A 
HETATM   11  N   UNL     1      44.520 -10.105   9.434  1.00  0.00    -0.245 N 
HETATM   12  N   UNL     1      45.732  -9.594   9.088  1.00  0.00    -0.180 NA
HETATM   13  C   UNL     1      46.016 -10.147   7.911  1.00  0.00     0.148 A 
BRANCH  11  14
HETATM   14  C   UNL     1      43.872  -9.714  10.639  1.00  0.00     0.058 A 
HETATM   15  C   UNL     1      43.438 -10.665  11.573  1.00  0.00     0.031 A 
HETATM   16  C   UNL     1      42.793 -10.252  12.743  1.00  0.00     0.002 A 
HETATM   17  C   UNL     1      42.579  -8.897  12.988  1.00  0.00     0.000 A 
HETATM   18  C   UNL     1      43.011  -7.946  12.066  1.00  0.00     0.002 A 
HETATM   19  C   UNL     1      43.657  -8.351  10.895  1.00  0.00     0.031 A 
ENDBRANCH  11  14
ENDBRANCH   8   9
ENDBRANCH   7   8
ENDBRANCH   3   7
BRANCH   1  20
HETATM   20  C   UNL     1      43.247 -15.681   3.848  1.00  0.00     0.036 A 
HETATM   21  C   UNL     1      42.852 -15.900   2.531  1.00  0.00     0.030 A 
HETATM   22  C   UNL     1      42.835 -17.195   2.000  1.00  0.00     0.018 A 
HETATM   23  C   UNL     1      43.228 -18.294   2.776  1.00  0.00     0.015 A 
HETATM   24  C   UNL     1      43.642 -18.091   4.107  1.00  0.00    -0.046 A 
HETATM   25  C   UNL     1      44.082 -19.219   4.999  1.00  0.00     0.049 C 
HETATM   26  C   UNL     1      43.630 -16.782   4.628  1.00  0.00     0.037 A 
BRANCH  23  27
HETATM   27  C   UNL     1      43.179 -19.660   2.172  1.00  0.00     0.156 C 
HETATM   28  C   UNL     1      44.482 -20.344   1.845  1.00  0.00     0.097 C 
HETATM   29  O   UNL     1      42.103 -20.198   1.927  1.00  0.00    -0.293 OA
ENDBRANCH  23  27
ENDBRANCH   1  20
TORSDOF 6
ENDMDL
MODEL 5
REMARK VINA RESULT:      -7.9      1.624      2.321
REMARK  6 active torsions:
REMARK  status: ('A' for Active; 'I' for Inactive)
REMARK    1  A    between atoms: C_3  and  C_4 
REMARK    2  A    between atoms: C_9  and  N_10 
REMARK       I    between atoms: N_10  and  C_11 
REMARK       I    between atoms: C_11  and  N_12 
REMARK    3  A    between atoms: N_12  and  C_13 
REMARK    4  A    between atoms: C_13  and  C_14 
REMARK    5  A    between atoms: C_14  and  C_15 
REMARK    6  A    between atoms: N_17  and  C_18 
ROOT
HETATM    1  N   UNL     1      41.901 -11.555   2.737  1.00  0.00    -0.309 N 
HETATM    2  C   UNL     1      41.737 -10.334   3.325  1.00  0.00     0.320 C 
HETATM    3  N   UNL     1      42.386 -10.133   4.504  1.00  0.00    -0.343 N 
HETATM    4  O   UNL     1      41.078  -9.395   2.888  1.00  0.00    -0.247 OA
HETATM    5  H   UNL     1      42.446 -12.230   3.241  1.00  0.00     0.170 HD
HETATM    6  H   UNL     1      42.239  -9.186   4.834  1.00  0.00     0.164 HD
ENDROOT
BRANCH   3   7
HETATM    7  C   UNL     1      43.263 -10.981   5.302  1.00  0.00     0.129 C 
BRANCH   7   8
HETATM    8  C   UNL     1      42.476 -11.964   6.175  1.00  0.00     0.061 C 
BRANCH   8   9
HETATM    9  C   UNL     1      42.906 -13.381   6.006  1.00  0.00    -0.020 A 
HETATM   10  C   UNL     1      42.831 -14.168   4.875  1.00  0.00     0.127 A 
HETATM   11  N   UNL     1      43.323 -15.416   5.195  1.00  0.00    -0.245 N 
HETATM   12  N   UNL     1      43.725 -15.455   6.494  1.00  0.00    -0.180 NA
HETATM   13  C   UNL     1      43.466 -14.240   6.971  1.00  0.00     0.148 A 
BRANCH  11  14
HETATM   14  C   UNL     1      43.421 -16.564   4.360  1.00  0.00     0.058 A 
HETATM   15  C   UNL     1      44.140 -17.698   4.763  1.00  0.00     0.031 A 
HETATM   16  C   UNL     1      44.230 -18.807   3.916  1.00  0.00     0.002 A 
HETATM   17  C   UNL     1      43.607 -18.793   2.670  1.00  0.00     0.000 A 
HETATM   18  C   UNL     1      42.888 -17.671   2.264  1.00  0.00     0.002 A 
HETATM   19  C   UNL     1      42.792 -16.559   3.106  1.00  0.00     0.031 A 
ENDBRANCH  11  14
ENDBRANCH   8   9
ENDBRANCH   7   8
ENDBRANCH   3   7
BRANCH   1  20
HETATM   20  C   UNL     1      41.388 -11.994   1.498  1.00  0.00     0.036 A 
HETATM   21  C   UNL     1      41.330 -11.206   0.351  1.00  0.00     0.030 A 
HETATM   22  C   UNL     1      40.808 -11.723  -0.840  1.00  0.00     0.018 A 
HETATM   23  C   UNL     1      40.347 -13.044  -0.909  1.00  0.00     0.015 A 
HETATM   24  C   UNL     1      40.408 -13.860   0.237  1.00  0.00    -0.046 A 
HETATM   25  C   UNL     1      39.937 -15.289   0.241  1.00  0.00     0.049 C 
HETATM   26  C   UNL     1      40.917 -13.313   1.433  1.00  0.00     0.037 A 
BRANCH  23  27
HETATM   27  C   UNL     1      39.785 -13.548  -2.198  1.00  0.00     0.156 C 
HETATM   28  C   UNL     1      38.291 -13.494  -2.396  1.00  0.00     0.097 C 
HETATM   29  O   UNL     1      40.521 -14.014  -3.063  1.00  0.00    -0.293 OA
ENDBRANCH  23  27
ENDBRANCH   1  20
TORSDOF 6
ENDMDL
MODEL 6
REMARK VINA RESULT:      -7.8      3.429      9.573
REMARK  6 active torsions:
REMARK  status: ('A' for Active; 'I' for Inactive)
REMARK    1  A    between atoms: C_3  and  C_4 
REMARK    2  A    between atoms: C_9  and  N_10 
REMARK       I    between atoms: N_10  and  C_11 
REMARK       I    between atoms: C_11  and  N_12 
REMARK    3  A    between atoms: N_12  and  C_13 
REMARK    4  A    between atoms: C_13  and  C_14 
REMARK    5  A    between atoms: C_14  and  C_15 
REMARK    6  A    between atoms: N_17  and  C_18 
ROOT
HETATM    1  N   UNL     1      40.708 -15.132   0.886  1.00  0.00    -0.309 N 
HETATM    2  C   UNL     1      40.056 -13.933   0.859  1.00  0.00     0.320 C 
HETATM    3  N   UNL     1      39.342 -13.652  -0.264  1.00  0.00    -0.343 N 
HETATM    4  O   UNL     1      40.037 -13.093   1.754  1.00  0.00    -0.247 OA
HETATM    5  H   UNL     1      40.653 -15.694   0.056  1.00  0.00     0.170 HD
HETATM    6  H   UNL     1      38.860 -12.765  -0.166  1.00  0.00     0.164 HD
ENDROOT
BRANCH   3   7
HETATM    7  C   UNL     1      39.109 -14.396  -1.495  1.00  0.00     0.129 C 
BRANCH   7   8
HETATM    8  C   UNL     1      40.020 -13.925  -2.634  1.00  0.00     0.061 C 
BRANCH   8   9
HETATM    9  C   UNL     1      40.101 -12.442  -2.753  1.00  0.00    -0.020 A 
HETATM   10  C   UNL     1      41.199 -11.628  -2.564  1.00  0.00     0.127 A 
HETATM   11  N   UNL     1      40.796 -10.323  -2.755  1.00  0.00    -0.245 N 
HETATM   12  N   UNL     1      39.475 -10.270  -3.076  1.00  0.00    -0.180 NA
HETATM   13  C   UNL     1      39.068 -11.537  -3.065  1.00  0.00     0.148 A 
BRANCH  11  14
HETATM   14  C   UNL     1      41.574  -9.136  -2.641  1.00  0.00     0.058 A 
HETATM   15  C   UNL     1      41.652  -8.214  -3.693  1.00  0.00     0.031 A 
HETATM   16  C   UNL     1      42.434  -7.063  -3.557  1.00  0.00     0.002 A 
HETATM   17  C   UNL     1      43.137  -6.825  -2.379  1.00  0.00     0.000 A 
HETATM   18  C   UNL     1      43.061  -7.736  -1.327  1.00  0.00     0.002 A 
HETATM   19  C   UNL     1      42.281  -8.888  -1.455  1.00  0.00     0.031 A 
ENDBRANCH  11  14
ENDBRANCH   8   9
ENDBRANCH   7   8
ENDBRANCH   3   7
BRANCH   1  20
HETATM   20  C   UNL     1      41.465 -15.682   1.941  1.00  0.00     0.036 A 
HETATM   21  C   UNL     1      42.778 -16.127   1.814  1.00  0.00     0.030 A 
HETATM   22  C   UNL     1      43.459 -16.658   2.916  1.00  0.00     0.018 A 
HETATM   23  C   UNL     1      42.840 -16.740   4.171  1.00  0.00     0.015 A 
HETATM   24  C   UNL     1      41.516 -16.285   4.322  1.00  0.00    -0.046 A 
HETATM   25  C   UNL     1      40.787 -16.336   5.637  1.00  0.00     0.049 C 
HETATM   26  C   UNL     1      40.841 -15.774   3.194  1.00  0.00     0.037 A 
BRANCH  23  27
HETATM   27  C   UNL     1      43.600 -17.328   5.315  1.00  0.00     0.156 C 
HETATM   28  C   UNL     1      44.425 -16.404   6.175  1.00  0.00     0.097 C 
HETATM   29  O   UNL     1      43.571 -18.536   5.531  1.00  0.00    -0.293 OA
ENDBRANCH  23  27
ENDBRANCH   1  20
TORSDOF 6
ENDMDL
MODEL 7
REMARK VINA RESULT:      -7.8      3.059      7.448
REMARK  6 active torsions:
REMARK  status: ('A' for Active; 'I' for Inactive)
REMARK    1  A    between atoms: C_3  and  C_4 
REMARK    2  A    between atoms: C_9  and  N_10 
REMARK       I    between atoms: N_10  and  C_11 
REMARK       I    between atoms: C_11  and  N_12 
REMARK    3  A    between atoms: N_12  and  C_13 
REMARK    4  A    between atoms: C_13  and  C_14 
REMARK    5  A    between atoms: C_14  and  C_15 
REMARK    6  A    between atoms: N_17  and  C_18 
ROOT
HETATM    1  N   UNL     1      40.808 -14.868   3.474  1.00  0.00    -0.309 N 
HETATM    2  C   UNL     1      39.784 -14.751   2.579  1.00  0.00     0.320 C 
HETATM    3  N   UNL     1      39.081 -13.585   2.605  1.00  0.00    -0.343 N 
HETATM    4  O   UNL     1      39.444 -15.584   1.744  1.00  0.00    -0.247 OA
HETATM    5  H   UNL     1      40.935 -14.107   4.116  1.00  0.00     0.170 HD
HETATM    6  H   UNL     1      38.377 -13.578   1.876  1.00  0.00     0.164 HD
ENDROOT
BRANCH   3   7
HETATM    7  C   UNL     1      39.203 -12.381   3.415  1.00  0.00     0.129 C 
BRANCH   7   8
HETATM    8  C   UNL     1      40.165 -11.362   2.794  1.00  0.00     0.061 C 
BRANCH   8   9
HETATM    9  C   UNL     1      41.503 -11.335   3.448  1.00  0.00    -0.020 A 
HETATM   10  C   UNL     1      41.798 -11.149   4.784  1.00  0.00     0.127 A 
HETATM   11  N   UNL     1      43.171 -11.175   4.921  1.00  0.00    -0.245 N 
HETATM   12  N   UNL     1      43.770 -11.387   3.718  1.00  0.00    -0.180 NA
HETATM   13  C   UNL     1      42.768 -11.474   2.845  1.00  0.00     0.148 A 
BRANCH  11  14
HETATM   14  C   UNL     1      43.940 -11.001   6.105  1.00  0.00     0.058 A 
HETATM   15  C   UNL     1      45.329 -11.187   6.104  1.00  0.00     0.031 A 
HETATM   16  C   UNL     1      46.058 -11.021   7.286  1.00  0.00     0.002 A 
HETATM   17  C   UNL     1      45.411 -10.670   8.468  1.00  0.00     0.000 A 
HETATM   18  C   UNL     1      44.031 -10.481   8.476  1.00  0.00     0.002 A 
HETATM   19  C   UNL     1      43.296 -10.643   7.299  1.00  0.00     0.031 A 
ENDBRANCH  11  14
ENDBRANCH   8   9
ENDBRANCH   7   8
ENDBRANCH   3   7
BRANCH   1  20
HETATM   20  C   UNL     1      41.715 -15.939   3.615  1.00  0.00     0.036 A 
HETATM   21  C   UNL     1      42.276 -16.635   2.547  1.00  0.00     0.030 A 
HETATM   22  C   UNL     1      43.173 -17.685   2.776  1.00  0.00     0.018 A 
HETATM   23  C   UNL     1      43.535 -18.048   4.081  1.00  0.00     0.015 A 
HETATM   24  C   UNL     1      42.987 -17.349   5.173  1.00  0.00    -0.046 A 
HETATM   25  C   UNL     1      43.331 -17.676   6.600  1.00  0.00     0.049 C 
HETATM   26  C   UNL     1      42.069 -16.309   4.920  1.00  0.00     0.037 A 
BRANCH  23  27
HETATM   27  C   UNL     1      44.484 -19.185   4.277  1.00  0.00     0.156 C 
HETATM   28  C   UNL     1      43.929 -20.587   4.280  1.00  0.00     0.097 C 
HETATM   29  O   UNL     1      45.681 -18.978   4.454  1.00  0.00    -0.293 OA
ENDBRANCH  23  27
ENDBRANCH   1  20
TORSDOF 6
ENDMDL
MODEL 8
REMARK VINA RESULT:      -7.8      6.356     10.267
REMARK  6 active torsions:
REMARK  status: ('A' for Active; 'I' for Inactive)
REMARK    1  A    between atoms: C_3  and  C_4 
REMARK    2  A    between atoms: C_9  and  N_10 
REMARK       I    between atoms: N_10  and  C_11 
REMARK       I    between atoms: C_11  and  N_12 
REMARK    3  A    between atoms: N_12  and  C_13 
REMARK    4  A    between atoms: C_13  and  C_14 
REMARK    5  A    between atoms: C_14  and  C_15 
REMARK    6  A    between atoms: N_17  and  C_18 
ROOT
HETATM    1  N   UNL     1      42.544  -9.689   9.917  1.00  0.00    -0.309 N 
HETATM    2  C   UNL     1      43.493 -10.643   9.695  1.00  0.00     0.320 C 
HETATM    3  N   UNL     1      43.844 -10.866   8.400  1.00  0.00    -0.343 N 
HETATM    4  O   UNL     1      44.074 -11.308  10.549  1.00  0.00    -0.247 OA
HETATM    5  H   UNL     1      42.139  -9.257   9.106  1.00  0.00     0.170 HD
HETATM    6  H   UNL     1      44.585 -11.556   8.345  1.00  0.00     0.164 HD
ENDROOT
BRANCH   3   7
HETATM    7  C   UNL     1      43.406 -10.268   7.145  1.00  0.00     0.129 C 
BRANCH   7   8
HETATM    8  C   UNL     1      42.224 -11.024   6.527  1.00  0.00     0.061 C 
BRANCH   8   9
HETATM    9  C   UNL     1      42.604 -11.858   5.352  1.00  0.00    -0.020 A 
HETATM   10  C   UNL     1      42.442 -13.218   5.181  1.00  0.00     0.127 A 
HETATM   11  N   UNL     1      42.964 -13.553   3.948  1.00  0.00    -0.245 N 
HETATM   12  N   UNL     1      43.443 -12.450   3.313  1.00  0.00    -0.180 NA
HETATM   13  C   UNL     1      43.231 -11.446   4.161  1.00  0.00     0.148 A 
BRANCH  11  14
HETATM   14  C   UNL     1      43.046 -14.842   3.349  1.00  0.00     0.058 A 
HETATM   15  C   UNL     1      43.085 -14.995   1.956  1.00  0.00     0.031 A 
HETATM   16  C   UNL     1      43.153 -16.274   1.395  1.00  0.00     0.002 A 
HETATM   17  C   UNL     1      43.184 -17.400   2.213  1.00  0.00     0.000 A 
HETATM   18  C   UNL     1      43.149 -17.256   3.599  1.00  0.00     0.002 A 
HETATM   19  C   UNL     1      43.082 -15.981   4.167  1.00  0.00     0.031 A 
ENDBRANCH  11  14
ENDBRANCH   8   9
ENDBRANCH   7   8
ENDBRANCH   3   7
BRANCH   1  20
HETATM   20  C   UNL     1      42.048  -9.232  11.156  1.00  0.00     0.036 A 
HETATM   21  C   UNL     1      40.771  -9.506  11.637  1.00  0.00     0.030 A 
HETATM   22  C   UNL     1      40.359  -9.016  12.882  1.00  0.00     0.018 A 
HETATM   23  C   UNL     1      41.228  -8.253  13.676  1.00  0.00     0.015 A 
HETATM   24  C   UNL     1      42.527  -7.975  13.212  1.00  0.00    -0.046 A 
HETATM   25  C   UNL     1      43.517  -7.169  14.008  1.00  0.00     0.049 C 
HETATM   26  C   UNL     1      42.913  -8.460  11.945  1.00  0.00     0.037 A 
BRANCH  23  27
HETATM   27  C   UNL     1      40.740  -7.739  14.991  1.00  0.00     0.156 C 
HETATM   28  C   UNL     1      39.911  -6.479  15.004  1.00  0.00     0.097 C 
HETATM   29  O   UNL     1      41.028  -8.317  16.035  1.00  0.00    -0.293 OA
ENDBRANCH  23  27
ENDBRANCH   1  20
TORSDOF 6
ENDMDL
MODEL 9
REMARK VINA RESULT:      -7.6      6.379     10.176
REMARK  6 active torsions:
REMARK  status: ('A' for Active; 'I' for Inactive)
REMARK    1  A    between atoms: C_3  and  C_4 
REMARK    2  A    between atoms: C_9  and  N_10 
REMARK       I    between atoms: N_10  and  C_11 
REMARK       I    between atoms: C_11  and  N_12 
REMARK    3  A    between atoms: N_12  and  C_13 
REMARK    4  A    between atoms: C_13  and  C_14 
REMARK    5  A    between atoms: C_14  and  C_15 
REMARK    6  A    between atoms: N_17  and  C_18 
ROOT
HETATM    1  N   UNL     1      44.194 -11.580   6.992  1.00  0.00    -0.309 N 
HETATM    2  C   UNL     1      45.446 -11.052   6.857  1.00  0.00     0.320 C 
HETATM    3  N   UNL     1      45.778 -10.044   7.708  1.00  0.00    -0.343 N 
HETATM    4  O   UNL     1      46.306 -11.408   6.056  1.00  0.00    -0.247 OA
HETATM    5  H   UNL     1      43.595 -11.152   7.674  1.00  0.00     0.170 HD
HETATM    6  H   UNL     1      46.738  -9.754   7.559  1.00  0.00     0.164 HD
ENDROOT
BRANCH   3   7
HETATM    7  C   UNL     1      45.050  -9.385   8.785  1.00  0.00     0.129 C 
BRANCH   7   8
HETATM    8  C   UNL     1      45.372  -9.994  10.155  1.00  0.00     0.061 C 
BRANCH   8   9
HETATM    9  C   UNL     1      44.277  -9.823  11.150  1.00  0.00    -0.020 A 
HETATM   10  C   UNL     1      43.825  -8.656  11.733  1.00  0.00     0.127 A 
HETATM   11  N   UNL     1      42.814  -8.986  12.611  1.00  0.00    -0.245 N 
HETATM   12  N   UNL     1      42.590 -10.328  12.603  1.00  0.00    -0.180 NA
HETATM   13  C   UNL     1      43.471 -10.819  11.735  1.00  0.00     0.148 A 
BRANCH  11  14
HETATM   14  C   UNL     1      42.066  -8.120  13.457  1.00  0.00     0.058 A 
HETATM   15  C   UNL     1      40.677  -7.986  13.315  1.00  0.00     0.031 A 
HETATM   16  C   UNL     1      39.970  -7.118  14.152  1.00  0.00     0.002 A 
HETATM   17  C   UNL     1      40.637  -6.383  15.130  1.00  0.00     0.000 A 
HETATM   18  C   UNL     1      42.016  -6.514  15.278  1.00  0.00     0.002 A 
HETATM   19  C   UNL     1      42.730  -7.381  14.447  1.00  0.00     0.031 A 
ENDBRANCH  11  14
ENDBRANCH   8   9
ENDBRANCH   7   8
ENDBRANCH   3   7
BRANCH   1  20
HETATM   20  C   UNL     1      43.628 -12.658   6.279  1.00  0.00     0.036 A 
HETATM   21  C   UNL     1      43.298 -12.615   4.927  1.00  0.00     0.030 A 
HETATM   22  C   UNL     1      42.741 -13.733   4.296  1.00  0.00     0.018 A 
HETATM   23  C   UNL     1      42.520 -14.922   5.005  1.00  0.00     0.015 A 
HETATM   24  C   UNL     1      42.858 -14.988   6.370  1.00  0.00    -0.046 A 
HETATM   25  C   UNL     1      42.655 -16.229   7.195  1.00  0.00     0.049 C 
HETATM   26  C   UNL     1      43.396 -13.843   6.992  1.00  0.00     0.037 A 
BRANCH  23  27
HETATM   27  C   UNL     1      41.911 -16.085   4.292  1.00  0.00     0.156 C 
HETATM   28  C   UNL     1      42.824 -17.024   3.546  1.00  0.00     0.097 C 
HETATM   29  O   UNL     1      40.695 -16.255   4.296  1.00  0.00    -0.293 OA
ENDBRANCH  23  27
ENDBRANCH   1  20
TORSDOF 6
ENDMDL
MODEL 10
REMARK VINA RESULT:      -7.4     14.652     16.811
REMARK  6 active torsions:
REMARK  status: ('A' for Active; 'I' for Inactive)
REMARK    1  A    between atoms: C_3  and  C_4 
REMARK    2  A    between atoms: C_9  and  N_10 
REMARK       I    between atoms: N_10  and  C_11 
REMARK       I    between atoms: C_11  and  N_12 
REMARK    3  A    between atoms: N_12  and  C_13 
REMARK    4  A    between atoms: C_13  and  C_14 
REMARK    5  A    between atoms: C_14  and  C_15 
REMARK    6  A    between atoms: N_17  and  C_18 
ROOT
HETATM    1  N   UNL     1      47.579 -29.473   1.758  1.00  0.00    -0.309 N 
HETATM    2  C   UNL     1      48.001 -28.557   2.677  1.00  0.00     0.320 C 
HETATM    3  N   UNL     1      48.468 -29.048   3.858  1.00  0.00    -0.343 N 
HETATM    4  O   UNL     1      48.018 -27.337   2.538  1.00  0.00    -0.247 OA
HETATM    5  H   UNL     1      47.597 -30.437   2.039  1.00  0.00     0.170 HD
HETATM    6  H   UNL     1      48.798 -28.294   4.450  1.00  0.00     0.164 HD
ENDROOT
BRANCH   3   7
HETATM    7  C   UNL     1      48.626 -30.404   4.366  1.00  0.00     0.129 C 
BRANCH   7   8
HETATM    8  C   UNL     1      50.095 -30.839   4.401  1.00  0.00     0.061 C 
BRANCH   8   9
HETATM    9  C   UNL     1      50.549 -31.496   3.143  1.00  0.00    -0.020 A 
HETATM   10  C   UNL     1      50.944 -30.900   1.962  1.00  0.00     0.127 A 
HETATM   11  N   UNL     1      51.253 -31.903   1.066  1.00  0.00    -0.245 N 
HETATM   12  N   UNL     1      51.081 -33.126   1.636  1.00  0.00    -0.180 NA
HETATM   13  C   UNL     1      50.655 -32.873   2.871  1.00  0.00     0.148 A 
BRANCH  11  14
HETATM   14  C   UNL     1      51.681 -31.774  -0.285  1.00  0.00     0.058 A 
HETATM   15  C   UNL     1      51.037 -30.899  -1.171  1.00  0.00     0.031 A 
HETATM   16  C   UNL     1      51.471 -30.802  -2.497  1.00  0.00     0.002 A 
HETATM   17  C   UNL     1      52.542 -31.571  -2.944  1.00  0.00     0.000 A 
HETATM   18  C   UNL     1      53.189 -32.440  -2.069  1.00  0.00     0.002 A 
HETATM   19  C   UNL     1      52.762 -32.542  -0.742  1.00  0.00     0.031 A 
ENDBRANCH  11  14
ENDBRANCH   8   9
ENDBRANCH   7   8
ENDBRANCH   3   7
BRANCH   1  20
HETATM   20  C   UNL     1      47.108 -29.233   0.450  1.00  0.00     0.036 A 
HETATM   21  C   UNL     1      47.927 -28.920  -0.632  1.00  0.00     0.030 A 
HETATM   22  C   UNL     1      47.376 -28.699  -1.900  1.00  0.00     0.018 A 
HETATM   23  C   UNL     1      45.995 -28.803  -2.110  1.00  0.00     0.015 A 
HETATM   24  C   UNL     1      45.151 -29.130  -1.031  1.00  0.00    -0.046 A 
HETATM   25  C   UNL     1      43.661 -29.264  -1.180  1.00  0.00     0.049 C 
HETATM   26  C   UNL     1      45.724 -29.326   0.242  1.00  0.00     0.037 A 
BRANCH  23  27
HETATM   27  C   UNL     1      45.451 -28.545  -3.478  1.00  0.00     0.156 C 
HETATM   28  C   UNL     1      45.256 -29.719  -4.403  1.00  0.00     0.097 C 
HETATM   29  O   UNL     1      45.193 -27.401  -3.843  1.00  0.00    -0.293 OA
ENDBRANCH  23  27
ENDBRANCH   1  20
TORSDOF 6
ENDMDL
