MODEL 1
REMARK VINA RESULT:      -8.4      0.000      0.000
REMARK  6 active torsions:
REMARK  status: ('A' for Active; 'I' for Inactive)
REMARK    1  A    between atoms: C_8  and  C_9 
REMARK    2  A    between atoms: C_9  and  C_10 
REMARK       I    between atoms: C_10  and  N_11 
REMARK    3  A    between atoms: N_11  and  C_12 
REMARK    4  A    between atoms: C_12  and  C_13 
REMARK    5  A    between atoms: C_13  and  N_14 
REMARK    6  A    between atoms: C_13  and  C_20 
ROOT
HETATM    1  C   UNL     1      42.899 -14.863   1.752  1.00  0.00     0.160 C 
ENDROOT
BRANCH   1   2
HETATM    2  N   UNL     1      41.597 -14.608   1.142  1.00  0.00    -0.358 N 
HETATM    3  C   UNL     1      41.021 -13.348   1.192  1.00  0.00     0.226 C 
HETATM    4  O   UNL     1      41.444 -12.486   1.958  1.00  0.00    -0.273 OA
HETATM    5  H   UNL     1      41.411 -15.116   0.280  1.00  0.00     0.162 HD
BRANCH   3   6
HETATM    6  C   UNL     1      39.802 -13.171   0.279  1.00  0.00     0.111 C 
HETATM    7  C   UNL     1      38.918 -12.031   0.781  1.00  0.00     0.025 C 
BRANCH   6   8
HETATM    8  C   UNL     1      40.230 -12.999  -1.149  1.00  0.00     0.004 A 
HETATM    9  C   UNL     1      40.972 -11.983  -1.734  1.00  0.00     0.033 A 
HETATM   10  C   UNL     1      41.597 -10.749  -1.196  1.00  0.00     0.070 C 
HETATM   11  N   UNL     1      41.073 -12.302  -3.060  1.00  0.00    -0.282 N 
HETATM   12  H   UNL     1      41.534 -11.780  -3.799  1.00  0.00     0.189 HD
HETATM   13  N   UNL     1      40.479 -13.456  -3.378  1.00  0.00    -0.179 NA
HETATM   14  C   UNL     1      39.934 -13.878  -2.236  1.00  0.00     0.060 A 
HETATM   15  C   UNL     1      39.144 -15.136  -2.225  1.00  0.00     0.073 C 
ENDBRANCH   6   8
ENDBRANCH   3   6
ENDBRANCH   1   2
BRANCH   1  16
HETATM   16  C   UNL     1      42.952 -15.237   3.274  1.00  0.00     0.238 C 
BRANCH  16  17
HETATM   17  N   UNL     1      41.666 -14.947   4.060  1.00  0.00    -0.061 N 
HETATM   18  H   UNL     1      41.110 -14.382   3.405  1.00  0.00     0.280 HD
HETATM   19  C   UNL     1      41.761 -14.136   5.325  1.00  0.00     0.236 C 
HETATM   20  C   UNL     1      41.488 -15.131   6.430  1.00  0.00     0.029 C 
HETATM   21  C   UNL     1      40.440 -16.044   5.831  1.00  0.00     0.029 C 
HETATM   22  C   UNL     1      40.808 -16.159   4.362  1.00  0.00     0.236 C 
ENDBRANCH  16  17
BRANCH  16  23
HETATM   23  C   UNL     1      43.380 -16.688   3.502  1.00  0.00    -0.024 A 
HETATM   24  C   UNL     1      43.182 -17.696   2.542  1.00  0.00     0.033 A 
HETATM   25  C   UNL     1      43.557 -19.016   2.810  1.00  0.00     0.034 A 
HETATM   26 CL   UNL     1      43.289 -20.226   1.619  1.00  0.00    -0.084 Cl
HETATM   27  C   UNL     1      44.135 -19.356   4.028  1.00  0.00     0.024 A 
HETATM   28  C   UNL     1      44.337 -18.369   4.990  1.00  0.00     0.002 A 
HETATM   29  C   UNL     1      43.960 -17.048   4.732  1.00  0.00     0.009 A 
ENDBRANCH  16  23
ENDBRANCH   1  16
TORSDOF 6
ENDMDL
MODEL 2
REMARK VINA RESULT:      -7.9      1.365      1.953
REMARK  6 active torsions:
REMARK  status: ('A' for Active; 'I' for Inactive)
REMARK    1  A    between atoms: C_8  and  C_9 
REMARK    2  A    between atoms: C_9  and  C_10 
REMARK       I    between atoms: C_10  and  N_11 
REMARK    3  A    between atoms: N_11  and  C_12 
REMARK    4  A    between atoms: C_12  and  C_13 
REMARK    5  A    between atoms: C_13  and  N_14 
REMARK    6  A    between atoms: C_13  and  C_20 
ROOT
HETATM    1  C   UNL     1      42.601 -15.110   1.508  1.00  0.00     0.160 C 
ENDROOT
BRANCH   1   2
HETATM    2  N   UNL     1      41.981 -13.873   1.041  1.00  0.00    -0.358 N 
HETATM    3  C   UNL     1      40.601 -13.749   0.977  1.00  0.00     0.226 C 
HETATM    4  O   UNL     1      39.870 -14.732   1.055  1.00  0.00    -0.273 OA
HETATM    5  H   UNL     1      42.464 -13.016   1.299  1.00  0.00     0.162 HD
BRANCH   3   6
HETATM    6  C   UNL     1      40.104 -12.318   0.736  1.00  0.00     0.111 C 
HETATM    7  C   UNL     1      41.282 -11.359   0.588  1.00  0.00     0.025 C 
BRANCH   6   8
HETATM    8  C   UNL     1      39.160 -12.275  -0.430  1.00  0.00     0.004 A 
HETATM    9  C   UNL     1      39.331 -12.742  -1.725  1.00  0.00     0.033 A 
HETATM   10  C   UNL     1      40.453 -13.432  -2.410  1.00  0.00     0.070 C 
HETATM   11  N   UNL     1      38.174 -12.448  -2.392  1.00  0.00    -0.282 N 
HETATM   12  H   UNL     1      37.945 -12.629  -3.364  1.00  0.00     0.189 HD
HETATM   13  N   UNL     1      37.255 -11.851  -1.627  1.00  0.00    -0.179 NA
HETATM   14  C   UNL     1      37.848 -11.709  -0.440  1.00  0.00     0.060 A 
HETATM   15  C   UNL     1      37.119 -11.033   0.664  1.00  0.00     0.073 C 
ENDBRANCH   6   8
ENDBRANCH   3   6
ENDBRANCH   1   2
BRANCH   1  16
HETATM   16  C   UNL     1      42.743 -15.339   3.053  1.00  0.00     0.238 C 
BRANCH  16  17
HETATM   17  N   UNL     1      41.476 -15.051   3.871  1.00  0.00    -0.061 N 
HETATM   18  H   UNL     1      40.868 -14.562   3.202  1.00  0.00     0.280 HD
HETATM   19  C   UNL     1      41.583 -14.145   5.069  1.00  0.00     0.236 C 
HETATM   20  C   UNL     1      41.404 -15.066   6.254  1.00  0.00     0.029 C 
HETATM   21  C   UNL     1      40.377 -16.068   5.768  1.00  0.00     0.029 C 
HETATM   22  C   UNL     1      40.691 -16.275   4.297  1.00  0.00     0.236 C 
ENDBRANCH  16  17
BRANCH  16  23
HETATM   23  C   UNL     1      43.266 -16.737   3.387  1.00  0.00    -0.024 A 
HETATM   24  C   UNL     1      43.157 -17.820   2.498  1.00  0.00     0.033 A 
HETATM   25  C   UNL     1      43.618 -19.089   2.863  1.00  0.00     0.034 A 
HETATM   26 CL   UNL     1      43.459 -20.394   1.755  1.00  0.00    -0.084 Cl
HETATM   27  C   UNL     1      44.194 -19.303   4.109  1.00  0.00     0.024 A 
HETATM   28  C   UNL     1      44.308 -18.241   5.003  1.00  0.00     0.002 A 
HETATM   29  C   UNL     1      43.845 -16.971   4.649  1.00  0.00     0.009 A 
ENDBRANCH  16  23
ENDBRANCH   1  16
TORSDOF 6
ENDMDL
MODEL 3
REMARK VINA RESULT:      -7.7      0.298      1.621
REMARK  6 active torsions:
REMARK  status: ('A' for Active; 'I' for Inactive)
REMARK    1  A    between atoms: C_8  and  C_9 
REMARK    2  A    between atoms: C_9  and  C_10 
REMARK       I    between atoms: C_10  and  N_11 
REMARK    3  A    between atoms: N_11  and  C_12 
REMARK    4  A    between atoms: C_12  and  C_13 
REMARK    5  A    between atoms: C_13  and  N_14 
REMARK    6  A    between atoms: C_13  and  C_20 
ROOT
HETATM    1  C   UNL     1      42.753 -14.776   1.903  1.00  0.00     0.160 C 
ENDROOT
BRANCH   1   2
HETATM    2  N   UNL     1      41.458 -14.373   1.361  1.00  0.00    -0.358 N 
HETATM    3  C   UNL     1      41.088 -13.037   1.318  1.00  0.00     0.226 C 
HETATM    4  O   UNL     1      41.703 -12.187   1.957  1.00  0.00    -0.273 OA
HETATM    5  H   UNL     1      41.123 -14.922   0.574  1.00  0.00     0.162 HD
BRANCH   3   6
HETATM    6  C   UNL     1      39.837 -12.752   0.479  1.00  0.00     0.111 C 
HETATM    7  C   UNL     1      39.141 -11.485   0.970  1.00  0.00     0.025 C 
BRANCH   6   8
HETATM    8  C   UNL     1      40.178 -12.709  -0.982  1.00  0.00     0.004 A 
HETATM    9  C   UNL     1      39.864 -13.608  -1.990  1.00  0.00     0.033 A 
HETATM   10  C   UNL     1      39.106 -14.884  -2.007  1.00  0.00     0.070 C 
HETATM   11  N   UNL     1      40.418 -13.104  -3.134  1.00  0.00    -0.282 N 
HETATM   12  H   UNL     1      40.404 -13.503  -4.069  1.00  0.00     0.189 HD
HETATM   13  N   UNL     1      41.044 -11.937  -2.955  1.00  0.00    -0.179 NA
HETATM   14  C   UNL     1      40.935 -11.696  -1.648  1.00  0.00     0.060 A 
HETATM   15  C   UNL     1      41.564 -10.479  -1.074  1.00  0.00     0.073 C 
ENDBRANCH   6   8
ENDBRANCH   3   6
ENDBRANCH   1   2
BRANCH   1  16
HETATM   16  C   UNL     1      42.842 -15.164   3.419  1.00  0.00     0.238 C 
BRANCH  16  17
HETATM   17  N   UNL     1      41.558 -14.930   4.227  1.00  0.00    -0.061 N 
HETATM   18  H   UNL     1      40.997 -14.328   3.611  1.00  0.00     0.280 HD
HETATM   19  C   UNL     1      41.655 -14.199   5.540  1.00  0.00     0.236 C 
HETATM   20  C   UNL     1      41.392 -15.262   6.582  1.00  0.00     0.029 C 
HETATM   21  C   UNL     1      40.345 -16.141   5.931  1.00  0.00     0.029 C 
HETATM   22  C   UNL     1      40.707 -16.163   4.457  1.00  0.00     0.236 C 
ENDBRANCH  16  17
BRANCH  16  23
HETATM   23  C   UNL     1      43.326 -16.601   3.624  1.00  0.00    -0.024 A 
HETATM   24  C   UNL     1      43.145 -17.606   2.659  1.00  0.00     0.033 A 
HETATM   25  C   UNL     1      43.571 -18.915   2.906  1.00  0.00     0.034 A 
HETATM   26 CL   UNL     1      43.324 -20.123   1.707  1.00  0.00    -0.084 Cl
HETATM   27  C   UNL     1      44.185 -19.246   4.109  1.00  0.00     0.024 A 
HETATM   28  C   UNL     1      44.370 -18.262   5.077  1.00  0.00     0.002 A 
HETATM   29  C   UNL     1      43.942 -16.953   4.840  1.00  0.00     0.009 A 
ENDBRANCH  16  23
ENDBRANCH   1  16
TORSDOF 6
ENDMDL
MODEL 4
REMARK VINA RESULT:      -7.7      3.245      4.686
REMARK  6 active torsions:
REMARK  status: ('A' for Active; 'I' for Inactive)
REMARK    1  A    between atoms: C_8  and  C_9 
REMARK    2  A    between atoms: C_9  and  C_10 
REMARK       I    between atoms: C_10  and  N_11 
REMARK    3  A    between atoms: N_11  and  C_12 
REMARK    4  A    between atoms: C_12  and  C_13 
REMARK    5  A    between atoms: C_13  and  N_14 
REMARK    6  A    between atoms: C_13  and  C_20 
ROOT
HETATM    1  C   UNL     1      43.097 -15.757   3.219  1.00  0.00     0.160 C 
ENDROOT
BRANCH   1   2
HETATM    2  N   UNL     1      43.360 -14.322   3.164  1.00  0.00    -0.358 N 
HETATM    3  C   UNL     1      42.340 -13.420   2.901  1.00  0.00     0.226 C 
HETATM    4  O   UNL     1      41.260 -13.796   2.455  1.00  0.00    -0.273 OA
HETATM    5  H   UNL     1      44.059 -13.980   3.820  1.00  0.00     0.162 HD
BRANCH   3   6
HETATM    6  C   UNL     1      42.711 -11.953   3.149  1.00  0.00     0.111 C 
HETATM    7  C   UNL     1      42.071 -11.054   2.094  1.00  0.00     0.025 C 
BRANCH   6   8
HETATM    8  C   UNL     1      42.367 -11.550   4.554  1.00  0.00     0.004 A 
HETATM    9  C   UNL     1      43.196 -11.374   5.651  1.00  0.00     0.033 A 
HETATM   10  C   UNL     1      44.662 -11.504   5.842  1.00  0.00     0.070 C 
HETATM   11  N   UNL     1      42.381 -11.014   6.689  1.00  0.00    -0.282 N 
HETATM   12  H   UNL     1      42.638 -10.818   7.652  1.00  0.00     0.189 HD
HETATM   13  N   UNL     1      41.093 -10.916   6.347  1.00  0.00    -0.179 NA
HETATM   14  C   UNL     1      41.061 -11.269   5.060  1.00  0.00     0.060 A 
HETATM   15  C   UNL     1      39.758 -11.315   4.349  1.00  0.00     0.073 C 
ENDBRANCH   6   8
ENDBRANCH   3   6
ENDBRANCH   1   2
BRANCH   1  16
HETATM   16  C   UNL     1      43.508 -16.545   4.511  1.00  0.00     0.238 C 
BRANCH  16  17
HETATM   17  N   UNL     1      42.581 -16.341   5.718  1.00  0.00    -0.061 N 
HETATM   18  H   UNL     1      42.837 -17.113   6.346  1.00  0.00     0.280 HD
HETATM   19  C   UNL     1      41.094 -16.454   5.512  1.00  0.00     0.236 C 
HETATM   20  C   UNL     1      40.586 -15.037   5.655  1.00  0.00     0.029 C 
HETATM   21  C   UNL     1      41.467 -14.456   6.741  1.00  0.00     0.029 C 
HETATM   22  C   UNL     1      42.833 -15.079   6.518  1.00  0.00     0.236 C 
ENDBRANCH  16  17
BRANCH  16  23
HETATM   23  C   UNL     1      43.690 -18.041   4.247  1.00  0.00    -0.024 A 
HETATM   24  C   UNL     1      43.566 -18.605   2.966  1.00  0.00     0.033 A 
HETATM   25  C   UNL     1      43.706 -19.983   2.779  1.00  0.00     0.034 A 
HETATM   26 CL   UNL     1      43.537 -20.642   1.199  1.00  0.00    -0.084 Cl
HETATM   27  C   UNL     1      43.972 -20.822   3.855  1.00  0.00     0.024 A 
HETATM   28  C   UNL     1      44.096 -20.279   5.132  1.00  0.00     0.002 A 
HETATM   29  C   UNL     1      43.952 -18.903   5.328  1.00  0.00     0.009 A 
ENDBRANCH  16  23
ENDBRANCH   1  16
TORSDOF 6
ENDMDL
MODEL 5
REMARK VINA RESULT:      -7.7      2.000      2.873
REMARK  6 active torsions:
REMARK  status: ('A' for Active; 'I' for Inactive)
REMARK    1  A    between atoms: C_8  and  C_9 
REMARK    2  A    between atoms: C_9  and  C_10 
REMARK       I    between atoms: C_10  and  N_11 
REMARK    3  A    between atoms: N_11  and  C_12 
REMARK    4  A    between atoms: C_12  and  C_13 
REMARK    5  A    between atoms: C_13  and  N_14 
REMARK    6  A    between atoms: C_13  and  C_20 
ROOT
HETATM    1  C   UNL     1      40.013 -13.838   2.412  1.00  0.00     0.160 C 
ENDROOT
BRANCH   1   2
HETATM    2  N   UNL     1      39.318 -13.626   1.146  1.00  0.00    -0.358 N 
HETATM    3  C   UNL     1      39.104 -12.347   0.656  1.00  0.00     0.226 C 
HETATM    4  O   UNL     1      39.249 -11.360   1.373  1.00  0.00    -0.273 OA
HETATM    5  H   UNL     1      39.498 -14.321   0.426  1.00  0.00     0.162 HD
BRANCH   3   6
HETATM    6  C   UNL     1      38.616 -12.296  -0.797  1.00  0.00     0.111 C 
HETATM    7  C   UNL     1      37.931 -10.963  -1.086  1.00  0.00     0.025 C 
BRANCH   6   8
HETATM    8  C   UNL     1      39.741 -12.598  -1.744  1.00  0.00     0.004 A 
HETATM    9  C   UNL     1      40.896 -11.876  -2.003  1.00  0.00     0.033 A 
HETATM   10  C   UNL     1      41.434 -10.601  -1.466  1.00  0.00     0.070 C 
HETATM   11  N   UNL     1      41.581 -12.582  -2.953  1.00  0.00    -0.282 N 
HETATM   12  H   UNL     1      42.465 -12.349  -3.395  1.00  0.00     0.189 HD
HETATM   13  N   UNL     1      40.976 -13.719  -3.311  1.00  0.00    -0.179 NA
HETATM   14  C   UNL     1      39.841 -13.729  -2.610  1.00  0.00     0.060 A 
HETATM   15  C   UNL     1      38.880 -14.848  -2.792  1.00  0.00     0.073 C 
ENDBRANCH   6   8
ENDBRANCH   3   6
ENDBRANCH   1   2
BRANCH   1  16
HETATM   16  C   UNL     1      41.581 -13.803   2.421  1.00  0.00     0.238 C 
BRANCH  16  17
HETATM   17  N   UNL     1      42.201 -12.725   3.322  1.00  0.00    -0.061 N 
HETATM   18  H   UNL     1      43.112 -13.127   3.578  1.00  0.00     0.280 HD
HETATM   19  C   UNL     1      41.519 -12.391   4.620  1.00  0.00     0.236 C 
HETATM   20  C   UNL     1      40.943 -11.010   4.399  1.00  0.00     0.029 C 
HETATM   21  C   UNL     1      41.989 -10.328   3.542  1.00  0.00     0.029 C 
HETATM   22  C   UNL     1      42.526 -11.416   2.630  1.00  0.00     0.236 C 
ENDBRANCH  16  17
BRANCH  16  23
HETATM   23  C   UNL     1      42.192 -15.166   2.751  1.00  0.00    -0.024 A 
HETATM   24  C   UNL     1      42.223 -15.686   4.057  1.00  0.00     0.033 A 
HETATM   25  C   UNL     1      42.825 -16.921   4.316  1.00  0.00     0.034 A 
HETATM   26 CL   UNL     1      42.856 -17.522   5.927  1.00  0.00    -0.084 Cl
HETATM   27  C   UNL     1      43.400 -17.659   3.289  1.00  0.00     0.024 A 
HETATM   28  C   UNL     1      43.379 -17.158   1.989  1.00  0.00     0.002 A 
HETATM   29  C   UNL     1      42.785 -15.921   1.722  1.00  0.00     0.009 A 
ENDBRANCH  16  23
ENDBRANCH   1  16
TORSDOF 6
ENDMDL
MODEL 6
REMARK VINA RESULT:      -7.6      1.991      2.973
REMARK  6 active torsions:
REMARK  status: ('A' for Active; 'I' for Inactive)
REMARK    1  A    between atoms: C_8  and  C_9 
REMARK    2  A    between atoms: C_9  and  C_10 
REMARK       I    between atoms: C_10  and  N_11 
REMARK    3  A    between atoms: N_11  and  C_12 
REMARK    4  A    between atoms: C_12  and  C_13 
REMARK    5  A    between atoms: C_13  and  N_14 
REMARK    6  A    between atoms: C_13  and  C_20 
ROOT
HETATM    1  C   UNL     1      41.244 -14.924   1.497  1.00  0.00     0.160 C 
ENDROOT
BRANCH   1   2
HETATM    2  N   UNL     1      40.993 -14.066   0.342  1.00  0.00    -0.358 N 
HETATM    3  C   UNL     1      39.901 -13.212   0.313  1.00  0.00     0.226 C 
HETATM    4  O   UNL     1      38.981 -13.329   1.118  1.00  0.00    -0.273 OA
HETATM    5  H   UNL     1      41.822 -13.697  -0.117  1.00  0.00     0.162 HD
BRANCH   3   6
HETATM    6  C   UNL     1      39.927 -12.188  -0.829  1.00  0.00     0.111 C 
HETATM    7  C   UNL     1      41.247 -12.268  -1.590  1.00  0.00     0.025 C 
BRANCH   6   8
HETATM    8  C   UNL     1      38.725 -12.352  -1.713  1.00  0.00     0.004 A 
HETATM    9  C   UNL     1      38.332 -13.440  -2.478  1.00  0.00     0.033 A 
HETATM   10  C   UNL     1      38.916 -14.787  -2.695  1.00  0.00     0.070 C 
HETATM   11  N   UNL     1      37.172 -13.068  -3.100  1.00  0.00    -0.282 N 
HETATM   12  H   UNL     1      36.606 -13.605  -3.750  1.00  0.00     0.189 HD
HETATM   13  N   UNL     1      36.767 -11.836  -2.779  1.00  0.00    -0.179 NA
HETATM   14  C   UNL     1      37.715 -11.373  -1.962  1.00  0.00     0.060 A 
HETATM   15  C   UNL     1      37.611  -9.989  -1.433  1.00  0.00     0.073 C 
ENDBRANCH   6   8
ENDBRANCH   3   6
ENDBRANCH   1   2
BRANCH   1  16
HETATM   16  C   UNL     1      42.608 -14.778   2.256  1.00  0.00     0.238 C 
BRANCH  16  17
HETATM   17  N   UNL     1      42.641 -13.679   3.328  1.00  0.00    -0.061 N 
HETATM   18  H   UNL     1      43.092 -14.141   4.127  1.00  0.00     0.280 HD
HETATM   19  C   UNL     1      41.335 -13.140   3.848  1.00  0.00     0.236 C 
HETATM   20  C   UNL     1      41.255 -11.739   3.283  1.00  0.00     0.029 C 
HETATM   21  C   UNL     1      42.691 -11.262   3.322  1.00  0.00     0.029 C 
HETATM   22  C   UNL     1      43.525 -12.491   3.006  1.00  0.00     0.236 C 
ENDBRANCH  16  17
BRANCH  16  23
HETATM   23  C   UNL     1      43.083 -16.101   2.859  1.00  0.00    -0.024 A 
HETATM   24  C   UNL     1      43.055 -17.312   2.146  1.00  0.00     0.033 A 
HETATM   25  C   UNL     1      43.466 -18.503   2.752  1.00  0.00     0.034 A 
HETATM   26 CL   UNL     1      43.408 -19.969   1.854  1.00  0.00    -0.084 Cl
HETATM   27  C   UNL     1      43.912 -18.513   4.068  1.00  0.00     0.024 A 
HETATM   28  C   UNL     1      43.944 -17.321   4.789  1.00  0.00     0.002 A 
HETATM   29  C   UNL     1      43.530 -16.127   4.193  1.00  0.00     0.009 A 
ENDBRANCH  16  23
ENDBRANCH   1  16
TORSDOF 6
ENDMDL
MODEL 7
REMARK VINA RESULT:      -7.6      2.960      4.615
REMARK  6 active torsions:
REMARK  status: ('A' for Active; 'I' for Inactive)
REMARK    1  A    between atoms: C_8  and  C_9 
REMARK    2  A    between atoms: C_9  and  C_10 
REMARK       I    between atoms: C_10  and  N_11 
REMARK    3  A    between atoms: N_11  and  C_12 
REMARK    4  A    between atoms: C_12  and  C_13 
REMARK    5  A    between atoms: C_13  and  N_14 
REMARK    6  A    between atoms: C_13  and  C_20 
ROOT
HETATM    1  C   UNL     1      41.926 -15.693   2.928  1.00  0.00     0.160 C 
ENDROOT
BRANCH   1   2
HETATM    2  N   UNL     1      41.985 -14.267   2.621  1.00  0.00    -0.358 N 
HETATM    3  C   UNL     1      40.869 -13.458   2.777  1.00  0.00     0.226 C 
HETATM    4  O   UNL     1      39.750 -13.942   2.921  1.00  0.00    -0.273 OA
HETATM    5  H   UNL     1      42.865 -13.808   2.841  1.00  0.00     0.162 HD
BRANCH   3   6
HETATM    6  C   UNL     1      41.157 -11.955   2.683  1.00  0.00     0.111 C 
HETATM    7  C   UNL     1      40.014 -11.234   1.974  1.00  0.00     0.025 C 
BRANCH   6   8
HETATM    8  C   UNL     1      41.459 -11.388   4.040  1.00  0.00     0.004 A 
HETATM    9  C   UNL     1      40.593 -10.900   5.007  1.00  0.00     0.033 A 
HETATM   10  C   UNL     1      39.116 -10.767   5.068  1.00  0.00     0.070 C 
HETATM   11  N   UNL     1      41.379 -10.497   6.051  1.00  0.00    -0.282 N 
HETATM   12  H   UNL     1      41.091 -10.075   6.929  1.00  0.00     0.189 HD
HETATM   13  N   UNL     1      42.683 -10.709   5.851  1.00  0.00    -0.179 NA
HETATM   14  C   UNL     1      42.754 -11.220   4.621  1.00  0.00     0.060 A 
HETATM   15  C   UNL     1      44.082 -11.545   4.040  1.00  0.00     0.073 C 
ENDBRANCH   6   8
ENDBRANCH   3   6
ENDBRANCH   1   2
BRANCH   1  16
HETATM   16  C   UNL     1      43.031 -16.305   3.857  1.00  0.00     0.238 C 
BRANCH  16  17
HETATM   17  N   UNL     1      42.804 -16.096   5.361  1.00  0.00    -0.061 N 
HETATM   18  H   UNL     1      43.073 -17.001   5.769  1.00  0.00     0.280 HD
HETATM   19  C   UNL     1      41.407 -15.823   5.848  1.00  0.00     0.236 C 
HETATM   20  C   UNL     1      41.431 -14.371   6.269  1.00  0.00     0.029 C 
HETATM   21  C   UNL     1      42.814 -14.201   6.862  1.00  0.00     0.029 C 
HETATM   22  C   UNL     1      43.719 -15.080   6.016  1.00  0.00     0.236 C 
ENDBRANCH  16  17
BRANCH  16  23
HETATM   23  C   UNL     1      43.274 -17.788   3.573  1.00  0.00    -0.024 A 
HETATM   24  C   UNL     1      43.782 -18.672   4.541  1.00  0.00     0.033 A 
HETATM   25  C   UNL     1      44.022 -20.012   4.224  1.00  0.00     0.034 A 
HETATM   26 CL   UNL     1      44.655 -21.063   5.429  1.00  0.00    -0.084 Cl
HETATM   27  C   UNL     1      43.759 -20.498   2.949  1.00  0.00     0.024 A 
HETATM   28  C   UNL     1      43.257 -19.635   1.977  1.00  0.00     0.002 A 
HETATM   29  C   UNL     1      43.020 -18.292   2.284  1.00  0.00     0.009 A 
ENDBRANCH  16  23
ENDBRANCH   1  16
TORSDOF 6
ENDMDL
MODEL 8
REMARK VINA RESULT:      -7.4      2.200      3.683
REMARK  6 active torsions:
REMARK  status: ('A' for Active; 'I' for Inactive)
REMARK    1  A    between atoms: C_8  and  C_9 
REMARK    2  A    between atoms: C_9  and  C_10 
REMARK       I    between atoms: C_10  and  N_11 
REMARK    3  A    between atoms: N_11  and  C_12 
REMARK    4  A    between atoms: C_12  and  C_13 
REMARK    5  A    between atoms: C_13  and  N_14 
REMARK    6  A    between atoms: C_13  and  C_20 
ROOT
HETATM    1  C   UNL     1      39.904 -13.026   2.654  1.00  0.00     0.160 C 
ENDROOT
BRANCH   1   2
HETATM    2  N   UNL     1      39.181 -13.080   1.387  1.00  0.00    -0.358 N 
HETATM    3  C   UNL     1      39.081 -11.961   0.575  1.00  0.00     0.226 C 
HETATM    4  O   UNL     1      39.359 -10.842   0.999  1.00  0.00    -0.273 OA
HETATM    5  H   UNL     1      39.258 -13.957   0.877  1.00  0.00     0.162 HD
BRANCH   3   6
HETATM    6  C   UNL     1      38.540 -12.243  -0.832  1.00  0.00     0.111 C 
HETATM    7  C   UNL     1      37.682 -11.078  -1.319  1.00  0.00     0.025 C 
BRANCH   6   8
HETATM    8  C   UNL     1      39.660 -12.583  -1.771  1.00  0.00     0.004 A 
HETATM    9  C   UNL     1      40.780 -11.842  -2.118  1.00  0.00     0.033 A 
HETATM   10  C   UNL     1      41.273 -10.503  -1.707  1.00  0.00     0.070 C 
HETATM   11  N   UNL     1      41.476 -12.603  -3.015  1.00  0.00    -0.282 N 
HETATM   12  H   UNL     1      42.342 -12.375  -3.495  1.00  0.00     0.189 HD
HETATM   13  N   UNL     1      40.913 -13.790  -3.259  1.00  0.00    -0.179 NA
HETATM   14  C   UNL     1      39.792 -13.783  -2.536  1.00  0.00     0.060 A 
HETATM   15  C   UNL     1      38.876 -14.951  -2.598  1.00  0.00     0.073 C 
ENDBRANCH   6   8
ENDBRANCH   3   6
ENDBRANCH   1   2
BRANCH   1  16
HETATM   16  C   UNL     1      40.610 -14.327   3.171  1.00  0.00     0.238 C 
BRANCH  16  17
HETATM   17  N   UNL     1      41.273 -15.183   2.082  1.00  0.00    -0.061 N 
HETATM   18  H   UNL     1      40.696 -14.998   1.252  1.00  0.00     0.280 HD
HETATM   19  C   UNL     1      41.287 -16.679   2.250  1.00  0.00     0.236 C 
HETATM   20  C   UNL     1      42.734 -17.011   2.537  1.00  0.00     0.029 C 
HETATM   21  C   UNL     1      43.498 -16.033   1.670  1.00  0.00     0.029 C 
HETATM   22  C   UNL     1      42.674 -14.757   1.693  1.00  0.00     0.236 C 
ENDBRANCH  16  17
BRANCH  16  23
HETATM   23  C   UNL     1      41.617 -14.040   4.286  1.00  0.00    -0.024 A 
HETATM   24  C   UNL     1      41.772 -14.880   5.402  1.00  0.00     0.033 A 
HETATM   25  C   UNL     1      42.680 -14.557   6.414  1.00  0.00     0.034 A 
HETATM   26 CL   UNL     1      42.837 -15.601   7.772  1.00  0.00    -0.084 Cl
HETATM   27  C   UNL     1      43.450 -13.402   6.335  1.00  0.00     0.024 A 
HETATM   28  C   UNL     1      43.307 -12.558   5.236  1.00  0.00     0.002 A 
HETATM   29  C   UNL     1      42.397 -12.870   4.223  1.00  0.00     0.009 A 
ENDBRANCH  16  23
ENDBRANCH   1  16
TORSDOF 6
ENDMDL
MODEL 9
REMARK VINA RESULT:      -7.3      4.759      7.997
REMARK  6 active torsions:
REMARK  status: ('A' for Active; 'I' for Inactive)
REMARK    1  A    between atoms: C_8  and  C_9 
REMARK    2  A    between atoms: C_9  and  C_10 
REMARK       I    between atoms: C_10  and  N_11 
REMARK    3  A    between atoms: N_11  and  C_12 
REMARK    4  A    between atoms: C_12  and  C_13 
REMARK    5  A    between atoms: C_13  and  N_14 
REMARK    6  A    between atoms: C_13  and  C_20 
ROOT
HETATM    1  C   UNL     1      43.851 -12.650   6.200  1.00  0.00     0.160 C 
ENDROOT
BRANCH   1   2
HETATM    2  N   UNL     1      44.153 -12.040   7.492  1.00  0.00    -0.358 N 
HETATM    3  C   UNL     1      45.075 -11.010   7.596  1.00  0.00     0.226 C 
HETATM    4  O   UNL     1      45.848 -10.754   6.677  1.00  0.00    -0.273 OA
HETATM    5  H   UNL     1      43.367 -11.961   8.133  1.00  0.00     0.162 HD
BRANCH   3   6
HETATM    6  C   UNL     1      45.078 -10.296   8.953  1.00  0.00     0.111 C 
HETATM    7  C   UNL     1      45.978  -9.063   8.908  1.00  0.00     0.025 C 
BRANCH   6   8
HETATM    8  C   UNL     1      43.677  -9.987   9.393  1.00  0.00     0.004 A 
HETATM    9  C   UNL     1      42.660  -9.336   8.711  1.00  0.00     0.033 A 
HETATM   10  C   UNL     1      42.574  -8.735   7.356  1.00  0.00     0.070 C 
HETATM   11  N   UNL     1      41.589  -9.309   9.561  1.00  0.00    -0.282 N 
HETATM   12  H   UNL     1      40.672  -8.899   9.406  1.00  0.00     0.189 HD
HETATM   13  N   UNL     1      41.820  -9.914  10.730  1.00  0.00    -0.179 NA
HETATM   14  C   UNL     1      43.094 -10.305  10.658  1.00  0.00     0.060 A 
HETATM   15  C   UNL     1      43.715 -10.988  11.822  1.00  0.00     0.073 C 
ENDBRANCH   6   8
ENDBRANCH   3   6
ENDBRANCH   1   2
BRANCH   1  16
HETATM   16  C   UNL     1      42.695 -13.705   6.121  1.00  0.00     0.238 C 
BRANCH  16  17
HETATM   17  N   UNL     1      41.458 -13.256   5.331  1.00  0.00    -0.061 N 
HETATM   18  H   UNL     1      41.470 -13.867   4.504  1.00  0.00     0.280 HD
HETATM   19  C   UNL     1      41.412 -11.848   4.802  1.00  0.00     0.236 C 
HETATM   20  C   UNL     1      40.366 -11.161   5.651  1.00  0.00     0.029 C 
HETATM   21  C   UNL     1      39.333 -12.244   5.879  1.00  0.00     0.029 C 
HETATM   22  C   UNL     1      40.128 -13.531   6.005  1.00  0.00     0.236 C 
ENDBRANCH  16  17
BRANCH  16  23
HETATM   23  C   UNL     1      43.178 -15.059   5.598  1.00  0.00    -0.024 A 
HETATM   24  C   UNL     1      42.887 -15.518   4.302  1.00  0.00     0.033 A 
HETATM   25  C   UNL     1      43.320 -16.779   3.880  1.00  0.00     0.034 A 
HETATM   26 CL   UNL     1      42.936 -17.314   2.291  1.00  0.00    -0.084 Cl
HETATM   27  C   UNL     1      44.048 -17.601   4.732  1.00  0.00     0.024 A 
HETATM   28  C   UNL     1      44.343 -17.162   6.021  1.00  0.00     0.002 A 
HETATM   29  C   UNL     1      43.910 -15.905   6.452  1.00  0.00     0.009 A 
ENDBRANCH  16  23
ENDBRANCH   1  16
TORSDOF 6
ENDMDL
MODEL 10
REMARK VINA RESULT:      -7.3      2.603      4.191
REMARK  6 active torsions:
REMARK  status: ('A' for Active; 'I' for Inactive)
REMARK    1  A    between atoms: C_8  and  C_9 
REMARK    2  A    between atoms: C_9  and  C_10 
REMARK       I    between atoms: C_10  and  N_11 
REMARK    3  A    between atoms: N_11  and  C_12 
REMARK    4  A    between atoms: C_12  and  C_13 
REMARK    5  A    between atoms: C_13  and  N_14 
REMARK    6  A    between atoms: C_13  and  C_20 
ROOT
HETATM    1  C   UNL     1      40.686 -15.702   3.030  1.00  0.00     0.160 C 
ENDROOT
BRANCH   1   2
HETATM    2  N   UNL     1      40.076 -14.605   2.284  1.00  0.00    -0.358 N 
HETATM    3  C   UNL     1      40.382 -14.395   0.948  1.00  0.00     0.226 C 
HETATM    4  O   UNL     1      41.350 -14.941   0.425  1.00  0.00    -0.273 OA
HETATM    5  H   UNL     1      39.111 -14.394   2.527  1.00  0.00     0.162 HD
BRANCH   3   6
HETATM    6  C   UNL     1      39.466 -13.392   0.236  1.00  0.00     0.111 C 
HETATM    7  C   UNL     1      39.222 -12.170   1.118  1.00  0.00     0.025 C 
BRANCH   6   8
HETATM    8  C   UNL     1      40.013 -13.043  -1.117  1.00  0.00     0.004 A 
HETATM    9  C   UNL     1      40.841 -11.996  -1.493  1.00  0.00     0.033 A 
HETATM   10  C   UNL     1      41.474 -10.886  -0.737  1.00  0.00     0.070 C 
HETATM   11  N   UNL     1      41.033 -12.128  -2.840  1.00  0.00    -0.282 N 
HETATM   12  H   UNL     1      41.573 -11.533  -3.461  1.00  0.00     0.189 HD
HETATM   13  N   UNL     1      40.417 -13.192  -3.365  1.00  0.00    -0.179 NA
HETATM   14  C   UNL     1      39.766 -13.742  -2.338  1.00  0.00     0.060 A 
HETATM   15  C   UNL     1      38.925 -14.945  -2.567  1.00  0.00     0.073 C 
ENDBRANCH   6   8
ENDBRANCH   3   6
ENDBRANCH   1   2
BRANCH   1  16
HETATM   16  C   UNL     1      41.935 -15.395   3.926  1.00  0.00     0.238 C 
BRANCH  16  17
HETATM   17  N   UNL     1      43.217 -16.141   3.531  1.00  0.00    -0.061 N 
HETATM   18  H   UNL     1      43.908 -15.386   3.428  1.00  0.00     0.280 HD
HETATM   19  C   UNL     1      43.239 -16.899   2.231  1.00  0.00     0.236 C 
HETATM   20  C   UNL     1      43.246 -18.354   2.643  1.00  0.00     0.029 C 
HETATM   21  C   UNL     1      44.105 -18.360   3.890  1.00  0.00     0.029 C 
HETATM   22  C   UNL     1      43.786 -17.055   4.597  1.00  0.00     0.236 C 
ENDBRANCH  16  17
BRANCH  16  23
HETATM   23  C   UNL     1      42.221 -13.896   4.031  1.00  0.00    -0.024 A 
HETATM   24  C   UNL     1      41.601 -13.071   4.985  1.00  0.00     0.033 A 
HETATM   25  C   UNL     1      41.868 -11.699   5.019  1.00  0.00     0.034 A 
HETATM   26 CL   UNL     1      41.082 -10.717   6.192  1.00  0.00    -0.084 Cl
HETATM   27  C   UNL     1      42.752 -11.125   4.114  1.00  0.00     0.024 A 
HETATM   28  C   UNL     1      43.374 -11.929   3.161  1.00  0.00     0.002 A 
HETATM   29  C   UNL     1      43.109 -13.300   3.116  1.00  0.00     0.009 A 
ENDBRANCH  16  23
ENDBRANCH   1  16
TORSDOF 6
ENDMDL
