MODEL 1
REMARK VINA RESULT:      -9.0      0.000      0.000
REMARK  4 active torsions:
REMARK  status: ('A' for Active; 'I' for Inactive)
REMARK    1  A    between atoms: C_6  and  C_7 
REMARK       I    between atoms: C_7  and  N_8 
REMARK    2  A    between atoms: N_8  and  N_9 
REMARK    3  A    between atoms: N_9  and  C_10 
REMARK    4  A    between atoms: C_21  and  C_22 
ROOT
HETATM    1  C   UNL     1      43.990  -9.965   9.354  1.00  0.00     0.124 A 
HETATM    2  N   UNL     1      43.950  -9.679  10.668  1.00  0.00    -0.223 NA
HETATM    3  C   UNL     1      43.463  -8.477  11.033  1.00  0.00     0.129 A 
HETATM    4 CL   UNL     1      43.454  -8.194  12.724  1.00  0.00    -0.062 Cl
HETATM    5  C   UNL     1      42.993  -7.522  10.157  1.00  0.00     0.067 A 
HETATM    6  C   UNL     1      43.024  -7.836   8.805  1.00  0.00     0.051 A 
HETATM    7  C   UNL     1      42.543  -6.898   7.837  1.00  0.00     0.099 C 
HETATM    8  N   UNL     1      42.152  -6.134   7.057  1.00  0.00    -0.191 NA
HETATM    9  C   UNL     1      43.522  -9.073   8.394  1.00  0.00     0.068 A 
ENDROOT
BRANCH   1  10
HETATM   10  N   UNL     1      44.465 -11.243   8.996  1.00  0.00    -0.186 NA
HETATM   11  H   UNL     1      45.381 -11.084   8.551  1.00  0.00     0.154 HD
BRANCH  10  12
HETATM   12  N   UNL     1      43.593 -11.937   8.132  1.00  0.00    -0.281 N 
HETATM   13  C   UNL     1      44.124 -12.470   6.974  1.00  0.00     0.271 C 
HETATM   14  O   UNL     1      45.259 -12.206   6.580  1.00  0.00    -0.266 OA
HETATM   15  H   UNL     1      42.731 -12.313   8.534  1.00  0.00     0.184 HD
BRANCH  13  16
HETATM   16  C   UNL     1      43.224 -13.407   6.242  1.00  0.00     0.102 A 
HETATM   17  C   UNL     1      41.902 -13.006   5.690  1.00  0.00     0.261 A 
HETATM   18  N   UNL     1      41.190 -13.980   5.037  1.00  0.00    -0.326 N 
HETATM   19  O   UNL     1      41.464 -11.865   5.814  1.00  0.00    -0.267 OA
HETATM   20  C   UNL     1      41.602 -15.289   4.870  1.00  0.00     0.019 A 
HETATM   21  H   UNL     1      40.293 -13.688   4.665  1.00  0.00     0.169 HD
HETATM   22  C   UNL     1      40.632 -16.163   4.122  1.00  0.00     0.069 C 
HETATM   23  C   UNL     1      42.799 -15.672   5.376  1.00  0.00    -0.003 A 
HETATM   24  C   UNL     1      43.615 -14.684   6.075  1.00  0.00     0.037 A 
BRANCH  23  25
HETATM   25  C   UNL     1      43.277 -17.059   5.221  1.00  0.00    -0.024 A 
HETATM   26  C   UNL     1      43.135 -17.974   6.271  1.00  0.00     0.012 A 
HETATM   27  C   UNL     1      43.585 -19.288   6.123  1.00  0.00     0.001 A 
HETATM   28  C   UNL     1      44.173 -19.693   4.925  1.00  0.00     0.000 A 
HETATM   29  C   UNL     1      44.310 -18.789   3.873  1.00  0.00     0.001 A 
HETATM   30  C   UNL     1      43.860 -17.475   4.017  1.00  0.00     0.012 A 
ENDBRANCH  23  25
ENDBRANCH  13  16
ENDBRANCH  10  12
ENDBRANCH   1  10
TORSDOF 4
ENDMDL
MODEL 2
REMARK VINA RESULT:      -8.9      1.357      2.432
REMARK  4 active torsions:
REMARK  status: ('A' for Active; 'I' for Inactive)
REMARK    1  A    between atoms: C_6  and  C_7 
REMARK       I    between atoms: C_7  and  N_8 
REMARK    2  A    between atoms: N_8  and  N_9 
REMARK    3  A    between atoms: N_9  and  C_10 
REMARK    4  A    between atoms: C_21  and  C_22 
ROOT
HETATM    1  C   UNL     1      43.826 -10.007   9.690  1.00  0.00     0.124 A 
HETATM    2  N   UNL     1      43.620  -8.888   8.972  1.00  0.00    -0.223 NA
HETATM    3  C   UNL     1      43.061  -7.835   9.599  1.00  0.00     0.129 A 
HETATM    4 CL   UNL     1      42.830  -6.455   8.608  1.00  0.00    -0.062 Cl
HETATM    5  C   UNL     1      42.694  -7.817  10.927  1.00  0.00     0.067 A 
HETATM    6  C   UNL     1      42.927  -8.973  11.663  1.00  0.00     0.051 A 
HETATM    7  C   UNL     1      42.582  -9.025  13.050  1.00  0.00     0.099 C 
HETATM    8  N   UNL     1      42.300  -9.062  14.175  1.00  0.00    -0.191 NA
HETATM    9  C   UNL     1      43.505 -10.081  11.042  1.00  0.00     0.068 A 
ENDROOT
BRANCH   1  10
HETATM   10  N   UNL     1      44.449 -11.083   9.026  1.00  0.00    -0.186 NA
HETATM   11  H   UNL     1      45.231 -10.668   8.497  1.00  0.00     0.154 HD
BRANCH  10  12
HETATM   12  N   UNL     1      43.578 -11.791   8.174  1.00  0.00    -0.281 N 
HETATM   13  C   UNL     1      44.117 -12.389   7.052  1.00  0.00     0.271 C 
HETATM   14  O   UNL     1      45.268 -12.173   6.673  1.00  0.00    -0.266 OA
HETATM   15  H   UNL     1      42.696 -12.125   8.572  1.00  0.00     0.184 HD
BRANCH  13  16
HETATM   16  C   UNL     1      43.207 -13.332   6.342  1.00  0.00     0.102 A 
HETATM   17  C   UNL     1      41.873 -12.938   5.815  1.00  0.00     0.261 A 
HETATM   18  N   UNL     1      41.152 -13.917   5.179  1.00  0.00    -0.326 N 
HETATM   19  O   UNL     1      41.432 -11.798   5.944  1.00  0.00    -0.267 OA
HETATM   20  C   UNL     1      41.567 -15.224   5.008  1.00  0.00     0.019 A 
HETATM   21  H   UNL     1      40.246 -13.630   4.825  1.00  0.00     0.169 HD
HETATM   22  C   UNL     1      40.585 -16.105   4.282  1.00  0.00     0.069 C 
HETATM   23  C   UNL     1      42.774 -15.601   5.491  1.00  0.00    -0.003 A 
HETATM   24  C   UNL     1      43.600 -14.607   6.171  1.00  0.00     0.037 A 
BRANCH  23  25
HETATM   25  C   UNL     1      43.255 -16.986   5.331  1.00  0.00    -0.024 A 
HETATM   26  C   UNL     1      43.868 -17.386   4.136  1.00  0.00     0.012 A 
HETATM   27  C   UNL     1      44.326 -18.696   3.986  1.00  0.00     0.001 A 
HETATM   28  C   UNL     1      44.179 -19.610   5.029  1.00  0.00     0.000 A 
HETATM   29  C   UNL     1      43.578 -19.217   6.224  1.00  0.00     0.001 A 
HETATM   30  C   UNL     1      43.119 -17.907   6.377  1.00  0.00     0.012 A 
ENDBRANCH  23  25
ENDBRANCH  13  16
ENDBRANCH  10  12
ENDBRANCH   1  10
TORSDOF 4
ENDMDL
MODEL 3
REMARK VINA RESULT:      -8.8      2.192      2.764
REMARK  4 active torsions:
REMARK  status: ('A' for Active; 'I' for Inactive)
REMARK    1  A    between atoms: C_6  and  C_7 
REMARK       I    between atoms: C_7  and  N_8 
REMARK    2  A    between atoms: N_8  and  N_9 
REMARK    3  A    between atoms: N_9  and  C_10 
REMARK    4  A    between atoms: C_21  and  C_22 
ROOT
HETATM    1  C   UNL     1      44.128 -11.077   8.314  1.00  0.00     0.124 A 
HETATM    2  N   UNL     1      45.452 -10.964   8.099  1.00  0.00    -0.223 NA
HETATM    3  C   UNL     1      46.000  -9.737   8.194  1.00  0.00     0.129 A 
HETATM    4 CL   UNL     1      47.688  -9.685   7.899  1.00  0.00    -0.062 Cl
HETATM    5  C   UNL     1      45.304  -8.589   8.506  1.00  0.00     0.067 A 
HETATM    6  C   UNL     1      43.942  -8.721   8.742  1.00  0.00     0.051 A 
HETATM    7  C   UNL     1      43.156  -7.574   9.082  1.00  0.00     0.099 C 
HETATM    8  N   UNL     1      42.524  -6.641   9.357  1.00  0.00    -0.191 NA
HETATM    9  C   UNL     1      43.344  -9.978   8.652  1.00  0.00     0.068 A 
ENDROOT
BRANCH   1  10
HETATM   10  N   UNL     1      43.582 -12.374   8.250  1.00  0.00    -0.186 NA
HETATM   11  H   UNL     1      44.060 -12.913   8.988  1.00  0.00     0.154 HD
BRANCH  10  12
HETATM   12  N   UNL     1      43.743 -12.984   6.989  1.00  0.00    -0.281 N 
HETATM   13  C   UNL     1      43.226 -14.253   6.816  1.00  0.00     0.271 C 
HETATM   14  O   UNL     1      42.808 -14.933   7.752  1.00  0.00    -0.266 OA
HETATM   15  H   UNL     1      43.907 -12.372   6.186  1.00  0.00     0.184 HD
BRANCH  13  16
HETATM   16  C   UNL     1      43.193 -14.732   5.405  1.00  0.00     0.102 A 
HETATM   17  C   UNL     1      42.986 -13.830   4.240  1.00  0.00     0.261 A 
HETATM   18  N   UNL     1      42.986 -14.419   3.001  1.00  0.00    -0.326 N 
HETATM   19  O   UNL     1      42.818 -12.620   4.376  1.00  0.00    -0.267 OA
HETATM   20  C   UNL     1      43.149 -15.771   2.765  1.00  0.00     0.019 A 
HETATM   21  H   UNL     1      42.845 -13.789   2.220  1.00  0.00     0.169 HD
HETATM   22  C   UNL     1      43.102 -16.165   1.313  1.00  0.00     0.069 C 
HETATM   23  C   UNL     1      43.330 -16.606   3.815  1.00  0.00    -0.003 A 
HETATM   24  C   UNL     1      43.351 -16.046   5.163  1.00  0.00     0.037 A 
BRANCH  23  25
HETATM   25  C   UNL     1      43.508 -18.056   3.607  1.00  0.00    -0.024 A 
HETATM   26  C   UNL     1      43.164 -18.640   2.381  1.00  0.00     0.012 A 
HETATM   27  C   UNL     1      43.335 -20.011   2.184  1.00  0.00     0.001 A 
HETATM   28  C   UNL     1      43.856 -20.803   3.207  1.00  0.00     0.000 A 
HETATM   29  C   UNL     1      44.208 -20.227   4.427  1.00  0.00     0.001 A 
HETATM   30  C   UNL     1      44.038 -18.856   4.627  1.00  0.00     0.012 A 
ENDBRANCH  23  25
ENDBRANCH  13  16
ENDBRANCH  10  12
ENDBRANCH   1  10
TORSDOF 4
ENDMDL
MODEL 4
REMARK VINA RESULT:      -8.6      5.599      7.690
REMARK  4 active torsions:
REMARK  status: ('A' for Active; 'I' for Inactive)
REMARK    1  A    between atoms: C_6  and  C_7 
REMARK       I    between atoms: C_7  and  N_8 
REMARK    2  A    between atoms: N_8  and  N_9 
REMARK    3  A    between atoms: N_9  and  C_10 
REMARK    4  A    between atoms: C_21  and  C_22 
ROOT
HETATM    1  C   UNL     1      41.703 -10.212  -0.190  1.00  0.00     0.124 A 
HETATM    2  N   UNL     1      41.808  -9.038  -0.838  1.00  0.00    -0.223 NA
HETATM    3  C   UNL     1      41.426  -8.997  -2.129  1.00  0.00     0.129 A 
HETATM    4 CL   UNL     1      41.600  -7.464  -2.876  1.00  0.00    -0.062 Cl
HETATM    5  C   UNL     1      40.924 -10.070  -2.833  1.00  0.00     0.067 A 
HETATM    6  C   UNL     1      40.805 -11.274  -2.149  1.00  0.00     0.051 A 
HETATM    7  C   UNL     1      40.282 -12.429  -2.811  1.00  0.00     0.099 C 
HETATM    8  N   UNL     1      39.857 -13.363  -3.354  1.00  0.00    -0.191 NA
HETATM    9  C   UNL     1      41.191 -11.349  -0.810  1.00  0.00     0.068 A 
ENDROOT
BRANCH   1  10
HETATM   10  N   UNL     1      42.069 -10.224   1.171  1.00  0.00    -0.186 NA
HETATM   11  H   UNL     1      43.068  -9.971   1.192  1.00  0.00     0.154 HD
BRANCH  10  12
HETATM   12  N   UNL     1      41.846 -11.467   1.796  1.00  0.00    -0.281 N 
HETATM   13  C   UNL     1      42.330 -11.640   3.078  1.00  0.00     0.271 C 
HETATM   14  O   UNL     1      43.096 -10.840   3.612  1.00  0.00    -0.266 OA
HETATM   15  H   UNL     1      41.072 -12.039   1.447  1.00  0.00     0.184 HD
BRANCH  13  16
HETATM   16  C   UNL     1      41.839 -12.863   3.776  1.00  0.00     0.102 A 
HETATM   17  C   UNL     1      40.743 -12.845   4.781  1.00  0.00     0.261 A 
HETATM   18  N   UNL     1      40.399 -14.052   5.335  1.00  0.00    -0.326 N 
HETATM   19  O   UNL     1      40.174 -11.804   5.106  1.00  0.00    -0.267 OA
HETATM   20  C   UNL     1      40.999 -15.261   5.038  1.00  0.00     0.019 A 
HETATM   21  H   UNL     1      39.648 -14.020   6.016  1.00  0.00     0.169 HD
HETATM   22  C   UNL     1      40.441 -16.440   5.790  1.00  0.00     0.069 C 
HETATM   23  C   UNL     1      42.005 -15.293   4.133  1.00  0.00    -0.003 A 
HETATM   24  C   UNL     1      42.416 -14.045   3.496  1.00  0.00     0.037 A 
BRANCH  23  25
HETATM   25  C   UNL     1      42.673 -16.562   3.787  1.00  0.00    -0.024 A 
HETATM   26  C   UNL     1      42.347 -17.229   2.599  1.00  0.00     0.012 A 
HETATM   27  C   UNL     1      42.981 -18.428   2.271  1.00  0.00     0.001 A 
HETATM   28  C   UNL     1      43.947 -18.963   3.124  1.00  0.00     0.000 A 
HETATM   29  C   UNL     1      44.281 -18.300   4.304  1.00  0.00     0.001 A 
HETATM   30  C   UNL     1      43.649 -17.100   4.635  1.00  0.00     0.012 A 
ENDBRANCH  23  25
ENDBRANCH  13  16
ENDBRANCH  10  12
ENDBRANCH   1  10
TORSDOF 4
ENDMDL
MODEL 5
REMARK VINA RESULT:      -8.6      6.375     10.103
REMARK  4 active torsions:
REMARK  status: ('A' for Active; 'I' for Inactive)
REMARK    1  A    between atoms: C_6  and  C_7 
REMARK       I    between atoms: C_7  and  N_8 
REMARK    2  A    between atoms: N_8  and  N_9 
REMARK    3  A    between atoms: N_9  and  C_10 
REMARK    4  A    between atoms: C_21  and  C_22 
ROOT
HETATM    1  C   UNL     1      43.408 -16.295   3.413  1.00  0.00     0.124 A 
HETATM    2  N   UNL     1      43.506 -16.320   4.754  1.00  0.00    -0.223 NA
HETATM    3  C   UNL     1      43.675 -17.518   5.348  1.00  0.00     0.129 A 
HETATM    4 CL   UNL     1      43.782 -17.457   7.059  1.00  0.00    -0.062 Cl
HETATM    5  C   UNL     1      43.766 -18.719   4.680  1.00  0.00     0.067 A 
HETATM    6  C   UNL     1      43.681 -18.679   3.294  1.00  0.00     0.051 A 
HETATM    7  C   UNL     1      43.778 -19.886   2.532  1.00  0.00     0.099 C 
HETATM    8  N   UNL     1      43.857 -20.868   1.918  1.00  0.00    -0.191 NA
HETATM    9  C   UNL     1      43.506 -17.454   2.648  1.00  0.00     0.068 A 
ENDROOT
BRANCH   1  10
HETATM   10  N   UNL     1      43.273 -15.029   2.808  1.00  0.00    -0.186 NA
HETATM   11  H   UNL     1      43.121 -14.366   3.583  1.00  0.00     0.154 HD
BRANCH  10  12
HETATM   12  N   UNL     1      42.220 -14.969   1.873  1.00  0.00    -0.281 N 
HETATM   13  C   UNL     1      41.633 -13.741   1.641  1.00  0.00     0.271 C 
HETATM   14  O   UNL     1      41.859 -12.754   2.341  1.00  0.00    -0.266 OA
HETATM   15  H   UNL     1      42.164 -15.715   1.176  1.00  0.00     0.184 HD
BRANCH  13  16
HETATM   16  C   UNL     1      40.717 -13.692   0.466  1.00  0.00     0.102 A 
HETATM   17  C   UNL     1      39.846 -14.828   0.062  1.00  0.00     0.261 A 
HETATM   18  N   UNL     1      39.053 -14.630  -1.040  1.00  0.00    -0.326 N 
HETATM   19  O   UNL     1      39.836 -15.892   0.677  1.00  0.00    -0.267 OA
HETATM   20  C   UNL     1      39.019 -13.474  -1.796  1.00  0.00     0.019 A 
HETATM   21  H   UNL     1      38.465 -15.414  -1.299  1.00  0.00     0.169 HD
HETATM   22  C   UNL     1      38.068 -13.514  -2.962  1.00  0.00     0.069 C 
HETATM   23  C   UNL     1      39.813 -12.435  -1.447  1.00  0.00    -0.003 A 
HETATM   24  C   UNL     1      40.676 -12.572  -0.277  1.00  0.00     0.037 A 
BRANCH  23  25
HETATM   25  C   UNL     1      39.807 -11.182  -2.227  1.00  0.00    -0.024 A 
HETATM   26  C   UNL     1      40.753 -10.978  -3.239  1.00  0.00     0.012 A 
HETATM   27  C   UNL     1      40.746  -9.794  -3.979  1.00  0.00     0.001 A 
HETATM   28  C   UNL     1      39.791  -8.812  -3.714  1.00  0.00     0.000 A 
HETATM   29  C   UNL     1      38.841  -9.013  -2.713  1.00  0.00     0.001 A 
HETATM   30  C   UNL     1      38.846 -10.196  -1.972  1.00  0.00     0.012 A 
ENDBRANCH  23  25
ENDBRANCH  13  16
ENDBRANCH  10  12
ENDBRANCH   1  10
TORSDOF 4
ENDMDL
MODEL 6
REMARK VINA RESULT:      -8.4      6.401      8.516
REMARK  4 active torsions:
REMARK  status: ('A' for Active; 'I' for Inactive)
REMARK    1  A    between atoms: C_6  and  C_7 
REMARK       I    between atoms: C_7  and  N_8 
REMARK    2  A    between atoms: N_8  and  N_9 
REMARK    3  A    between atoms: N_9  and  C_10 
REMARK    4  A    between atoms: C_21  and  C_22 
ROOT
HETATM    1  C   UNL     1      40.938 -11.421  -2.095  1.00  0.00     0.124 A 
HETATM    2  N   UNL     1      41.662 -10.459  -1.496  1.00  0.00    -0.223 NA
HETATM    3  C   UNL     1      41.306  -9.178  -1.714  1.00  0.00     0.129 A 
HETATM    4 CL   UNL     1      42.287  -8.019  -0.918  1.00  0.00    -0.062 Cl
HETATM    5  C   UNL     1      40.245  -8.782  -2.499  1.00  0.00     0.067 A 
HETATM    6  C   UNL     1      39.494  -9.785  -3.099  1.00  0.00     0.051 A 
HETATM    7  C   UNL     1      38.370  -9.451  -3.919  1.00  0.00     0.099 C 
HETATM    8  N   UNL     1      37.460  -9.173  -4.584  1.00  0.00    -0.191 NA
HETATM    9  C   UNL     1      39.837 -11.122  -2.892  1.00  0.00     0.068 A 
ENDROOT
BRANCH   1  10
HETATM   10  N   UNL     1      41.302 -12.755  -1.821  1.00  0.00    -0.186 NA
HETATM   11  H   UNL     1      40.661 -13.338  -2.379  1.00  0.00     0.154 HD
BRANCH  10  12
HETATM   12  N   UNL     1      41.224 -13.083  -0.452  1.00  0.00    -0.281 N 
HETATM   13  C   UNL     1      40.317 -14.051  -0.072  1.00  0.00     0.271 C 
HETATM   14  O   UNL     1      39.459 -14.494  -0.834  1.00  0.00    -0.266 OA
HETATM   15  H   UNL     1      42.037 -12.870   0.132  1.00  0.00     0.184 HD
BRANCH  13  16
HETATM   16  C   UNL     1      40.465 -14.537   1.330  1.00  0.00     0.102 A 
HETATM   17  C   UNL     1      39.700 -13.974   2.475  1.00  0.00     0.261 A 
HETATM   18  N   UNL     1      39.942 -14.530   3.706  1.00  0.00    -0.326 N 
HETATM   19  O   UNL     1      38.896 -13.056   2.332  1.00  0.00    -0.267 OA
HETATM   20  C   UNL     1      40.841 -15.550   3.954  1.00  0.00     0.019 A 
HETATM   21  H   UNL     1      39.410 -14.135   4.474  1.00  0.00     0.169 HD
HETATM   22  C   UNL     1      40.926 -15.976   5.395  1.00  0.00     0.069 C 
HETATM   23  C   UNL     1      41.552 -16.067   2.924  1.00  0.00    -0.003 A 
HETATM   24  C   UNL     1      41.338 -15.530   1.583  1.00  0.00     0.037 A 
BRANCH  23  25
HETATM   25  C   UNL     1      42.522 -17.156   3.145  1.00  0.00    -0.024 A 
HETATM   26  C   UNL     1      43.425 -17.090   4.213  1.00  0.00     0.012 A 
HETATM   27  C   UNL     1      44.341 -18.122   4.424  1.00  0.00     0.001 A 
HETATM   28  C   UNL     1      44.354 -19.227   3.572  1.00  0.00     0.000 A 
HETATM   29  C   UNL     1      43.453 -19.303   2.512  1.00  0.00     0.001 A 
HETATM   30  C   UNL     1      42.535 -18.272   2.299  1.00  0.00     0.012 A 
ENDBRANCH  23  25
ENDBRANCH  13  16
ENDBRANCH  10  12
ENDBRANCH   1  10
TORSDOF 4
ENDMDL
MODEL 7
REMARK VINA RESULT:      -8.2      5.006      8.043
REMARK  4 active torsions:
REMARK  status: ('A' for Active; 'I' for Inactive)
REMARK    1  A    between atoms: C_6  and  C_7 
REMARK       I    between atoms: C_7  and  N_8 
REMARK    2  A    between atoms: N_8  and  N_9 
REMARK    3  A    between atoms: N_9  and  C_10 
REMARK    4  A    between atoms: C_21  and  C_22 
ROOT
HETATM    1  C   UNL     1      39.702 -12.792   0.259  1.00  0.00     0.124 A 
HETATM    2  N   UNL     1      40.478 -11.732  -0.029  1.00  0.00    -0.223 NA
HETATM    3  C   UNL     1      40.717 -11.464  -1.328  1.00  0.00     0.129 A 
HETATM    4 CL   UNL     1      41.719 -10.100  -1.603  1.00  0.00    -0.062 Cl
HETATM    5  C   UNL     1      40.214 -12.192  -2.384  1.00  0.00     0.067 A 
HETATM    6  C   UNL     1      39.401 -13.275  -2.075  1.00  0.00     0.051 A 
HETATM    7  C   UNL     1      38.834 -14.071  -3.119  1.00  0.00     0.099 C 
HETATM    8  N   UNL     1      38.377 -14.714  -3.971  1.00  0.00    -0.191 NA
HETATM    9  C   UNL     1      39.134 -13.578  -0.739  1.00  0.00     0.068 A 
ENDROOT
BRANCH   1  10
HETATM   10  N   UNL     1      39.432 -13.031   1.621  1.00  0.00    -0.186 NA
HETATM   11  H   UNL     1      39.091 -12.134   1.998  1.00  0.00     0.154 HD
BRANCH  10  12
HETATM   12  N   UNL     1      40.555 -13.490   2.340  1.00  0.00    -0.281 N 
HETATM   13  C   UNL     1      40.470 -13.523   3.717  1.00  0.00     0.271 C 
HETATM   14  O   UNL     1      39.545 -13.000   4.338  1.00  0.00    -0.266 OA
HETATM   15  H   UNL     1      41.222 -14.085   1.842  1.00  0.00     0.184 HD
BRANCH  13  16
HETATM   16  C   UNL     1      41.574 -14.257   4.399  1.00  0.00     0.102 A 
HETATM   17  C   UNL     1      42.352 -13.692   5.534  1.00  0.00     0.261 A 
HETATM   18  N   UNL     1      43.334 -14.491   6.061  1.00  0.00    -0.326 N 
HETATM   19  O   UNL     1      42.132 -12.567   5.977  1.00  0.00    -0.267 OA
HETATM   20  C   UNL     1      43.656 -15.757   5.610  1.00  0.00     0.019 A 
HETATM   21  H   UNL     1      43.853 -14.090   6.835  1.00  0.00     0.169 HD
HETATM   22  C   UNL     1      44.782 -16.422   6.355  1.00  0.00     0.069 C 
HETATM   23  C   UNL     1      42.964 -16.282   4.572  1.00  0.00    -0.003 A 
HETATM   24  C   UNL     1      41.895 -15.490   3.968  1.00  0.00     0.037 A 
BRANCH  23  25
HETATM   25  C   UNL     1      43.274 -17.630   4.059  1.00  0.00    -0.024 A 
HETATM   26  C   UNL     1      43.799 -18.606   4.915  1.00  0.00     0.012 A 
HETATM   27  C   UNL     1      44.089 -19.882   4.431  1.00  0.00     0.001 A 
HETATM   28  C   UNL     1      43.853 -20.190   3.091  1.00  0.00     0.000 A 
HETATM   29  C   UNL     1      43.323 -19.226   2.235  1.00  0.00     0.001 A 
HETATM   30  C   UNL     1      43.030 -17.948   2.717  1.00  0.00     0.012 A 
ENDBRANCH  23  25
ENDBRANCH  13  16
ENDBRANCH  10  12
ENDBRANCH   1  10
TORSDOF 4
ENDMDL
MODEL 8
REMARK VINA RESULT:      -8.1      5.847      8.461
REMARK  4 active torsions:
REMARK  status: ('A' for Active; 'I' for Inactive)
REMARK    1  A    between atoms: C_6  and  C_7 
REMARK       I    between atoms: C_7  and  N_8 
REMARK    2  A    between atoms: N_8  and  N_9 
REMARK    3  A    between atoms: N_9  and  C_10 
REMARK    4  A    between atoms: C_21  and  C_22 
ROOT
HETATM    1  C   UNL     1      39.810 -12.329  -0.889  1.00  0.00     0.124 A 
HETATM    2  N   UNL     1      39.743 -13.606  -1.307  1.00  0.00    -0.223 NA
HETATM    3  C   UNL     1      38.706 -13.954  -2.094  1.00  0.00     0.129 A 
HETATM    4 CL   UNL     1      38.696 -15.600  -2.574  1.00  0.00    -0.062 Cl
HETATM    5  C   UNL     1      37.714 -13.093  -2.511  1.00  0.00     0.067 A 
HETATM    6  C   UNL     1      37.803 -11.773  -2.086  1.00  0.00     0.051 A 
HETATM    7  C   UNL     1      36.815 -10.820  -2.488  1.00  0.00     0.099 C 
HETATM    8  N   UNL     1      36.010 -10.051  -2.816  1.00  0.00    -0.191 NA
HETATM    9  C   UNL     1      38.865 -11.381  -1.271  1.00  0.00     0.068 A 
ENDROOT
BRANCH   1  10
HETATM   10  N   UNL     1      40.924 -11.975  -0.102  1.00  0.00    -0.186 NA
HETATM   11  H   UNL     1      41.710 -11.874  -0.761  1.00  0.00     0.154 HD
BRANCH  10  12
HETATM   12  N   UNL     1      41.220 -12.922   0.900  1.00  0.00    -0.281 N 
HETATM   13  C   UNL     1      41.938 -12.495   1.999  1.00  0.00     0.271 C 
HETATM   14  O   UNL     1      42.483 -11.393   2.049  1.00  0.00    -0.266 OA
HETATM   15  H   UNL     1      40.625 -13.753   0.955  1.00  0.00     0.184 HD
BRANCH  13  16
HETATM   16  C   UNL     1      41.990 -13.462   3.133  1.00  0.00     0.102 A 
HETATM   17  C   UNL     1      41.562 -13.122   4.516  1.00  0.00     0.261 A 
HETATM   18  N   UNL     1      41.664 -14.121   5.451  1.00  0.00    -0.326 N 
HETATM   19  O   UNL     1      41.143 -12.006   4.813  1.00  0.00    -0.267 OA
HETATM   20  C   UNL     1      42.140 -15.394   5.205  1.00  0.00     0.019 A 
HETATM   21  H   UNL     1      41.366 -13.872   6.388  1.00  0.00     0.169 HD
HETATM   22  C   UNL     1      42.158 -16.302   6.405  1.00  0.00     0.069 C 
HETATM   23  C   UNL     1      42.543 -15.716   3.953  1.00  0.00    -0.003 A 
HETATM   24  C   UNL     1      42.453 -14.704   2.904  1.00  0.00     0.037 A 
BRANCH  23  25
HETATM   25  C   UNL     1      43.058 -17.064   3.646  1.00  0.00    -0.024 A 
HETATM   26  C   UNL     1      42.588 -17.760   2.525  1.00  0.00     0.012 A 
HETATM   27  C   UNL     1      43.077 -19.034   2.233  1.00  0.00     0.001 A 
HETATM   28  C   UNL     1      44.043 -19.615   3.055  1.00  0.00     0.000 A 
HETATM   29  C   UNL     1      44.522 -18.925   4.168  1.00  0.00     0.001 A 
HETATM   30  C   UNL     1      44.034 -17.650   4.462  1.00  0.00     0.012 A 
ENDBRANCH  23  25
ENDBRANCH  13  16
ENDBRANCH  10  12
ENDBRANCH   1  10
TORSDOF 4
ENDMDL
MODEL 9
REMARK VINA RESULT:      -8.1      6.017      8.462
REMARK  4 active torsions:
REMARK  status: ('A' for Active; 'I' for Inactive)
REMARK    1  A    between atoms: C_6  and  C_7 
REMARK       I    between atoms: C_7  and  N_8 
REMARK    2  A    between atoms: N_8  and  N_9 
REMARK    3  A    between atoms: N_9  and  C_10 
REMARK    4  A    between atoms: C_21  and  C_22 
ROOT
HETATM    1  C   UNL     1      38.809 -12.031  -0.579  1.00  0.00     0.124 A 
HETATM    2  N   UNL     1      38.631 -13.269  -1.075  1.00  0.00    -0.223 NA
HETATM    3  C   UNL     1      39.038 -13.504  -2.337  1.00  0.00     0.129 A 
HETATM    4 CL   UNL     1      38.767 -15.104  -2.889  1.00  0.00    -0.062 Cl
HETATM    5  C   UNL     1      39.635 -12.569  -3.155  1.00  0.00     0.067 A 
HETATM    6  C   UNL     1      39.829 -11.299  -2.626  1.00  0.00     0.051 A 
HETATM    7  C   UNL     1      40.452 -10.279  -3.413  1.00  0.00     0.099 C 
HETATM    8  N   UNL     1      40.958  -9.456  -4.056  1.00  0.00    -0.191 NA
HETATM    9  C   UNL     1      39.418 -11.024  -1.321  1.00  0.00     0.068 A 
ENDROOT
BRANCH   1  10
HETATM   10  N   UNL     1      38.413 -11.818   0.757  1.00  0.00    -0.186 NA
HETATM   11  H   UNL     1      38.786 -10.891   1.012  1.00  0.00     0.154 HD
BRANCH  10  12
HETATM   12  N   UNL     1      38.878 -12.813   1.641  1.00  0.00    -0.281 N 
HETATM   13  C   UNL     1      40.121 -12.636   2.215  1.00  0.00     0.271 C 
HETATM   14  O   UNL     1      40.904 -11.761   1.847  1.00  0.00    -0.266 OA
HETATM   15  H   UNL     1      38.179 -13.416   2.082  1.00  0.00     0.184 HD
BRANCH  13  16
HETATM   16  C   UNL     1      40.440 -13.575   3.328  1.00  0.00     0.102 A 
HETATM   17  C   UNL     1      39.920 -13.408   4.711  1.00  0.00     0.261 A 
HETATM   18  N   UNL     1      40.297 -14.358   5.627  1.00  0.00    -0.326 N 
HETATM   19  O   UNL     1      39.193 -12.468   5.025  1.00  0.00    -0.267 OA
HETATM   20  C   UNL     1      41.124 -15.433   5.360  1.00  0.00     0.019 A 
HETATM   21  H   UNL     1      39.932 -14.229   6.564  1.00  0.00     0.169 HD
HETATM   22  C   UNL     1      41.393 -16.327   6.542  1.00  0.00     0.069 C 
HETATM   23  C   UNL     1      41.614 -15.593   4.109  1.00  0.00    -0.003 A 
HETATM   24  C   UNL     1      41.244 -14.625   3.080  1.00  0.00     0.037 A 
BRANCH  23  25
HETATM   25  C   UNL     1      42.500 -16.727   3.781  1.00  0.00    -0.024 A 
HETATM   26  C   UNL     1      43.551 -17.070   4.641  1.00  0.00     0.012 A 
HETATM   27  C   UNL     1      44.388 -18.144   4.333  1.00  0.00     0.001 A 
HETATM   28  C   UNL     1      44.174 -18.883   3.169  1.00  0.00     0.000 A 
HETATM   29  C   UNL     1      43.124 -18.552   2.313  1.00  0.00     0.001 A 
HETATM   30  C   UNL     1      42.286 -17.478   2.619  1.00  0.00     0.012 A 
ENDBRANCH  23  25
ENDBRANCH  13  16
ENDBRANCH  10  12
ENDBRANCH   1  10
TORSDOF 4
ENDMDL
MODEL 10
REMARK VINA RESULT:      -7.9     18.766     20.419
REMARK  4 active torsions:
REMARK  status: ('A' for Active; 'I' for Inactive)
REMARK    1  A    between atoms: C_6  and  C_7 
REMARK       I    between atoms: C_7  and  N_8 
REMARK    2  A    between atoms: N_8  and  N_9 
REMARK    3  A    between atoms: N_9  and  C_10 
REMARK    4  A    between atoms: C_21  and  C_22 
ROOT
HETATM    1  C   UNL     1      50.114 -30.124   2.113  1.00  0.00     0.124 A 
HETATM    2  N   UNL     1      48.798 -30.108   2.394  1.00  0.00    -0.223 NA
HETATM    3  C   UNL     1      48.423 -30.389   3.657  1.00  0.00     0.129 A 
HETATM    4 CL   UNL     1      46.729 -30.353   3.923  1.00  0.00    -0.062 Cl
HETATM    5  C   UNL     1      49.291 -30.682   4.686  1.00  0.00     0.067 A 
HETATM    6  C   UNL     1      50.648 -30.678   4.389  1.00  0.00     0.051 A 
HETATM    7  C   UNL     1      51.609 -30.963   5.410  1.00  0.00     0.099 C 
HETATM    8  N   UNL     1      52.385 -31.194   6.241  1.00  0.00    -0.191 NA
HETATM    9  C   UNL     1      51.069 -30.391   3.090  1.00  0.00     0.068 A 
ENDROOT
BRANCH   1  10
HETATM   10  N   UNL     1      50.488 -29.787   0.797  1.00  0.00    -0.186 NA
HETATM   11  H   UNL     1      51.197 -29.044   0.891  1.00  0.00     0.154 HD
BRANCH  10  12
HETATM   12  N   UNL     1      49.404 -29.357   0.004  1.00  0.00    -0.281 N 
HETATM   13  C   UNL     1      49.277 -29.896  -1.261  1.00  0.00     0.271 C 
HETATM   14  O   UNL     1      50.159 -30.577  -1.784  1.00  0.00    -0.266 OA
HETATM   15  H   UNL     1      48.594 -28.959   0.486  1.00  0.00     0.184 HD
BRANCH  13  16
HETATM   16  C   UNL     1      47.983 -29.608  -1.942  1.00  0.00     0.102 A 
HETATM   17  C   UNL     1      47.259 -28.315  -1.806  1.00  0.00     0.261 A 
HETATM   18  N   UNL     1      46.081 -28.197  -2.499  1.00  0.00    -0.326 N 
HETATM   19  O   UNL     1      47.688 -27.399  -1.108  1.00  0.00    -0.267 OA
HETATM   20  C   UNL     1      45.522 -29.184  -3.289  1.00  0.00     0.019 A 
HETATM   21  H   UNL     1      45.603 -27.309  -2.396  1.00  0.00     0.169 HD
HETATM   22  C   UNL     1      44.216 -28.806  -3.936  1.00  0.00     0.069 C 
HETATM   23  C   UNL     1      46.163 -30.369  -3.414  1.00  0.00    -0.003 A 
HETATM   24  C   UNL     1      47.429 -30.561  -2.713  1.00  0.00     0.037 A 
BRANCH  23  25
HETATM   25  C   UNL     1      45.602 -31.450  -4.248  1.00  0.00    -0.024 A 
HETATM   26  C   UNL     1      46.031 -31.614  -5.571  1.00  0.00     0.012 A 
HETATM   27  C   UNL     1      45.502 -32.638  -6.359  1.00  0.00     0.001 A 
HETATM   28  C   UNL     1      44.547 -33.505  -5.826  1.00  0.00     0.000 A 
HETATM   29  C   UNL     1      44.122 -33.352  -4.507  1.00  0.00     0.001 A 
HETATM   30  C   UNL     1      44.650 -32.329  -3.717  1.00  0.00     0.012 A 
ENDBRANCH  23  25
ENDBRANCH  13  16
ENDBRANCH  10  12
ENDBRANCH   1  10
TORSDOF 4
ENDMDL
