MODEL 1
REMARK VINA RESULT:      -8.6      0.000      0.000
REMARK  8 active torsions:
REMARK  status: ('A' for Active; 'I' for Inactive)
REMARK    1  A    between atoms: C_2  and  O_3 
REMARK    2  A    between atoms: O_3  and  C_4 
REMARK    3  A    between atoms: C_8  and  C_9 
REMARK       I    between atoms: C_9  and  N_10 
REMARK    4  A    between atoms: N_10  and  C_11 
REMARK    5  A    between atoms: N_22  and  C_23 
REMARK    6  A    between atoms: C_23  and  C_24 
REMARK    7  A    between atoms: C_24  and  C_25 
REMARK    8  A    between atoms: C_25  and  O_26 
ROOT
HETATM    1  C   UNL     1      39.738 -13.305   0.230  1.00  0.00     0.102 A 
HETATM    2  C   UNL     1      40.316 -13.439   1.488  1.00  0.00     0.113 A 
HETATM    3  C   UNL     1      39.975 -12.509   2.520  1.00  0.00     0.002 A 
HETATM    4  C   UNL     1      40.831 -12.648   3.766  1.00  0.00     0.138 C 
HETATM    5  C   UNL     1      42.223 -12.680   3.132  1.00  0.00     0.161 C 
HETATM    6  C   UNL     1      42.326 -14.149   2.743  1.00  0.00     0.155 C 
HETATM    7  C   UNL     1      43.556 -14.460   1.863  1.00  0.00     0.072 C 
HETATM    8  N   UNL     1      42.233 -14.996   4.023  1.00  0.00    -0.325 N 
HETATM    9  C   UNL     1      41.297 -14.664   5.035  1.00  0.00     0.172 C 
HETATM   10  S   UNL     1      40.593 -15.659   6.180  1.00  0.00    -0.041 SA
HETATM   11  N   UNL     1      40.844 -13.345   5.020  1.00  0.00    -0.357 N 
HETATM   12  O   UNL     1      41.219 -14.465   1.782  1.00  0.00    -0.316 OA
HETATM   13  C   UNL     1      39.007 -11.532   2.320  1.00  0.00     0.012 A 
HETATM   14  C   UNL     1      38.374 -11.470   1.078  1.00  0.00     0.003 A 
HETATM   15  C   UNL     1      38.739 -12.345   0.042  1.00  0.00     0.040 A 
HETATM   16  H   UNL     1      40.114 -13.155   5.687  1.00  0.00     0.162 HD
ENDROOT
BRANCH   5  17
HETATM   17  C   UNL     1      43.443 -12.161   3.889  1.00  0.00     0.233 C 
HETATM   18  N   UNL     1      43.222 -12.324   5.260  1.00  0.00    -0.326 N 
HETATM   19  H   UNL     1      42.414 -12.867   5.521  1.00  0.00     0.169 HD
HETATM   20  O   UNL     1      44.390 -11.582   3.378  1.00  0.00    -0.273 OA
BRANCH  18  21
HETATM   21  C   UNL     1      43.785 -11.585   6.313  1.00  0.00     0.040 A 
HETATM   22  C   UNL     1      43.006 -10.562   6.898  1.00  0.00    -0.035 A 
HETATM   23  C   UNL     1      41.647 -10.143   6.395  1.00  0.00     0.050 C 
HETATM   24  C   UNL     1      43.576  -9.765   7.902  1.00  0.00     0.015 A 
HETATM   25  C   UNL     1      44.881  -9.987   8.350  1.00  0.00    -0.061 A 
HETATM   26  C   UNL     1      45.457  -9.125   9.433  1.00  0.00     0.048 C 
HETATM   27  C   UNL     1      45.618 -11.038   7.799  1.00  0.00     0.009 A 
HETATM   28  C   UNL     1      45.082 -11.822   6.773  1.00  0.00     0.030 A 
ENDBRANCH  18  21
ENDBRANCH   5  17
BRANCH   8  29
HETATM   29  C   UNL     1      43.322 -15.987   4.252  1.00  0.00     0.130 C 
BRANCH  29  30
HETATM   30  C   UNL     1      43.089 -17.496   4.054  1.00  0.00     0.046 C 
BRANCH  30  31
HETATM   31  C   UNL     1      43.410 -17.943   2.630  1.00  0.00     0.168 C 
BRANCH  31  32
HETATM   32  O   UNL     1      44.172 -19.151   2.705  1.00  0.00    -0.396 OA
HETATM   33  C   UNL     1      43.432 -20.265   2.223  1.00  0.00     0.201 C 
ENDBRANCH  31  32
ENDBRANCH  30  31
ENDBRANCH  29  30
ENDBRANCH   8  29
BRANCH   1  34
HETATM   34  O   UNL     1      40.136 -14.038  -0.851  1.00  0.00    -0.349 OA
BRANCH  34  35
HETATM   35  C   UNL     1      39.337 -13.732  -2.007  1.00  0.00     0.171 C 
HETATM   36  C   UNL     1      38.825 -14.999  -2.675  1.00  0.00     0.034 C 
ENDBRANCH  34  35
ENDBRANCH   1  34
TORSDOF 8
ENDMDL
MODEL 2
REMARK VINA RESULT:      -8.5      3.005      5.769
REMARK  8 active torsions:
REMARK  status: ('A' for Active; 'I' for Inactive)
REMARK    1  A    between atoms: C_2  and  O_3 
REMARK    2  A    between atoms: O_3  and  C_4 
REMARK    3  A    between atoms: C_8  and  C_9 
REMARK       I    between atoms: C_9  and  N_10 
REMARK    4  A    between atoms: N_10  and  C_11 
REMARK    5  A    between atoms: N_22  and  C_23 
REMARK    6  A    between atoms: C_23  and  C_24 
REMARK    7  A    between atoms: C_24  and  C_25 
REMARK    8  A    between atoms: C_25  and  O_26 
ROOT
HETATM    1  C   UNL     1      41.444 -15.710   3.307  1.00  0.00     0.102 A 
HETATM    2  C   UNL     1      41.422 -14.321   3.241  1.00  0.00     0.113 A 
HETATM    3  C   UNL     1      42.458 -13.635   2.531  1.00  0.00     0.002 A 
HETATM    4  C   UNL     1      42.422 -12.129   2.718  1.00  0.00     0.138 C 
HETATM    5  C   UNL     1      42.293 -12.050   4.240  1.00  0.00     0.161 C 
HETATM    6  C   UNL     1      40.791 -12.234   4.409  1.00  0.00     0.155 C 
HETATM    7  C   UNL     1      40.364 -12.426   5.880  1.00  0.00     0.072 C 
HETATM    8  N   UNL     1      40.078 -11.077   3.689  1.00  0.00    -0.325 N 
HETATM    9  C   UNL     1      40.532 -10.636   2.420  1.00  0.00     0.172 C 
HETATM   10  S   UNL     1      39.673  -9.868   1.208  1.00  0.00    -0.041 SA
HETATM   11  N   UNL     1      41.854 -10.959   2.113  1.00  0.00    -0.357 N 
HETATM   12  O   UNL     1      40.408 -13.567   3.840  1.00  0.00    -0.316 OA
HETATM   13  C   UNL     1      43.434 -14.331   1.828  1.00  0.00     0.012 A 
HETATM   14  C   UNL     1      43.387 -15.725   1.834  1.00  0.00     0.003 A 
HETATM   15  C   UNL     1      42.405 -16.409   2.569  1.00  0.00     0.040 A 
HETATM   16  H   UNL     1      42.127 -10.717   1.174  1.00  0.00     0.162 HD
ENDROOT
BRANCH   5  17
HETATM   17  C   UNL     1      42.855 -10.860   5.015  1.00  0.00     0.233 C 
HETATM   18  N   UNL     1      43.467 -11.333   6.179  1.00  0.00    -0.326 N 
HETATM   19  H   UNL     1      43.578 -12.332   6.252  1.00  0.00     0.169 HD
HETATM   20  O   UNL     1      42.679  -9.687   4.721  1.00  0.00    -0.273 OA
BRANCH  18  21
HETATM   21  C   UNL     1      43.666 -10.640   7.385  1.00  0.00     0.040 A 
HETATM   22  C   UNL     1      44.992 -10.450   7.831  1.00  0.00    -0.035 A 
HETATM   23  C   UNL     1      46.206 -11.033   7.149  1.00  0.00     0.050 C 
HETATM   24  C   UNL     1      45.209  -9.824   9.068  1.00  0.00     0.015 A 
HETATM   25  C   UNL     1      44.143  -9.363   9.844  1.00  0.00    -0.061 A 
HETATM   26  C   UNL     1      44.409  -8.689  11.156  1.00  0.00     0.048 C 
HETATM   27  C   UNL     1      42.840  -9.511   9.362  1.00  0.00     0.009 A 
HETATM   28  C   UNL     1      42.600 -10.163   8.149  1.00  0.00     0.030 A 
ENDBRANCH  18  21
ENDBRANCH   5  17
BRANCH   8  29
HETATM   29  C   UNL     1      39.088 -10.299   4.486  1.00  0.00     0.130 C 
BRANCH  29  30
HETATM   30  C   UNL     1      39.363  -8.845   4.908  1.00  0.00     0.046 C 
BRANCH  30  31
HETATM   31  C   UNL     1      39.703  -8.733   6.391  1.00  0.00     0.168 C 
BRANCH  31  32
HETATM   32  O   UNL     1      38.772  -9.536   7.123  1.00  0.00    -0.396 OA
HETATM   33  C   UNL     1      39.144  -9.652   8.490  1.00  0.00     0.201 C 
ENDBRANCH  31  32
ENDBRANCH  30  31
ENDBRANCH  29  30
ENDBRANCH   8  29
BRANCH   1  34
HETATM   34  O   UNL     1      40.597 -16.428   4.102  1.00  0.00    -0.349 OA
BRANCH  34  35
HETATM   35  C   UNL     1      41.120 -16.553   5.435  1.00  0.00     0.171 C 
HETATM   36  C   UNL     1      40.151 -15.988   6.463  1.00  0.00     0.034 C 
ENDBRANCH  34  35
ENDBRANCH   1  34
TORSDOF 8
ENDMDL
MODEL 3
REMARK VINA RESULT:      -8.4      2.857      5.671
REMARK  8 active torsions:
REMARK  status: ('A' for Active; 'I' for Inactive)
REMARK    1  A    between atoms: C_2  and  O_3 
REMARK    2  A    between atoms: O_3  and  C_4 
REMARK    3  A    between atoms: C_8  and  C_9 
REMARK       I    between atoms: C_9  and  N_10 
REMARK    4  A    between atoms: N_10  and  C_11 
REMARK    5  A    between atoms: N_22  and  C_23 
REMARK    6  A    between atoms: C_23  and  C_24 
REMARK    7  A    between atoms: C_24  and  C_25 
REMARK    8  A    between atoms: C_25  and  O_26 
ROOT
HETATM    1  C   UNL     1      39.086 -11.667  -1.545  1.00  0.00     0.102 A 
HETATM    2  C   UNL     1      39.680 -11.300  -0.343  1.00  0.00     0.113 A 
HETATM    3  C   UNL     1      40.930 -10.605  -0.361  1.00  0.00     0.002 A 
HETATM    4  C   UNL     1      41.558 -10.454   1.013  1.00  0.00     0.138 C 
HETATM    5  C   UNL     1      41.437 -11.892   1.522  1.00  0.00     0.161 C 
HETATM    6  C   UNL     1      40.004 -11.893   2.036  1.00  0.00     0.155 C 
HETATM    7  C   UNL     1      39.498 -13.300   2.422  1.00  0.00     0.072 C 
HETATM    8  N   UNL     1      39.893 -10.850   3.161  1.00  0.00    -0.325 N 
HETATM    9  C   UNL     1      40.528  -9.589   3.033  1.00  0.00     0.172 C 
HETATM   10  S   UNL     1      40.129  -8.135   3.756  1.00  0.00    -0.041 SA
HETATM   11  N   UNL     1      41.580  -9.540   2.118  1.00  0.00    -0.357 N 
HETATM   12  O   UNL     1      39.087 -11.580   0.892  1.00  0.00    -0.316 OA
HETATM   13  C   UNL     1      41.517 -10.207  -1.556  1.00  0.00     0.012 A 
HETATM   14  C   UNL     1      40.860 -10.508  -2.750  1.00  0.00     0.003 A 
HETATM   15  C   UNL     1      39.659 -11.235  -2.745  1.00  0.00     0.040 A 
HETATM   16  H   UNL     1      41.956  -8.617   1.976  1.00  0.00     0.162 HD
ENDROOT
BRANCH   5  17
HETATM   17  C   UNL     1      42.445 -12.459   2.518  1.00  0.00     0.233 C 
HETATM   18  N   UNL     1      42.378 -13.855   2.477  1.00  0.00    -0.326 N 
HETATM   19  H   UNL     1      41.825 -14.255   1.736  1.00  0.00     0.169 HD
HETATM   20  O   UNL     1      43.101 -11.794   3.306  1.00  0.00    -0.273 OA
BRANCH  18  21
HETATM   21  C   UNL     1      42.715 -14.759   3.498  1.00  0.00     0.040 A 
HETATM   22  C   UNL     1      43.186 -16.037   3.124  1.00  0.00    -0.035 A 
HETATM   23  C   UNL     1      43.253 -16.531   1.700  1.00  0.00     0.050 C 
HETATM   24  C   UNL     1      43.460 -16.980   4.127  1.00  0.00     0.015 A 
HETATM   25  C   UNL     1      43.304 -16.665   5.479  1.00  0.00    -0.061 A 
HETATM   26  C   UNL     1      43.615 -17.692   6.527  1.00  0.00     0.048 C 
HETATM   27  C   UNL     1      42.889 -15.379   5.833  1.00  0.00     0.009 A 
HETATM   28  C   UNL     1      42.577 -14.436   4.849  1.00  0.00     0.030 A 
ENDBRANCH  18  21
ENDBRANCH   5  17
BRANCH   8  29
HETATM   29  C   UNL     1      39.327 -11.319   4.457  1.00  0.00     0.130 C 
BRANCH  29  30
HETATM   30  C   UNL     1      40.220 -11.528   5.694  1.00  0.00     0.046 C 
BRANCH  30  31
HETATM   31  C   UNL     1      39.917 -10.517   6.796  1.00  0.00     0.168 C 
BRANCH  31  32
HETATM   32  O   UNL     1      41.100  -9.748   7.033  1.00  0.00    -0.396 OA
HETATM   33  C   UNL     1      42.247 -10.368   6.467  1.00  0.00     0.201 C 
ENDBRANCH  31  32
ENDBRANCH  30  31
ENDBRANCH  29  30
ENDBRANCH   8  29
BRANCH   1  34
HETATM   34  O   UNL     1      37.988 -12.477  -1.613  1.00  0.00    -0.349 OA
BRANCH  34  35
HETATM   35  C   UNL     1      38.297 -13.713  -2.280  1.00  0.00     0.171 C 
HETATM   36  C   UNL     1      39.223 -14.578  -1.438  1.00  0.00     0.034 C 
ENDBRANCH  34  35
ENDBRANCH   1  34
TORSDOF 8
ENDMDL
MODEL 4
REMARK VINA RESULT:      -8.3      2.526      7.169
REMARK  8 active torsions:
REMARK  status: ('A' for Active; 'I' for Inactive)
REMARK    1  A    between atoms: C_2  and  O_3 
REMARK    2  A    between atoms: O_3  and  C_4 
REMARK    3  A    between atoms: C_8  and  C_9 
REMARK       I    between atoms: C_9  and  N_10 
REMARK    4  A    between atoms: N_10  and  C_11 
REMARK    5  A    between atoms: N_22  and  C_23 
REMARK    6  A    between atoms: C_23  and  C_24 
REMARK    7  A    between atoms: C_24  and  C_25 
REMARK    8  A    between atoms: C_25  and  O_26 
ROOT
HETATM    1  C   UNL     1      42.208  -9.070   7.883  1.00  0.00     0.102 A 
HETATM    2  C   UNL     1      41.566  -9.658   6.799  1.00  0.00     0.113 A 
HETATM    3  C   UNL     1      40.235 -10.157   6.957  1.00  0.00     0.002 A 
HETATM    4  C   UNL     1      39.742 -10.953   5.762  1.00  0.00     0.138 C 
HETATM    5  C   UNL     1      40.936 -11.885   5.550  1.00  0.00     0.161 C 
HETATM    6  C   UNL     1      41.857 -10.989   4.734  1.00  0.00     0.155 C 
HETATM    7  C   UNL     1      43.270 -11.581   4.545  1.00  0.00     0.072 C 
HETATM    8  N   UNL     1      41.142 -10.628   3.422  1.00  0.00    -0.325 N 
HETATM    9  C   UNL     1      39.763 -10.298   3.425  1.00  0.00     0.172 C 
HETATM   10  S   UNL     1      38.907  -9.352   2.343  1.00  0.00    -0.041 SA
HETATM   11  N   UNL     1      39.041 -10.761   4.525  1.00  0.00    -0.357 N 
HETATM   12  O   UNL     1      42.180  -9.771   5.547  1.00  0.00    -0.316 OA
HETATM   13  C   UNL     1      39.534  -9.981   8.144  1.00  0.00     0.012 A 
HETATM   14  C   UNL     1      40.165  -9.309   9.192  1.00  0.00     0.003 A 
HETATM   15  C   UNL     1      41.490  -8.862   9.065  1.00  0.00     0.040 A 
HETATM   16  H   UNL     1      38.087 -10.439   4.554  1.00  0.00     0.162 HD
ENDROOT
BRANCH   5  17
HETATM   17  C   UNL     1      40.748 -13.278   4.952  1.00  0.00     0.233 C 
HETATM   18  N   UNL     1      41.804 -14.091   5.372  1.00  0.00    -0.326 N 
HETATM   19  H   UNL     1      42.406 -13.711   6.084  1.00  0.00     0.169 HD
HETATM   20  O   UNL     1      39.887 -13.580   4.139  1.00  0.00    -0.273 OA
BRANCH  18  21
HETATM   21  C   UNL     1      42.322 -15.226   4.725  1.00  0.00     0.040 A 
HETATM   22  C   UNL     1      42.575 -16.377   5.504  1.00  0.00    -0.035 A 
HETATM   23  C   UNL     1      42.424 -16.432   7.004  1.00  0.00     0.050 C 
HETATM   24  C   UNL     1      43.158 -17.496   4.891  1.00  0.00     0.015 A 
HETATM   25  C   UNL     1      43.461 -17.500   3.527  1.00  0.00    -0.061 A 
HETATM   26  C   UNL     1      44.074 -18.716   2.900  1.00  0.00     0.048 C 
HETATM   27  C   UNL     1      43.154 -16.373   2.761  1.00  0.00     0.009 A 
HETATM   28  C   UNL     1      42.604 -15.235   3.358  1.00  0.00     0.030 A 
ENDBRANCH  18  21
ENDBRANCH   5  17
BRANCH   8  29
HETATM   29  C   UNL     1      41.885 -10.893   2.158  1.00  0.00     0.130 C 
BRANCH  29  30
HETATM   30  C   UNL     1      41.643 -12.173   1.338  1.00  0.00     0.046 C 
BRANCH  30  31
HETATM   31  C   UNL     1      40.762 -11.914   0.119  1.00  0.00     0.168 C 
BRANCH  31  32
HETATM   32  O   UNL     1      39.811 -12.979   0.023  1.00  0.00    -0.396 OA
HETATM   33  C   UNL     1      40.364 -14.214   0.458  1.00  0.00     0.201 C 
ENDBRANCH  31  32
ENDBRANCH  30  31
ENDBRANCH  29  30
ENDBRANCH   8  29
BRANCH   1  34
HETATM   34  O   UNL     1      43.530  -8.728   7.867  1.00  0.00    -0.349 OA
BRANCH  34  35
HETATM   35  C   UNL     1      44.281  -9.515   8.806  1.00  0.00     0.171 C 
HETATM   36  C   UNL     1      44.709 -10.841   8.197  1.00  0.00     0.034 C 
ENDBRANCH  34  35
ENDBRANCH   1  34
TORSDOF 8
ENDMDL
MODEL 5
REMARK VINA RESULT:      -8.1      2.485      2.977
REMARK  8 active torsions:
REMARK  status: ('A' for Active; 'I' for Inactive)
REMARK    1  A    between atoms: C_2  and  O_3 
REMARK    2  A    between atoms: O_3  and  C_4 
REMARK    3  A    between atoms: C_8  and  C_9 
REMARK       I    between atoms: C_9  and  N_10 
REMARK    4  A    between atoms: N_10  and  C_11 
REMARK    5  A    between atoms: N_22  and  C_23 
REMARK    6  A    between atoms: C_23  and  C_24 
REMARK    7  A    between atoms: C_24  and  C_25 
REMARK    8  A    between atoms: C_25  and  O_26 
ROOT
HETATM    1  C   UNL     1      41.012  -9.959   0.291  1.00  0.00     0.102 A 
HETATM    2  C   UNL     1      40.881 -10.918   1.289  1.00  0.00     0.113 A 
HETATM    3  C   UNL     1      39.658 -11.003   2.026  1.00  0.00     0.002 A 
HETATM    4  C   UNL     1      39.732 -11.946   3.213  1.00  0.00     0.138 C 
HETATM    5  C   UNL     1      41.033 -11.465   3.857  1.00  0.00     0.161 C 
HETATM    6  C   UNL     1      42.059 -12.224   3.028  1.00  0.00     0.155 C 
HETATM    7  C   UNL     1      43.512 -11.773   3.297  1.00  0.00     0.072 C 
HETATM    8  N   UNL     1      41.819 -13.731   3.222  1.00  0.00    -0.325 N 
HETATM    9  C   UNL     1      40.499 -14.249   3.240  1.00  0.00     0.172 C 
HETATM   10  S   UNL     1      39.971 -15.789   2.859  1.00  0.00    -0.041 SA
HETATM   11  N   UNL     1      39.499 -13.324   3.540  1.00  0.00    -0.357 N 
HETATM   12  O   UNL     1      41.910 -11.815   1.594  1.00  0.00    -0.316 OA
HETATM   13  C   UNL     1      38.564 -10.211   1.701  1.00  0.00     0.012 A 
HETATM   14  C   UNL     1      38.686  -9.316   0.638  1.00  0.00     0.003 A 
HETATM   15  C   UNL     1      39.899  -9.188  -0.058  1.00  0.00     0.040 A 
HETATM   16  H   UNL     1      38.564 -13.690   3.458  1.00  0.00     0.162 HD
ENDROOT
BRANCH   5  17
HETATM   17  C   UNL     1      41.254 -11.583   5.363  1.00  0.00     0.233 C 
HETATM   18  N   UNL     1      41.989 -10.476   5.796  1.00  0.00    -0.326 N 
HETATM   19  H   UNL     1      42.120  -9.737   5.125  1.00  0.00     0.169 HD
HETATM   20  O   UNL     1      40.947 -12.553   6.042  1.00  0.00    -0.273 OA
BRANCH  18  21
HETATM   21  C   UNL     1      42.825 -10.390   6.922  1.00  0.00     0.040 A 
HETATM   22  C   UNL     1      42.388  -9.609   8.015  1.00  0.00    -0.035 A 
HETATM   23  C   UNL     1      41.128  -8.779   8.011  1.00  0.00     0.050 C 
HETATM   24  C   UNL     1      43.239  -9.452   9.120  1.00  0.00     0.015 A 
HETATM   25  C   UNL     1      44.489 -10.074   9.167  1.00  0.00    -0.061 A 
HETATM   26  C   UNL     1      45.370  -9.895  10.366  1.00  0.00     0.048 C 
HETATM   27  C   UNL     1      44.882 -10.887   8.100  1.00  0.00     0.009 A 
HETATM   28  C   UNL     1      44.064 -11.029   6.975  1.00  0.00     0.030 A 
ENDBRANCH  18  21
ENDBRANCH   5  17
BRANCH   8  29
HETATM   29  C   UNL     1      42.992 -14.549   3.641  1.00  0.00     0.130 C 
BRANCH  29  30
HETATM   30  C   UNL     1      43.089 -15.148   5.056  1.00  0.00     0.046 C 
BRANCH  30  31
HETATM   31  C   UNL     1      42.988 -16.670   5.042  1.00  0.00     0.168 C 
BRANCH  31  32
HETATM   32  O   UNL     1      44.315 -17.205   5.071  1.00  0.00    -0.396 OA
HETATM   33  C   UNL     1      44.396 -18.440   4.372  1.00  0.00     0.201 C 
ENDBRANCH  31  32
ENDBRANCH  30  31
ENDBRANCH  29  30
ENDBRANCH   8  29
BRANCH   1  34
HETATM   34  O   UNL     1      42.197  -9.698  -0.337  1.00  0.00    -0.349 OA
BRANCH  34  35
HETATM   35  C   UNL     1      42.022  -8.741  -1.395  1.00  0.00     0.171 C 
HETATM   36  C   UNL     1      43.179  -7.754  -1.444  1.00  0.00     0.034 C 
ENDBRANCH  34  35
ENDBRANCH   1  34
TORSDOF 8
ENDMDL
MODEL 6
REMARK VINA RESULT:      -7.7      5.979     10.217
REMARK  8 active torsions:
REMARK  status: ('A' for Active; 'I' for Inactive)
REMARK    1  A    between atoms: C_2  and  O_3 
REMARK    2  A    between atoms: O_3  and  C_4 
REMARK    3  A    between atoms: C_8  and  C_9 
REMARK       I    between atoms: C_9  and  N_10 
REMARK    4  A    between atoms: N_10  and  C_11 
REMARK    5  A    between atoms: N_22  and  C_23 
REMARK    6  A    between atoms: C_23  and  C_24 
REMARK    7  A    between atoms: C_24  and  C_25 
REMARK    8  A    between atoms: C_25  and  O_26 
ROOT
HETATM    1  C   UNL     1      44.369 -11.002   8.057  1.00  0.00     0.102 A 
HETATM    2  C   UNL     1      43.747  -9.794   8.349  1.00  0.00     0.113 A 
HETATM    3  C   UNL     1      44.538  -8.608   8.471  1.00  0.00     0.002 A 
HETATM    4  C   UNL     1      43.760  -7.414   8.994  1.00  0.00     0.138 C 
HETATM    5  C   UNL     1      43.066  -8.053  10.199  1.00  0.00     0.161 C 
HETATM    6  C   UNL     1      41.865  -8.701   9.525  1.00  0.00     0.155 C 
HETATM    7  C   UNL     1      41.069  -9.631  10.466  1.00  0.00     0.072 C 
HETATM    8  N   UNL     1      41.022  -7.594   8.868  1.00  0.00    -0.325 N 
HETATM    9  C   UNL     1      41.654  -6.533   8.172  1.00  0.00     0.172 C 
HETATM   10  S   UNL     1      41.047  -5.582   6.937  1.00  0.00    -0.041 SA
HETATM   11  N   UNL     1      42.988  -6.306   8.510  1.00  0.00    -0.357 N 
HETATM   12  O   UNL     1      42.362  -9.695   8.519  1.00  0.00    -0.316 OA
HETATM   13  C   UNL     1      45.903  -8.622   8.212  1.00  0.00     0.012 A 
HETATM   14  C   UNL     1      46.493  -9.828   7.834  1.00  0.00     0.003 A 
HETATM   15  C   UNL     1      45.735 -11.008   7.761  1.00  0.00     0.040 A 
HETATM   16  H   UNL     1      43.442  -5.611   7.941  1.00  0.00     0.162 HD
ENDROOT
BRANCH   5  17
HETATM   17  C   UNL     1      42.704  -7.222  11.428  1.00  0.00     0.233 C 
HETATM   18  N   UNL     1      43.108  -7.915  12.572  1.00  0.00    -0.326 N 
HETATM   19  H   UNL     1      43.679  -8.732  12.422  1.00  0.00     0.169 HD
HETATM   20  O   UNL     1      42.054  -6.187  11.407  1.00  0.00    -0.273 OA
BRANCH  18  21
HETATM   21  C   UNL     1      42.576  -7.814  13.868  1.00  0.00     0.040 A 
HETATM   22  C   UNL     1      41.604  -8.760  14.263  1.00  0.00    -0.035 A 
HETATM   23  C   UNL     1      41.024  -9.809  13.346  1.00  0.00     0.050 C 
HETATM   24  C   UNL     1      41.008  -8.634  15.527  1.00  0.00     0.015 A 
HETATM   25  C   UNL     1      41.381  -7.613  16.405  1.00  0.00    -0.061 A 
HETATM   26  C   UNL     1      40.732  -7.512  17.753  1.00  0.00     0.048 C 
HETATM   27  C   UNL     1      42.382  -6.719  16.020  1.00  0.00     0.009 A 
HETATM   28  C   UNL     1      42.964  -6.806  14.751  1.00  0.00     0.030 A 
ENDBRANCH  18  21
ENDBRANCH   5  17
BRANCH   8  29
HETATM   29  C   UNL     1      39.575  -7.556   9.219  1.00  0.00     0.130 C 
BRANCH  29  30
HETATM   30  C   UNL     1      39.018  -6.525  10.217  1.00  0.00     0.046 C 
BRANCH  30  31
HETATM   31  C   UNL     1      38.399  -7.191  11.442  1.00  0.00     0.168 C 
BRANCH  31  32
HETATM   32  O   UNL     1      39.151  -6.795  12.593  1.00  0.00    -0.396 OA
HETATM   33  C   UNL     1      38.723  -5.534  13.089  1.00  0.00     0.201 C 
ENDBRANCH  31  32
ENDBRANCH  30  31
ENDBRANCH  29  30
ENDBRANCH   8  29
BRANCH   1  34
HETATM   34  O   UNL     1      43.715 -12.201   8.093  1.00  0.00    -0.349 OA
BRANCH  34  35
HETATM   35  C   UNL     1      43.823 -12.889   6.836  1.00  0.00     0.171 C 
HETATM   36  C   UNL     1      42.702 -12.487   5.889  1.00  0.00     0.034 C 
ENDBRANCH  34  35
ENDBRANCH   1  34
TORSDOF 8
ENDMDL
MODEL 7
REMARK VINA RESULT:      -7.7      3.986      7.178
REMARK  8 active torsions:
REMARK  status: ('A' for Active; 'I' for Inactive)
REMARK    1  A    between atoms: C_2  and  O_3 
REMARK    2  A    between atoms: O_3  and  C_4 
REMARK    3  A    between atoms: C_8  and  C_9 
REMARK       I    between atoms: C_9  and  N_10 
REMARK    4  A    between atoms: N_10  and  C_11 
REMARK    5  A    between atoms: N_22  and  C_23 
REMARK    6  A    between atoms: C_23  and  C_24 
REMARK    7  A    between atoms: C_24  and  C_25 
REMARK    8  A    between atoms: C_25  and  O_26 
ROOT
HETATM    1  C   UNL     1      41.243 -13.329   4.078  1.00  0.00     0.102 A 
HETATM    2  C   UNL     1      41.199 -11.965   4.340  1.00  0.00     0.113 A 
HETATM    3  C   UNL     1      42.320 -11.146   3.992  1.00  0.00     0.002 A 
HETATM    4  C   UNL     1      42.219  -9.727   4.521  1.00  0.00     0.138 C 
HETATM    5  C   UNL     1      41.843 -10.010   5.977  1.00  0.00     0.161 C 
HETATM    6  C   UNL     1      40.338 -10.205   5.850  1.00  0.00     0.155 C 
HETATM    7  C   UNL     1      39.683 -10.734   7.144  1.00  0.00     0.072 C 
HETATM    8  N   UNL     1      39.724  -8.899   5.318  1.00  0.00    -0.325 N 
HETATM    9  C   UNL     1      40.367  -8.177   4.282  1.00  0.00     0.172 C 
HETATM   10  S   UNL     1      39.699  -7.129   3.162  1.00  0.00    -0.041 SA
HETATM   11  N   UNL     1      41.729  -8.438   4.127  1.00  0.00    -0.357 N 
HETATM   12  O   UNL     1      40.083 -11.359   4.927  1.00  0.00    -0.316 OA
HETATM   13  C   UNL     1      43.413 -11.671   3.313  1.00  0.00     0.012 A 
HETATM   14  C   UNL     1      43.399 -13.026   2.981  1.00  0.00     0.003 A 
HETATM   15  C   UNL     1      42.327 -13.848   3.363  1.00  0.00     0.040 A 
HETATM   16  H   UNL     1      42.145  -7.984   3.329  1.00  0.00     0.162 HD
ENDROOT
BRANCH   5  17
HETATM   17  C   UNL     1      42.244  -9.047   7.092  1.00  0.00     0.233 C 
HETATM   18  N   UNL     1      42.620  -9.793   8.213  1.00  0.00    -0.326 N 
HETATM   19  H   UNL     1      42.714 -10.787   8.078  1.00  0.00     0.169 HD
HETATM   20  O   UNL     1      42.126  -7.832   7.044  1.00  0.00    -0.273 OA
BRANCH  18  21
HETATM   21  C   UNL     1      42.580  -9.394   9.560  1.00  0.00     0.040 A 
HETATM   22  C   UNL     1      43.808  -9.171  10.222  1.00  0.00    -0.035 A 
HETATM   23  C   UNL     1      45.161  -9.433   9.607  1.00  0.00     0.050 C 
HETATM   24  C   UNL     1      43.793  -8.842  11.586  1.00  0.00     0.015 A 
HETATM   25  C   UNL     1      42.591  -8.704  12.286  1.00  0.00    -0.061 A 
HETATM   26  C   UNL     1      42.609  -8.341  13.740  1.00  0.00     0.048 C 
HETATM   27  C   UNL     1      41.385  -8.875  11.602  1.00  0.00     0.009 A 
HETATM   28  C   UNL     1      41.378  -9.237  10.251  1.00  0.00     0.030 A 
ENDBRANCH  18  21
ENDBRANCH   5  17
BRANCH   8  29
HETATM   29  C   UNL     1      38.600  -8.317   6.104  1.00  0.00     0.130 C 
BRANCH  29  30
HETATM   30  C   UNL     1      38.772  -7.017   6.909  1.00  0.00     0.046 C 
BRANCH  30  31
HETATM   31  C   UNL     1      38.885  -7.282   8.408  1.00  0.00     0.168 C 
BRANCH  31  32
HETATM   32  O   UNL     1      39.272  -6.062   9.048  1.00  0.00    -0.396 OA
HETATM   33  C   UNL     1      39.927  -5.182   8.143  1.00  0.00     0.201 C 
ENDBRANCH  31  32
ENDBRANCH  30  31
ENDBRANCH  29  30
ENDBRANCH   8  29
BRANCH   1  34
HETATM   34  O   UNL     1      40.296 -14.203   4.531  1.00  0.00    -0.349 OA
BRANCH  34  35
HETATM   35  C   UNL     1      40.725 -15.565   4.365  1.00  0.00     0.171 C 
HETATM   36  C   UNL     1      40.740 -16.305   5.693  1.00  0.00     0.034 C 
ENDBRANCH  34  35
ENDBRANCH   1  34
TORSDOF 8
ENDMDL
MODEL 8
REMARK VINA RESULT:      -7.4      3.377      7.984
REMARK  8 active torsions:
REMARK  status: ('A' for Active; 'I' for Inactive)
REMARK    1  A    between atoms: C_2  and  O_3 
REMARK    2  A    between atoms: O_3  and  C_4 
REMARK    3  A    between atoms: C_8  and  C_9 
REMARK       I    between atoms: C_9  and  N_10 
REMARK    4  A    between atoms: N_10  and  C_11 
REMARK    5  A    between atoms: N_22  and  C_23 
REMARK    6  A    between atoms: C_23  and  C_24 
REMARK    7  A    between atoms: C_24  and  C_25 
REMARK    8  A    between atoms: C_25  and  O_26 
ROOT
HETATM    1  C   UNL     1      42.673  -8.400   8.155  1.00  0.00     0.102 A 
HETATM    2  C   UNL     1      41.784  -8.983   7.260  1.00  0.00     0.113 A 
HETATM    3  C   UNL     1      40.568  -9.558   7.749  1.00  0.00     0.002 A 
HETATM    4  C   UNL     1      39.801 -10.336   6.696  1.00  0.00     0.138 C 
HETATM    5  C   UNL     1      40.929 -11.195   6.122  1.00  0.00     0.161 C 
HETATM    6  C   UNL     1      41.552 -10.221   5.131  1.00  0.00     0.155 C 
HETATM    7  C   UNL     1      42.883 -10.729   4.535  1.00  0.00     0.072 C 
HETATM    8  N   UNL     1      40.489  -9.852   4.082  1.00  0.00    -0.325 N 
HETATM    9  C   UNL     1      39.152  -9.597   4.477  1.00  0.00     0.172 C 
HETATM   10  S   UNL     1      37.993  -8.661   3.716  1.00  0.00    -0.041 SA
HETATM   11  N   UNL     1      38.779 -10.137   5.708  1.00  0.00    -0.357 N 
HETATM   12  O   UNL     1      42.034  -9.018   5.884  1.00  0.00    -0.316 OA
HETATM   13  C   UNL     1      40.214  -9.462   9.090  1.00  0.00     0.012 A 
HETATM   14  C   UNL     1      41.079  -8.795   9.958  1.00  0.00     0.003 A 
HETATM   15  C   UNL     1      42.299  -8.273   9.497  1.00  0.00     0.040 A 
HETATM   16  H   UNL     1      37.857  -9.869   6.011  1.00  0.00     0.162 HD
ENDROOT
BRANCH   5  17
HETATM   17  C   UNL     1      40.643 -12.572   5.529  1.00  0.00     0.233 C 
HETATM   18  N   UNL     1      41.769 -13.380   5.708  1.00  0.00    -0.326 N 
HETATM   19  H   UNL     1      42.496 -13.009   6.300  1.00  0.00     0.169 HD
HETATM   20  O   UNL     1      39.642 -12.866   4.893  1.00  0.00    -0.273 OA
BRANCH  18  21
HETATM   21  C   UNL     1      42.162 -14.487   4.938  1.00  0.00     0.040 A 
HETATM   22  C   UNL     1      42.130 -15.762   5.544  1.00  0.00    -0.035 A 
HETATM   23  C   UNL     1      41.800 -16.000   6.997  1.00  0.00     0.050 C 
HETATM   24  C   UNL     1      42.585 -16.872   4.815  1.00  0.00     0.015 A 
HETATM   25  C   UNL     1      43.038 -16.738   3.500  1.00  0.00    -0.061 A 
HETATM   26  C   UNL     1      43.508 -17.945   2.745  1.00  0.00     0.048 C 
HETATM   27  C   UNL     1      43.012 -15.478   2.898  1.00  0.00     0.009 A 
HETATM   28  C   UNL     1      42.594 -14.354   3.617  1.00  0.00     0.030 A 
ENDBRANCH  18  21
ENDBRANCH   5  17
BRANCH   8  29
HETATM   29  C   UNL     1      40.867 -10.032   2.652  1.00  0.00     0.130 C 
BRANCH  29  30
HETATM   30  C   UNL     1      40.717  -8.889   1.632  1.00  0.00     0.046 C 
BRANCH  30  31
HETATM   31  C   UNL     1      41.399  -9.211   0.305  1.00  0.00     0.168 C 
BRANCH  31  32
HETATM   32  O   UNL     1      40.542  -8.773  -0.754  1.00  0.00    -0.396 OA
HETATM   33  C   UNL     1      40.143  -7.421  -0.577  1.00  0.00     0.201 C 
ENDBRANCH  31  32
ENDBRANCH  30  31
ENDBRANCH  29  30
ENDBRANCH   8  29
BRANCH   1  34
HETATM   34  O   UNL     1      43.924  -7.987   7.796  1.00  0.00    -0.349 OA
BRANCH  34  35
HETATM   35  C   UNL     1      44.930  -8.610   8.613  1.00  0.00     0.171 C 
HETATM   36  C   UNL     1      45.354  -9.953   8.038  1.00  0.00     0.034 C 
ENDBRANCH  34  35
ENDBRANCH   1  34
TORSDOF 8
ENDMDL
MODEL 9
REMARK VINA RESULT:      -7.4      3.222      6.996
REMARK  8 active torsions:
REMARK  status: ('A' for Active; 'I' for Inactive)
REMARK    1  A    between atoms: C_2  and  O_3 
REMARK    2  A    between atoms: O_3  and  C_4 
REMARK    3  A    between atoms: C_8  and  C_9 
REMARK       I    between atoms: C_9  and  N_10 
REMARK    4  A    between atoms: N_10  and  C_11 
REMARK    5  A    between atoms: N_22  and  C_23 
REMARK    6  A    between atoms: C_23  and  C_24 
REMARK    7  A    between atoms: C_24  and  C_25 
REMARK    8  A    between atoms: C_25  and  O_26 
ROOT
HETATM    1  C   UNL     1      42.278 -15.697   3.067  1.00  0.00     0.102 A 
HETATM    2  C   UNL     1      41.679 -14.463   3.293  1.00  0.00     0.113 A 
HETATM    3  C   UNL     1      40.385 -14.199   2.743  1.00  0.00     0.002 A 
HETATM    4  C   UNL     1      39.948 -12.753   2.893  1.00  0.00     0.138 C 
HETATM    5  C   UNL     1      41.204 -12.040   2.388  1.00  0.00     0.161 C 
HETATM    6  C   UNL     1      42.060 -12.045   3.646  1.00  0.00     0.155 C 
HETATM    7  C   UNL     1      43.512 -11.580   3.396  1.00  0.00     0.072 C 
HETATM    8  N   UNL     1      41.322 -11.251   4.737  1.00  0.00    -0.325 N 
HETATM    9  C   UNL     1      39.923 -11.406   4.911  1.00  0.00     0.172 C 
HETATM   10  S   UNL     1      39.004 -11.160   6.287  1.00  0.00    -0.041 SA
HETATM   11  N   UNL     1      39.235 -11.907   3.807  1.00  0.00    -0.357 N 
HETATM   12  O   UNL     1      42.298 -13.467   4.056  1.00  0.00    -0.316 OA
HETATM   13  C   UNL     1      39.674 -15.183   2.066  1.00  0.00     0.012 A 
HETATM   14  C   UNL     1      40.257 -16.443   1.926  1.00  0.00     0.003 A 
HETATM   15  C   UNL     1      41.548 -16.696   2.417  1.00  0.00     0.040 A 
HETATM   16  H   UNL     1      38.261 -12.095   3.981  1.00  0.00     0.162 HD
ENDROOT
BRANCH   5  17
HETATM   17  C   UNL     1      41.113 -10.673   1.713  1.00  0.00     0.233 C 
HETATM   18  N   UNL     1      40.962 -10.862   0.337  1.00  0.00    -0.326 N 
HETATM   19  H   UNL     1      40.789 -11.806   0.031  1.00  0.00     0.169 HD
HETATM   20  O   UNL     1      41.278  -9.602   2.278  1.00  0.00    -0.273 OA
BRANCH  18  21
HETATM   21  C   UNL     1      41.323  -9.978  -0.694  1.00  0.00     0.040 A 
HETATM   22  C   UNL     1      40.609 -10.051  -1.911  1.00  0.00    -0.035 A 
HETATM   23  C   UNL     1      39.552 -11.085  -2.211  1.00  0.00     0.050 C 
HETATM   24  C   UNL     1      41.000  -9.227  -2.977  1.00  0.00     0.015 A 
HETATM   25  C   UNL     1      42.057  -8.323  -2.845  1.00  0.00    -0.061 A 
HETATM   26  C   UNL     1      42.443  -7.449  -4.000  1.00  0.00     0.048 C 
HETATM   27  C   UNL     1      42.718  -8.227  -1.617  1.00  0.00     0.009 A 
HETATM   28  C   UNL     1      42.366  -9.062  -0.553  1.00  0.00     0.030 A 
ENDBRANCH  18  21
ENDBRANCH   5  17
BRANCH   8  29
HETATM   29  C   UNL     1      42.081 -10.153   5.398  1.00  0.00     0.130 C 
BRANCH  29  30
HETATM   30  C   UNL     1      42.301 -10.133   6.922  1.00  0.00     0.046 C 
BRANCH  30  31
HETATM   31  C   UNL     1      43.782 -10.163   7.287  1.00  0.00     0.168 C 
BRANCH  31  32
HETATM   32  O   UNL     1      44.361 -11.333   6.701  1.00  0.00    -0.396 OA
HETATM   33  C   UNL     1      45.771 -11.209   6.570  1.00  0.00     0.201 C 
ENDBRANCH  31  32
ENDBRANCH  30  31
ENDBRANCH  29  30
ENDBRANCH   8  29
BRANCH   1  34
HETATM   34  O   UNL     1      43.573 -15.966   3.407  1.00  0.00    -0.349 OA
BRANCH  34  35
HETATM   35  C   UNL     1      43.653 -17.102   4.284  1.00  0.00     0.171 C 
HETATM   36  C   UNL     1      44.027 -16.684   5.697  1.00  0.00     0.034 C 
ENDBRANCH  34  35
ENDBRANCH   1  34
TORSDOF 8
ENDMDL
MODEL 10
REMARK VINA RESULT:      -7.4      7.639     11.597
REMARK  8 active torsions:
REMARK  status: ('A' for Active; 'I' for Inactive)
REMARK    1  A    between atoms: C_2  and  O_3 
REMARK    2  A    between atoms: O_3  and  C_4 
REMARK    3  A    between atoms: C_8  and  C_9 
REMARK       I    between atoms: C_9  and  N_10 
REMARK    4  A    between atoms: N_10  and  C_11 
REMARK    5  A    between atoms: N_22  and  C_23 
REMARK    6  A    between atoms: C_23  and  C_24 
REMARK    7  A    between atoms: C_24  and  C_25 
REMARK    8  A    between atoms: C_25  and  O_26 
ROOT
HETATM    1  C   UNL     1      40.649  -2.762  10.557  1.00  0.00     0.102 A 
HETATM    2  C   UNL     1      40.981  -3.869  11.330  1.00  0.00     0.113 A 
HETATM    3  C   UNL     1      42.253  -3.914  11.982  1.00  0.00     0.002 A 
HETATM    4  C   UNL     1      42.561  -5.259  12.614  1.00  0.00     0.138 C 
HETATM    5  C   UNL     1      42.215  -6.188  11.448  1.00  0.00     0.161 C 
HETATM    6  C   UNL     1      40.707  -6.310  11.619  1.00  0.00     0.155 C 
HETATM    7  C   UNL     1      40.017  -7.024  10.436  1.00  0.00     0.072 C 
HETATM    8  N   UNL     1      40.426  -6.944  12.992  1.00  0.00    -0.325 N 
HETATM    9  C   UNL     1      41.171  -6.546  14.130  1.00  0.00     0.172 C 
HETATM   10  S   UNL     1      40.733  -6.604  15.744  1.00  0.00    -0.041 SA
HETATM   11  N   UNL     1      42.403  -5.952  13.860  1.00  0.00    -0.357 N 
HETATM   12  O   UNL     1      40.102  -4.944  11.501  1.00  0.00    -0.316 OA
HETATM   13  C   UNL     1      43.126  -2.833  11.936  1.00  0.00     0.012 A 
HETATM   14  C   UNL     1      42.736  -1.696  11.227  1.00  0.00     0.003 A 
HETATM   15  C   UNL     1      41.512  -1.662  10.541  1.00  0.00     0.040 A 
HETATM   16  H   UNL     1      42.874  -5.595  14.676  1.00  0.00     0.162 HD
ENDROOT
BRANCH   5  17
HETATM   17  C   UNL     1      42.923  -7.530  11.277  1.00  0.00     0.233 C 
HETATM   18  N   UNL     1      43.631  -7.512  10.072  1.00  0.00    -0.326 N 
HETATM   19  H   UNL     1      43.693  -6.623   9.603  1.00  0.00     0.169 HD
HETATM   20  O   UNL     1      42.780  -8.495  12.013  1.00  0.00    -0.273 OA
BRANCH  18  21
HETATM   21  C   UNL     1      43.997  -8.611   9.277  1.00  0.00     0.040 A 
HETATM   22  C   UNL     1      43.240  -8.869   8.113  1.00  0.00    -0.035 A 
HETATM   23  C   UNL     1      41.999  -8.103   7.723  1.00  0.00     0.050 C 
HETATM   24  C   UNL     1      43.543 -10.003   7.343  1.00  0.00     0.015 A 
HETATM   25  C   UNL     1      44.594 -10.855   7.692  1.00  0.00    -0.061 A 
HETATM   26  C   UNL     1      44.899 -12.052   6.843  1.00  0.00     0.048 C 
HETATM   27  C   UNL     1      45.367 -10.555   8.817  1.00  0.00     0.009 A 
HETATM   28  C   UNL     1      45.059  -9.450   9.616  1.00  0.00     0.030 A 
ENDBRANCH  18  21
ENDBRANCH   5  17
BRANCH   8  29
HETATM   29  C   UNL     1      39.545  -8.146  13.008  1.00  0.00     0.130 C 
BRANCH  29  30
HETATM   30  C   UNL     1      40.092  -9.537  13.375  1.00  0.00     0.046 C 
BRANCH  30  31
HETATM   31  C   UNL     1      39.465 -10.640  12.526  1.00  0.00     0.168 C 
BRANCH  31  32
HETATM   32  O   UNL     1      39.120 -11.726  13.392  1.00  0.00    -0.396 OA
HETATM   33  C   UNL     1      38.300 -12.681  12.732  1.00  0.00     0.201 C 
ENDBRANCH  31  32
ENDBRANCH  30  31
ENDBRANCH  29  30
ENDBRANCH   8  29
BRANCH   1  34
HETATM   34  O   UNL     1      39.535  -2.716   9.767  1.00  0.00    -0.349 OA
BRANCH  34  35
HETATM   35  C   UNL     1      38.659  -1.649  10.168  1.00  0.00     0.171 C 
HETATM   36  C   UNL     1      37.791  -2.061  11.348  1.00  0.00     0.034 C 
ENDBRANCH  34  35
ENDBRANCH   1  34
TORSDOF 8
ENDMDL
