MODEL 1
REMARK VINA RESULT:      -7.6      0.000      0.000
REMARK  6 active torsions:
REMARK  status: ('A' for Active; 'I' for Inactive)
REMARK    1  A    between atoms: C_3  and  N_4 
REMARK    2  A    between atoms: N_4  and  C_5 
REMARK    3  A    between atoms: C_5  and  C_6 
REMARK    4  A    between atoms: N_8  and  C_10 
REMARK    5  A    between atoms: C_10  and  C_11 
REMARK    6  A    between atoms: C_12  and  O_13 
ROOT
HETATM    1  C   UNL     1      43.582 -15.801   6.474  1.00  0.00     0.031 C 
HETATM    2  C   UNL     1      43.007 -15.221   5.182  1.00  0.00     0.241 C 
HETATM    3  N   UNL     1      41.512 -15.245   5.360  1.00  0.00    -0.067 N 
HETATM    4  H   UNL     1      41.164 -14.281   5.186  1.00  0.00     0.280 HD
HETATM    5  C   UNL     1      41.199 -15.578   6.795  1.00  0.00     0.235 C 
HETATM    6  C   UNL     1      42.529 -15.400   7.508  1.00  0.00     0.035 C 
ENDROOT
BRANCH   3   7
HETATM    7  C   UNL     1      40.754 -16.051   4.336  1.00  0.00     0.276 C 
BRANCH   7   8
HETATM    8  C   UNL     1      40.465 -15.292   3.072  1.00  0.00     0.002 A 
HETATM    9  C   UNL     1      39.888 -14.015   3.122  1.00  0.00     0.091 A 
HETATM   10  C   UNL     1      39.667 -13.280   1.954  1.00  0.00     0.044 A 
HETATM   11 BR   UNL     1      38.896 -11.554   2.032  1.00  0.00    -0.048 Br
HETATM   12  C   UNL     1      40.013 -13.819   0.718  1.00  0.00     0.022 A 
HETATM   13  C   UNL     1      40.584 -15.091   0.653  1.00  0.00     0.002 A 
HETATM   14  C   UNL     1      40.814 -15.823   1.822  1.00  0.00     0.012 A 
BRANCH   9  15
HETATM   15  O   UNL     1      39.535 -13.526   4.357  1.00  0.00    -0.359 OA
HETATM   16  H   UNL     1      39.569 -12.545   4.283  1.00  0.00     0.218 HD
ENDBRANCH   9  15
ENDBRANCH   7   8
ENDBRANCH   3   7
BRANCH   1  17
HETATM   17  C   UNL     1      43.824 -17.323   6.429  1.00  0.00     0.127 C 
BRANCH  17  18
HETATM   18  N   UNL     1      44.519 -17.679   5.196  1.00  0.00    -0.376 N 
HETATM   19  H   UNL     1      44.917 -16.865   4.718  1.00  0.00     0.161 HD
BRANCH  18  20
HETATM   20  C   UNL     1      44.078 -18.590   4.239  1.00  0.00     0.100 A 
HETATM   21  C   UNL     1      43.546 -18.095   3.036  1.00  0.00     0.048 A 
HETATM   22  C   UNL     1      43.131 -18.967   2.031  1.00  0.00     0.005 A 
HETATM   23  C   UNL     1      43.261 -20.333   2.222  1.00  0.00     0.017 A 
HETATM   24  C   UNL     1      43.814 -20.791   3.407  1.00  0.00     0.089 A 
HETATM   25  N   UNL     1      44.207 -19.922   4.355  1.00  0.00    -0.353 N 
HETATM   26  H   UNL     1      44.621 -20.311   5.194  1.00  0.00     0.166 HD
ENDBRANCH  18  20
ENDBRANCH  17  18
ENDBRANCH   1  17
TORSDOF 6
ENDMDL
MODEL 2
REMARK VINA RESULT:      -7.3      3.811      5.206
REMARK  6 active torsions:
REMARK  status: ('A' for Active; 'I' for Inactive)
REMARK    1  A    between atoms: C_3  and  N_4 
REMARK    2  A    between atoms: N_4  and  C_5 
REMARK    3  A    between atoms: C_5  and  C_6 
REMARK    4  A    between atoms: N_8  and  C_10 
REMARK    5  A    between atoms: C_10  and  C_11 
REMARK    6  A    between atoms: C_12  and  O_13 
ROOT
HETATM    1  C   UNL     1      42.726 -15.741   6.562  1.00  0.00     0.031 C 
HETATM    2  C   UNL     1      43.278 -14.460   7.186  1.00  0.00     0.241 C 
HETATM    3  N   UNL     1      42.342 -13.364   6.752  1.00  0.00    -0.067 N 
HETATM    4  H   UNL     1      42.019 -12.875   7.610  1.00  0.00     0.280 HD
HETATM    5  C   UNL     1      41.129 -13.986   6.113  1.00  0.00     0.235 C 
HETATM    6  C   UNL     1      41.225 -15.452   6.501  1.00  0.00     0.035 C 
ENDROOT
BRANCH   3   7
HETATM    7  C   UNL     1      42.978 -12.247   5.964  1.00  0.00     0.276 C 
BRANCH   7   8
HETATM    8  C   UNL     1      43.960 -11.437   6.761  1.00  0.00     0.002 A 
HETATM    9  C   UNL     1      43.521 -10.594   7.793  1.00  0.00     0.091 A 
HETATM   10  C   UNL     1      44.433  -9.879   8.575  1.00  0.00     0.044 A 
HETATM   11 BR   UNL     1      43.831  -8.751   9.969  1.00  0.00    -0.048 Br
HETATM   12  C   UNL     1      45.798  -9.994   8.329  1.00  0.00     0.022 A 
HETATM   13  C   UNL     1      46.250 -10.825   7.302  1.00  0.00     0.002 A 
HETATM   14  C   UNL     1      45.338 -11.547   6.525  1.00  0.00     0.012 A 
BRANCH   9  15
HETATM   15  O   UNL     1      42.166 -10.486   7.989  1.00  0.00    -0.359 OA
HETATM   16  H   UNL     1      41.768 -11.304   7.614  1.00  0.00     0.218 HD
ENDBRANCH   9  15
ENDBRANCH   7   8
ENDBRANCH   3   7
BRANCH   1  17
HETATM   17  C   UNL     1      43.323 -16.079   5.182  1.00  0.00     0.127 C 
BRANCH  17  18
HETATM   18  N   UNL     1      44.082 -17.324   5.262  1.00  0.00    -0.376 N 
HETATM   19  H   UNL     1      45.084 -17.167   5.405  1.00  0.00     0.161 HD
BRANCH  18  20
HETATM   20  C   UNL     1      43.913 -18.442   4.448  1.00  0.00     0.100 A 
HETATM   21  C   UNL     1      43.636 -18.244   3.085  1.00  0.00     0.048 A 
HETATM   22  C   UNL     1      43.501 -19.330   2.223  1.00  0.00     0.005 A 
HETATM   23  C   UNL     1      43.658 -20.614   2.719  1.00  0.00     0.017 A 
HETATM   24  C   UNL     1      43.957 -20.778   4.063  1.00  0.00     0.089 A 
HETATM   25  N   UNL     1      44.084 -19.707   4.867  1.00  0.00    -0.353 N 
HETATM   26  H   UNL     1      44.322 -19.884   5.836  1.00  0.00     0.166 HD
ENDBRANCH  18  20
ENDBRANCH  17  18
ENDBRANCH   1  17
TORSDOF 6
ENDMDL
MODEL 3
REMARK VINA RESULT:      -7.1      2.231      3.289
REMARK  6 active torsions:
REMARK  status: ('A' for Active; 'I' for Inactive)
REMARK    1  A    between atoms: C_3  and  N_4 
REMARK    2  A    between atoms: N_4  and  C_5 
REMARK    3  A    between atoms: C_5  and  C_6 
REMARK    4  A    between atoms: N_8  and  C_10 
REMARK    5  A    between atoms: C_10  and  C_11 
REMARK    6  A    between atoms: C_12  and  O_13 
ROOT
HETATM    1  C   UNL     1      41.868 -15.079   3.652  1.00  0.00     0.031 C 
HETATM    2  C   UNL     1      41.437 -13.849   2.854  1.00  0.00     0.241 C 
HETATM    3  N   UNL     1      40.466 -14.357   1.822  1.00  0.00    -0.067 N 
HETATM    4  H   UNL     1      39.593 -13.802   1.918  1.00  0.00     0.280 HD
HETATM    5  C   UNL     1      40.119 -15.787   2.145  1.00  0.00     0.235 C 
HETATM    6  C   UNL     1      40.631 -15.974   3.563  1.00  0.00     0.035 C 
ENDROOT
BRANCH   3   7
HETATM    7  C   UNL     1      40.856 -14.102   0.388  1.00  0.00     0.276 C 
BRANCH   7   8
HETATM    8  C   UNL     1      39.703 -13.681  -0.478  1.00  0.00     0.002 A 
HETATM    9  C   UNL     1      39.022 -12.480  -0.228  1.00  0.00     0.091 A 
HETATM   10  C   UNL     1      37.985 -12.054  -1.062  1.00  0.00     0.044 A 
HETATM   11 BR   UNL     1      37.079 -10.429  -0.721  1.00  0.00    -0.048 Br
HETATM   12  C   UNL     1      37.610 -12.830  -2.155  1.00  0.00     0.022 A 
HETATM   13  C   UNL     1      38.276 -14.030  -2.415  1.00  0.00     0.002 A 
HETATM   14  C   UNL     1      39.319 -14.452  -1.585  1.00  0.00     0.012 A 
BRANCH   9  15
HETATM   15  O   UNL     1      39.402 -11.754   0.875  1.00  0.00    -0.359 OA
HETATM   16  H   UNL     1      39.504 -10.824   0.569  1.00  0.00     0.218 HD
ENDBRANCH   9  15
ENDBRANCH   7   8
ENDBRANCH   3   7
BRANCH   1  17
HETATM   17  C   UNL     1      43.140 -15.766   3.115  1.00  0.00     0.127 C 
BRANCH  17  18
HETATM   18  N   UNL     1      43.591 -16.780   4.062  1.00  0.00    -0.376 N 
HETATM   19  H   UNL     1      44.433 -16.498   4.572  1.00  0.00     0.161 HD
BRANCH  18  20
HETATM   20  C   UNL     1      43.646 -18.153   3.830  1.00  0.00     0.100 A 
HETATM   21  C   UNL     1      43.319 -18.631   2.550  1.00  0.00     0.048 A 
HETATM   22  C   UNL     1      43.399 -19.991   2.258  1.00  0.00     0.005 A 
HETATM   23  C   UNL     1      43.820 -20.872   3.240  1.00  0.00     0.017 A 
HETATM   24  C   UNL     1      44.162 -20.369   4.485  1.00  0.00     0.089 A 
HETATM   25  N   UNL     1      44.076 -19.050   4.733  1.00  0.00    -0.353 N 
HETATM   26  H   UNL     1      44.356 -18.735   5.654  1.00  0.00     0.166 HD
ENDBRANCH  18  20
ENDBRANCH  17  18
ENDBRANCH   1  17
TORSDOF 6
ENDMDL
MODEL 4
REMARK VINA RESULT:      -6.9      2.447      3.166
REMARK  6 active torsions:
REMARK  status: ('A' for Active; 'I' for Inactive)
REMARK    1  A    between atoms: C_3  and  N_4 
REMARK    2  A    between atoms: N_4  and  C_5 
REMARK    3  A    between atoms: C_5  and  C_6 
REMARK    4  A    between atoms: N_8  and  C_10 
REMARK    5  A    between atoms: C_10  and  C_11 
REMARK    6  A    between atoms: C_12  and  O_13 
ROOT
HETATM    1  C   UNL     1      42.841 -14.491   4.301  1.00  0.00     0.031 C 
HETATM    2  C   UNL     1      42.749 -14.115   2.822  1.00  0.00     0.241 C 
HETATM    3  N   UNL     1      41.303 -13.775   2.582  1.00  0.00    -0.067 N 
HETATM    4  H   UNL     1      41.274 -12.825   2.161  1.00  0.00     0.280 HD
HETATM    5  C   UNL     1      40.596 -13.692   3.909  1.00  0.00     0.235 C 
HETATM    6  C   UNL     1      41.729 -13.646   4.922  1.00  0.00     0.035 C 
ENDROOT
BRANCH   3   7
HETATM    7  C   UNL     1      40.608 -14.612   1.539  1.00  0.00     0.276 C 
BRANCH   7   8
HETATM    8  C   UNL     1      40.432 -13.905   0.225  1.00  0.00     0.002 A 
HETATM    9  C   UNL     1      39.634 -14.462  -0.785  1.00  0.00     0.091 A 
HETATM   10  C   UNL     1      39.421 -13.785  -1.989  1.00  0.00     0.044 A 
HETATM   11 BR   UNL     1      38.335 -14.540  -3.341  1.00  0.00    -0.048 Br
HETATM   12  C   UNL     1      40.013 -12.543  -2.201  1.00  0.00     0.022 A 
HETATM   13  C   UNL     1      40.814 -11.978  -1.207  1.00  0.00     0.002 A 
HETATM   14  C   UNL     1      41.020 -12.652   0.001  1.00  0.00     0.012 A 
BRANCH   9  15
HETATM   15  O   UNL     1      39.087 -15.701  -0.551  1.00  0.00    -0.359 OA
HETATM   16  H   UNL     1      38.117 -15.602  -0.686  1.00  0.00     0.218 HD
ENDBRANCH   9  15
ENDBRANCH   7   8
ENDBRANCH   3   7
BRANCH   1  17
HETATM   17  C   UNL     1      42.670 -15.998   4.580  1.00  0.00     0.127 C 
BRANCH  17  18
HETATM   18  N   UNL     1      43.514 -16.769   3.673  1.00  0.00    -0.376 N 
HETATM   19  H   UNL     1      43.510 -16.398   2.718  1.00  0.00     0.161 HD
BRANCH  18  20
HETATM   20  C   UNL     1      43.602 -18.158   3.615  1.00  0.00     0.100 A 
HETATM   21  C   UNL     1      43.268 -18.803   2.412  1.00  0.00     0.048 A 
HETATM   22  C   UNL     1      43.380 -20.186   2.292  1.00  0.00     0.005 A 
HETATM   23  C   UNL     1      43.841 -20.925   3.370  1.00  0.00     0.017 A 
HETATM   24  C   UNL     1      44.190 -20.260   4.535  1.00  0.00     0.089 A 
HETATM   25  N   UNL     1      44.072 -18.923   4.616  1.00  0.00    -0.353 N 
HETATM   26  H   UNL     1      44.358 -18.486   5.484  1.00  0.00     0.166 HD
ENDBRANCH  18  20
ENDBRANCH  17  18
ENDBRANCH   1  17
TORSDOF 6
ENDMDL
MODEL 5
REMARK VINA RESULT:      -6.9      4.032      6.819
REMARK  6 active torsions:
REMARK  status: ('A' for Active; 'I' for Inactive)
REMARK    1  A    between atoms: C_3  and  N_4 
REMARK    2  A    between atoms: N_4  and  C_5 
REMARK    3  A    between atoms: C_5  and  C_6 
REMARK    4  A    between atoms: N_8  and  C_10 
REMARK    5  A    between atoms: C_10  and  C_11 
REMARK    6  A    between atoms: C_12  and  O_13 
ROOT
HETATM    1  C   UNL     1      40.744 -13.392   5.200  1.00  0.00     0.031 C 
HETATM    2  C   UNL     1      41.074 -14.346   4.053  1.00  0.00     0.241 C 
HETATM    3  N   UNL     1      41.783 -15.512   4.688  1.00  0.00    -0.067 N 
HETATM    4  H   UNL     1      41.277 -16.374   4.404  1.00  0.00     0.280 HD
HETATM    5  C   UNL     1      41.658 -15.398   6.185  1.00  0.00     0.235 C 
HETATM    6  C   UNL     1      40.577 -14.349   6.381  1.00  0.00     0.035 C 
ENDROOT
BRANCH   3   7
HETATM    7  C   UNL     1      43.178 -15.773   4.181  1.00  0.00     0.276 C 
BRANCH   7   8
HETATM    8  C   UNL     1      43.382 -17.177   3.688  1.00  0.00     0.002 A 
HETATM    9  C   UNL     1      43.753 -18.199   4.573  1.00  0.00     0.091 A 
HETATM   10  C   UNL     1      43.891 -19.518   4.133  1.00  0.00     0.044 A 
HETATM   11 BR   UNL     1      44.385 -20.890   5.337  1.00  0.00    -0.048 Br
HETATM   12  C   UNL     1      43.665 -19.830   2.795  1.00  0.00     0.022 A 
HETATM   13  C   UNL     1      43.299 -18.823   1.901  1.00  0.00     0.002 A 
HETATM   14  C   UNL     1      43.153 -17.504   2.343  1.00  0.00     0.012 A 
BRANCH   9  15
HETATM   15  O   UNL     1      43.994 -17.849   5.880  1.00  0.00    -0.359 OA
HETATM   16  H   UNL     1      43.239 -17.280   6.154  1.00  0.00     0.218 HD
ENDBRANCH   9  15
ENDBRANCH   7   8
ENDBRANCH   3   7
BRANCH   1  17
HETATM   17  C   UNL     1      41.819 -12.315   5.454  1.00  0.00     0.127 C 
BRANCH  17  18
HETATM   18  N   UNL     1      42.540 -12.616   6.686  1.00  0.00    -0.376 N 
HETATM   19  H   UNL     1      41.915 -12.854   7.462  1.00  0.00     0.161 HD
BRANCH  18  20
HETATM   20  C   UNL     1      43.634 -11.915   7.189  1.00  0.00     0.100 A 
HETATM   21  C   UNL     1      44.818 -11.885   6.432  1.00  0.00     0.048 A 
HETATM   22  C   UNL     1      45.925 -11.163   6.873  1.00  0.00     0.005 A 
HETATM   23  C   UNL     1      45.844 -10.458   8.063  1.00  0.00     0.017 A 
HETATM   24  C   UNL     1      44.655 -10.484   8.775  1.00  0.00     0.089 A 
HETATM   25  N   UNL     1      43.605 -11.189   8.319  1.00  0.00    -0.353 N 
HETATM   26  H   UNL     1      42.755 -11.158   8.869  1.00  0.00     0.166 HD
ENDBRANCH  18  20
ENDBRANCH  17  18
ENDBRANCH   1  17
TORSDOF 6
ENDMDL
MODEL 6
REMARK VINA RESULT:      -6.8      3.117      6.060
REMARK  6 active torsions:
REMARK  status: ('A' for Active; 'I' for Inactive)
REMARK    1  A    between atoms: C_3  and  N_4 
REMARK    2  A    between atoms: N_4  and  C_5 
REMARK    3  A    between atoms: C_5  and  C_6 
REMARK    4  A    between atoms: N_8  and  C_10 
REMARK    5  A    between atoms: C_10  and  C_11 
REMARK    6  A    between atoms: C_12  and  O_13 
ROOT
HETATM    1  C   UNL     1      40.539 -12.828   5.562  1.00  0.00     0.031 C 
HETATM    2  C   UNL     1      40.946 -14.301   5.545  1.00  0.00     0.241 C 
HETATM    3  N   UNL     1      42.415 -14.310   5.215  1.00  0.00    -0.067 N 
HETATM    4  H   UNL     1      42.897 -14.852   5.959  1.00  0.00     0.280 HD
HETATM    5  C   UNL     1      42.937 -12.899   5.287  1.00  0.00     0.235 C 
HETATM    6  C   UNL     1      41.832 -12.138   6.000  1.00  0.00     0.035 C 
ENDROOT
BRANCH   3   7
HETATM    7  C   UNL     1      42.791 -15.067   3.967  1.00  0.00     0.276 C 
BRANCH   7   8
HETATM    8  C   UNL     1      43.207 -16.487   4.233  1.00  0.00     0.002 A 
HETATM    9  C   UNL     1      43.199 -17.438   3.203  1.00  0.00     0.091 A 
HETATM   10  C   UNL     1      43.636 -18.746   3.428  1.00  0.00     0.044 A 
HETATM   11 BR   UNL     1      43.629 -20.020   2.030  1.00  0.00    -0.048 Br
HETATM   12  C   UNL     1      44.081 -19.121   4.693  1.00  0.00     0.022 A 
HETATM   13  C   UNL     1      44.091 -18.186   5.729  1.00  0.00     0.002 A 
HETATM   14  C   UNL     1      43.662 -16.875   5.501  1.00  0.00     0.012 A 
BRANCH   9  15
HETATM   15  O   UNL     1      42.728 -17.039   1.975  1.00  0.00    -0.359 OA
HETATM   16  H   UNL     1      43.506 -16.690   1.484  1.00  0.00     0.218 HD
ENDBRANCH   9  15
ENDBRANCH   7   8
ENDBRANCH   3   7
BRANCH   1  17
HETATM   17  C   UNL     1      40.013 -12.303   4.211  1.00  0.00     0.127 C 
BRANCH  17  18
HETATM   18  N   UNL     1      39.335 -13.378   3.493  1.00  0.00    -0.376 N 
HETATM   19  H   UNL     1      39.264 -14.239   4.044  1.00  0.00     0.161 HD
BRANCH  18  20
HETATM   20  C   UNL     1      39.522 -13.716   2.154  1.00  0.00     0.100 A 
HETATM   21  C   UNL     1      39.849 -15.045   1.836  1.00  0.00     0.048 A 
HETATM   22  C   UNL     1      40.005 -15.440   0.509  1.00  0.00     0.005 A 
HETATM   23  C   UNL     1      39.818 -14.512  -0.502  1.00  0.00     0.017 A 
HETATM   24  C   UNL     1      39.468 -13.215  -0.160  1.00  0.00     0.089 A 
HETATM   25  N   UNL     1      39.324 -12.867   1.131  1.00  0.00    -0.353 N 
HETATM   26  H   UNL     1      39.050 -11.911   1.323  1.00  0.00     0.166 HD
ENDBRANCH  18  20
ENDBRANCH  17  18
ENDBRANCH   1  17
TORSDOF 6
ENDMDL
MODEL 7
REMARK VINA RESULT:      -6.7      2.725      3.528
REMARK  6 active torsions:
REMARK  status: ('A' for Active; 'I' for Inactive)
REMARK    1  A    between atoms: C_3  and  N_4 
REMARK    2  A    between atoms: N_4  and  C_5 
REMARK    3  A    between atoms: C_5  and  C_6 
REMARK    4  A    between atoms: N_8  and  C_10 
REMARK    5  A    between atoms: C_10  and  C_11 
REMARK    6  A    between atoms: C_12  and  O_13 
ROOT
HETATM    1  C   UNL     1      41.805 -16.447   4.959  1.00  0.00     0.031 C 
HETATM    2  C   UNL     1      40.904 -15.691   5.935  1.00  0.00     0.241 C 
HETATM    3  N   UNL     1      40.191 -14.656   5.106  1.00  0.00    -0.067 N 
HETATM    4  H   UNL     1      39.171 -14.779   5.268  1.00  0.00     0.280 HD
HETATM    5  C   UNL     1      40.446 -14.940   3.650  1.00  0.00     0.235 C 
HETATM    6  C   UNL     1      41.022 -16.345   3.649  1.00  0.00     0.035 C 
ENDROOT
BRANCH   3   7
HETATM    7  C   UNL     1      40.415 -13.226   5.528  1.00  0.00     0.276 C 
BRANCH   7   8
HETATM    8  C   UNL     1      41.664 -12.622   4.953  1.00  0.00     0.002 A 
HETATM    9  C   UNL     1      42.771 -12.354   5.771  1.00  0.00     0.091 A 
HETATM   10  C   UNL     1      43.956 -11.843   5.235  1.00  0.00     0.044 A 
HETATM   11 BR   UNL     1      45.445 -11.492   6.346  1.00  0.00    -0.048 Br
HETATM   12  C   UNL     1      44.046 -11.587   3.869  1.00  0.00     0.022 A 
HETATM   13  C   UNL     1      42.951 -11.845   3.042  1.00  0.00     0.002 A 
HETATM   14  C   UNL     1      41.768 -12.364   3.578  1.00  0.00     0.012 A 
BRANCH   9  15
HETATM   15  O   UNL     1      42.636 -12.594   7.118  1.00  0.00    -0.359 OA
HETATM   16  H   UNL     1      43.020 -11.812   7.575  1.00  0.00     0.218 HD
ENDBRANCH   9  15
ENDBRANCH   7   8
ENDBRANCH   3   7
BRANCH   1  17
HETATM   17  C   UNL     1      43.232 -15.875   4.845  1.00  0.00     0.127 C 
BRANCH  17  18
HETATM   18  N   UNL     1      44.207 -16.958   4.928  1.00  0.00    -0.376 N 
HETATM   19  H   UNL     1      45.160 -16.649   4.713  1.00  0.00     0.161 HD
BRANCH  18  20
HETATM   20  C   UNL     1      44.036 -18.255   4.450  1.00  0.00     0.100 A 
HETATM   21  C   UNL     1      43.910 -18.447   3.063  1.00  0.00     0.048 A 
HETATM   22  C   UNL     1      43.779 -19.730   2.534  1.00  0.00     0.005 A 
HETATM   23  C   UNL     1      43.790 -20.821   3.387  1.00  0.00     0.017 A 
HETATM   24  C   UNL     1      43.944 -20.602   4.747  1.00  0.00     0.089 A 
HETATM   25  N   UNL     1      44.070 -19.351   5.225  1.00  0.00    -0.353 N 
HETATM   26  H   UNL     1      44.198 -19.250   6.225  1.00  0.00     0.166 HD
ENDBRANCH  18  20
ENDBRANCH  17  18
ENDBRANCH   1  17
TORSDOF 6
ENDMDL
MODEL 8
REMARK VINA RESULT:      -6.7      3.831      7.052
REMARK  6 active torsions:
REMARK  status: ('A' for Active; 'I' for Inactive)
REMARK    1  A    between atoms: C_3  and  N_4 
REMARK    2  A    between atoms: N_4  and  C_5 
REMARK    3  A    between atoms: C_5  and  C_6 
REMARK    4  A    between atoms: N_8  and  C_10 
REMARK    5  A    between atoms: C_10  and  C_11 
REMARK    6  A    between atoms: C_12  and  O_13 
ROOT
HETATM    1  C   UNL     1      40.136 -14.728   2.885  1.00  0.00     0.031 C 
HETATM    2  C   UNL     1      40.809 -16.078   3.132  1.00  0.00     0.241 C 
HETATM    3  N   UNL     1      42.022 -15.777   3.970  1.00  0.00    -0.067 N 
HETATM    4  H   UNL     1      41.969 -16.376   4.818  1.00  0.00     0.280 HD
HETATM    5  C   UNL     1      41.948 -14.346   4.434  1.00  0.00     0.235 C 
HETATM    6  C   UNL     1      40.513 -13.942   4.141  1.00  0.00     0.035 C 
ENDROOT
BRANCH   3   7
HETATM    7  C   UNL     1      43.341 -16.187   3.367  1.00  0.00     0.276 C 
BRANCH   7   8
HETATM    8  C   UNL     1      43.486 -17.673   3.199  1.00  0.00     0.002 A 
HETATM    9  C   UNL     1      43.774 -18.491   4.300  1.00  0.00     0.091 A 
HETATM   10  C   UNL     1      43.856 -19.880   4.163  1.00  0.00     0.044 A 
HETATM   11 BR   UNL     1      44.238 -20.976   5.657  1.00  0.00    -0.048 Br
HETATM   12  C   UNL     1      43.658 -20.467   2.917  1.00  0.00     0.022 A 
HETATM   13  C   UNL     1      43.375 -19.664   1.810  1.00  0.00     0.002 A 
HETATM   14  C   UNL     1      43.284 -18.276   1.949  1.00  0.00     0.012 A 
BRANCH   9  15
HETATM   15  O   UNL     1      43.990 -17.875   5.510  1.00  0.00    -0.359 OA
HETATM   16  H   UNL     1      43.706 -16.940   5.394  1.00  0.00     0.218 HD
ENDBRANCH   9  15
ENDBRANCH   7   8
ENDBRANCH   3   7
BRANCH   1  17
HETATM   17  C   UNL     1      40.586 -14.027   1.587  1.00  0.00     0.127 C 
BRANCH  17  18
HETATM   18  N   UNL     1      39.761 -14.477   0.470  1.00  0.00    -0.376 N 
HETATM   19  H   UNL     1      39.909 -15.464   0.242  1.00  0.00     0.161 HD
BRANCH  18  20
HETATM   20  C   UNL     1      39.521 -13.774  -0.708  1.00  0.00     0.100 A 
HETATM   21  C   UNL     1      40.536 -12.942  -1.212  1.00  0.00     0.048 A 
HETATM   22  C   UNL     1      40.359 -12.252  -2.409  1.00  0.00     0.005 A 
HETATM   23  C   UNL     1      39.174 -12.403  -3.111  1.00  0.00     0.017 A 
HETATM   24  C   UNL     1      38.202 -13.251  -2.604  1.00  0.00     0.089 A 
HETATM   25  N   UNL     1      38.406 -13.905  -1.447  1.00  0.00    -0.353 N 
HETATM   26  H   UNL     1      37.670 -14.526  -1.132  1.00  0.00     0.166 HD
ENDBRANCH  18  20
ENDBRANCH  17  18
ENDBRANCH   1  17
TORSDOF 6
ENDMDL
MODEL 9
REMARK VINA RESULT:      -6.6      2.296      3.356
REMARK  6 active torsions:
REMARK  status: ('A' for Active; 'I' for Inactive)
REMARK    1  A    between atoms: C_3  and  N_4 
REMARK    2  A    between atoms: N_4  and  C_5 
REMARK    3  A    between atoms: C_5  and  C_6 
REMARK    4  A    between atoms: N_8  and  C_10 
REMARK    5  A    between atoms: C_10  and  C_11 
REMARK    6  A    between atoms: C_12  and  O_13 
ROOT
HETATM    1  C   UNL     1      41.842 -15.399   4.494  1.00  0.00     0.031 C 
HETATM    2  C   UNL     1      41.389 -13.957   4.263  1.00  0.00     0.241 C 
HETATM    3  N   UNL     1      40.547 -13.995   3.015  1.00  0.00    -0.067 N 
HETATM    4  H   UNL     1      39.630 -13.564   3.247  1.00  0.00     0.280 HD
HETATM    5  C   UNL     1      40.281 -15.432   2.651  1.00  0.00     0.235 C 
HETATM    6  C   UNL     1      40.687 -16.203   3.896  1.00  0.00     0.035 C 
ENDROOT
BRANCH   3   7
HETATM    7  C   UNL     1      41.034 -13.128   1.882  1.00  0.00     0.276 C 
BRANCH   7   8
HETATM    8  C   UNL     1      39.962 -12.788   0.887  1.00  0.00     0.002 A 
HETATM    9  C   UNL     1      39.917 -13.425  -0.362  1.00  0.00     0.091 A 
HETATM   10  C   UNL     1      38.891 -13.155  -1.271  1.00  0.00     0.044 A 
HETATM   11 BR   UNL     1      38.835 -14.026  -2.949  1.00  0.00    -0.048 Br
HETATM   12  C   UNL     1      37.899 -12.234  -0.945  1.00  0.00     0.022 A 
HETATM   13  C   UNL     1      37.933 -11.588   0.292  1.00  0.00     0.002 A 
HETATM   14  C   UNL     1      38.954 -11.865   1.206  1.00  0.00     0.012 A 
BRANCH   9  15
HETATM   15  O   UNL     1      40.927 -14.308  -0.659  1.00  0.00    -0.359 OA
HETATM   16  H   UNL     1      40.514 -15.201  -0.679  1.00  0.00     0.218 HD
ENDBRANCH   9  15
ENDBRANCH   7   8
ENDBRANCH   3   7
BRANCH   1  17
HETATM   17  C   UNL     1      43.201 -15.743   3.853  1.00  0.00     0.127 C 
BRANCH  17  18
HETATM   18  N   UNL     1      43.817 -16.858   4.566  1.00  0.00    -0.376 N 
HETATM   19  H   UNL     1      44.729 -16.615   4.966  1.00  0.00     0.161 HD
BRANCH  18  20
HETATM   20  C   UNL     1      43.850 -18.185   4.144  1.00  0.00     0.100 A 
HETATM   21  C   UNL     1      44.039 -19.191   5.108  1.00  0.00     0.048 A 
HETATM   22  C   UNL     1      44.037 -20.535   4.740  1.00  0.00     0.005 A 
HETATM   23  C   UNL     1      43.832 -20.875   3.413  1.00  0.00     0.017 A 
HETATM   24  C   UNL     1      43.621 -19.863   2.490  1.00  0.00     0.089 A 
HETATM   25  N   UNL     1      43.626 -18.576   2.879  1.00  0.00    -0.353 N 
HETATM   26  H   UNL     1      43.448 -17.878   2.166  1.00  0.00     0.166 HD
ENDBRANCH  18  20
ENDBRANCH  17  18
ENDBRANCH   1  17
TORSDOF 6
ENDMDL
MODEL 10
REMARK VINA RESULT:      -6.6      2.631      3.779
REMARK  6 active torsions:
REMARK  status: ('A' for Active; 'I' for Inactive)
REMARK    1  A    between atoms: C_3  and  N_4 
REMARK    2  A    between atoms: N_4  and  C_5 
REMARK    3  A    between atoms: C_5  and  C_6 
REMARK    4  A    between atoms: N_8  and  C_10 
REMARK    5  A    between atoms: C_10  and  C_11 
REMARK    6  A    between atoms: C_12  and  O_13 
ROOT
HETATM    1  C   UNL     1      41.407 -13.243   4.162  1.00  0.00     0.031 C 
HETATM    2  C   UNL     1      41.877 -12.881   2.754  1.00  0.00     0.241 C 
HETATM    3  N   UNL     1      40.702 -13.156   1.854  1.00  0.00    -0.067 N 
HETATM    4  H   UNL     1      40.513 -12.287   1.317  1.00  0.00     0.280 HD
HETATM    5  C   UNL     1      39.490 -13.423   2.706  1.00  0.00     0.235 C 
HETATM    6  C   UNL     1      39.907 -12.954   4.090  1.00  0.00     0.035 C 
ENDROOT
BRANCH   3   7
HETATM    7  C   UNL     1      40.950 -14.164   0.761  1.00  0.00     0.276 C 
BRANCH   7   8
HETATM    8  C   UNL     1      40.236 -13.843  -0.521  1.00  0.00     0.002 A 
HETATM    9  C   UNL     1      40.391 -12.591  -1.132  1.00  0.00     0.091 A 
HETATM   10  C   UNL     1      39.774 -12.303  -2.352  1.00  0.00     0.044 A 
HETATM   11 BR   UNL     1      39.996 -10.613  -3.171  1.00  0.00    -0.048 Br
HETATM   12  C   UNL     1      38.985 -13.267  -2.975  1.00  0.00     0.022 A 
HETATM   13  C   UNL     1      38.818 -14.517  -2.377  1.00  0.00     0.002 A 
HETATM   14  C   UNL     1      39.442 -14.808  -1.160  1.00  0.00     0.012 A 
BRANCH   9  15
HETATM   15  O   UNL     1      41.155 -11.656  -0.475  1.00  0.00    -0.359 OA
HETATM   16  H   UNL     1      41.364 -10.959  -1.138  1.00  0.00     0.218 HD
ENDBRANCH   9  15
ENDBRANCH   7   8
ENDBRANCH   3   7
BRANCH   1  17
HETATM   17  C   UNL     1      41.714 -14.696   4.576  1.00  0.00     0.127 C 
BRANCH  17  18
HETATM   18  N   UNL     1      42.802 -15.224   3.758  1.00  0.00    -0.376 N 
HETATM   19  H   UNL     1      42.852 -14.783   2.835  1.00  0.00     0.161 HD
BRANCH  18  20
HETATM   20  C   UNL     1      43.160 -16.565   3.636  1.00  0.00     0.100 A 
HETATM   21  C   UNL     1      42.794 -17.254   2.466  1.00  0.00     0.048 A 
HETATM   22  C   UNL     1      43.166 -18.583   2.280  1.00  0.00     0.005 A 
HETATM   23  C   UNL     1      43.917 -19.221   3.254  1.00  0.00     0.017 A 
HETATM   24  C   UNL     1      44.286 -18.509   4.384  1.00  0.00     0.089 A 
HETATM   25  N   UNL     1      43.913 -17.225   4.531  1.00  0.00    -0.353 N 
HETATM   26  H   UNL     1      44.226 -16.747   5.368  1.00  0.00     0.166 HD
ENDBRANCH  18  20
ENDBRANCH  17  18
ENDBRANCH   1  17
TORSDOF 6
ENDMDL
