MODEL 1
REMARK VINA RESULT:      -9.0      0.000      0.000
REMARK  7 active torsions:
REMARK  status: ('A' for Active; 'I' for Inactive)
REMARK    1  A    between atoms: C_5  and  C_6 
REMARK    2  A    between atoms: C_9  and  C_10 
REMARK       I    between atoms: C_10  and  N_11 
REMARK    3  A    between atoms: N_11  and  N_12 
REMARK       I    between atoms: N_12  and  C_13 
REMARK    4  A    between atoms: C_13  and  C_14 
REMARK    5  A    between atoms: C_14  and  N_15 
REMARK    6  A    between atoms: N_15  and  C_16 
REMARK    7  A    between atoms: C_18  and  O_19 
ROOT
HETATM    1  C   UNL     1      42.540 -12.306   6.085  1.00  0.00     0.289 C 
HETATM    2  N   UNL     1      43.460 -12.518   7.096  1.00  0.00    -0.262 N 
HETATM    3  O   UNL     1      41.638 -11.475   6.165  1.00  0.00    -0.264 OA
HETATM    4  H   UNL     1      44.313 -13.031   6.873  1.00  0.00     0.190 HD
ENDROOT
BRANCH   2   5
HETATM    5  N   UNL     1      43.504 -11.594   8.153  1.00  0.00    -0.266 N 
HETATM    6  C   UNL     1      44.656 -10.839   8.298  1.00  0.00     0.253 C 
HETATM    7  O   UNL     1      45.711 -11.098   7.716  1.00  0.00    -0.270 OA
HETATM    8  H   UNL     1      42.602 -11.196   8.410  1.00  0.00     0.190 HD
BRANCH   6   9
HETATM    9  C   UNL     1      44.518  -9.670   9.282  1.00  0.00     0.224 C 
BRANCH   9  10
HETATM   10  N   UNL     1      43.141  -9.611   9.771  1.00  0.00    -0.381 N 
HETATM   11  H   UNL     1      42.580 -10.380   9.397  1.00  0.00     0.160 HD
BRANCH  10  12
HETATM   12  C   UNL     1      42.873  -9.349  11.116  1.00  0.00     0.030 A 
HETATM   13  C   UNL     1      41.762  -9.977  11.705  1.00  0.00     0.065 A 
HETATM   14  C   UNL     1      41.375  -9.699  13.020  1.00  0.00     0.070 A 
HETATM   15  C   UNL     1      42.094  -8.758  13.756  1.00  0.00     0.037 A 
HETATM   16  C   UNL     1      43.176  -8.097  13.181  1.00  0.00     0.005 A 
HETATM   17  C   UNL     1      43.552  -8.382  11.865  1.00  0.00     0.029 A 
BRANCH  14  18
HETATM   18  O   UNL     1      40.321 -10.263  13.687  1.00  0.00    -0.356 OA
HETATM   19  C   UNL     1      39.274 -10.803  12.891  1.00  0.00     0.210 C 
ENDBRANCH  14  18
ENDBRANCH  10  12
ENDBRANCH   9  10
ENDBRANCH   6   9
ENDBRANCH   2   5
BRANCH   1  20
HETATM   20  C   UNL     1      42.746 -13.170   4.923  1.00  0.00     0.134 A 
HETATM   21  C   UNL     1      42.697 -12.725   3.619  1.00  0.00     0.089 A 
HETATM   22  S   UNL     1      42.953 -14.025   2.542  1.00  0.00    -0.079 SA
HETATM   23  C   UNL     1      43.087 -15.117   3.873  1.00  0.00     0.108 A 
HETATM   24  N   UNL     1      42.999 -14.537   5.058  1.00  0.00    -0.235 NA
BRANCH  23  25
HETATM   25  C   UNL     1      43.284 -16.569   3.676  1.00  0.00    -0.000 A 
HETATM   26  C   UNL     1      43.894 -17.402   4.627  1.00  0.00     0.015 A 
HETATM   27  C   UNL     1      44.084 -18.768   4.380  1.00  0.00     0.007 A 
HETATM   28  C   UNL     1      43.678 -19.334   3.170  1.00  0.00    -0.062 A 
HETATM   29  C   UNL     1      43.873 -20.796   2.898  1.00  0.00     0.048 C 
HETATM   30  C   UNL     1      43.060 -18.519   2.218  1.00  0.00     0.007 A 
HETATM   31  C   UNL     1      42.872 -17.155   2.467  1.00  0.00     0.015 A 
ENDBRANCH  23  25
ENDBRANCH   1  20
TORSDOF 7
ENDMDL
MODEL 2
REMARK VINA RESULT:      -8.3      1.629      2.251
REMARK  7 active torsions:
REMARK  status: ('A' for Active; 'I' for Inactive)
REMARK    1  A    between atoms: C_5  and  C_6 
REMARK    2  A    between atoms: C_9  and  C_10 
REMARK       I    between atoms: C_10  and  N_11 
REMARK    3  A    between atoms: N_11  and  N_12 
REMARK       I    between atoms: N_12  and  C_13 
REMARK    4  A    between atoms: C_13  and  C_14 
REMARK    5  A    between atoms: C_14  and  N_15 
REMARK    6  A    between atoms: N_15  and  C_16 
REMARK    7  A    between atoms: C_18  and  O_19 
ROOT
HETATM    1  C   UNL     1      43.823 -12.390   6.602  1.00  0.00     0.289 C 
HETATM    2  N   UNL     1      43.195 -11.771   7.668  1.00  0.00    -0.262 N 
HETATM    3  O   UNL     1      44.942 -12.071   6.208  1.00  0.00    -0.264 OA
HETATM    4  H   UNL     1      42.394 -12.237   8.094  1.00  0.00     0.190 HD
ENDROOT
BRANCH   2   5
HETATM    5  N   UNL     1      43.957 -10.905   8.469  1.00  0.00    -0.266 N 
HETATM    6  C   UNL     1      43.417  -9.664   8.764  1.00  0.00     0.253 C 
HETATM    7  O   UNL     1      42.439  -9.196   8.179  1.00  0.00    -0.270 OA
HETATM    8  H   UNL     1      44.560 -11.368   9.146  1.00  0.00     0.190 HD
BRANCH   6   9
HETATM    9  C   UNL     1      44.170  -8.900   9.862  1.00  0.00     0.224 C 
BRANCH   9  10
HETATM   10  N   UNL     1      44.078  -9.645  11.117  1.00  0.00    -0.381 N 
HETATM   11  H   UNL     1      45.001  -9.803  11.526  1.00  0.00     0.160 HD
BRANCH  10  12
HETATM   12  C   UNL     1      43.113  -9.316  12.071  1.00  0.00     0.030 A 
HETATM   13  C   UNL     1      43.328  -8.178  12.867  1.00  0.00     0.065 A 
HETATM   14  C   UNL     1      42.455  -7.831  13.903  1.00  0.00     0.070 A 
HETATM   15  C   UNL     1      41.357  -8.648  14.169  1.00  0.00     0.037 A 
HETATM   16  C   UNL     1      41.144  -9.802  13.418  1.00  0.00     0.005 A 
HETATM   17  C   UNL     1      42.025 -10.138  12.386  1.00  0.00     0.029 A 
BRANCH  14  18
HETATM   18  O   UNL     1      42.568  -6.742  14.723  1.00  0.00    -0.356 OA
HETATM   19  C   UNL     1      41.696  -5.649  14.462  1.00  0.00     0.210 C 
ENDBRANCH  14  18
ENDBRANCH  10  12
ENDBRANCH   9  10
ENDBRANCH   6   9
ENDBRANCH   2   5
BRANCH   1  20
HETATM   20  C   UNL     1      43.021 -13.451   5.994  1.00  0.00     0.134 A 
HETATM   21  C   UNL     1      41.644 -13.502   6.052  1.00  0.00     0.089 A 
HETATM   22  S   UNL     1      41.071 -14.899   5.256  1.00  0.00    -0.079 SA
HETATM   23  C   UNL     1      42.692 -15.378   4.901  1.00  0.00     0.108 A 
HETATM   24  N   UNL     1      43.610 -14.516   5.307  1.00  0.00    -0.235 NA
BRANCH  23  25
HETATM   25  C   UNL     1      42.998 -16.645   4.203  1.00  0.00    -0.000 A 
HETATM   26  C   UNL     1      43.898 -17.601   4.699  1.00  0.00     0.015 A 
HETATM   27  C   UNL     1      44.177 -18.774   3.984  1.00  0.00     0.007 A 
HETATM   28  C   UNL     1      43.569 -19.015   2.750  1.00  0.00    -0.062 A 
HETATM   29  C   UNL     1      43.858 -20.269   1.980  1.00  0.00     0.048 C 
HETATM   30  C   UNL     1      42.663 -18.076   2.249  1.00  0.00     0.007 A 
HETATM   31  C   UNL     1      42.387 -16.906   2.965  1.00  0.00     0.015 A 
ENDBRANCH  23  25
ENDBRANCH   1  20
TORSDOF 7
ENDMDL
MODEL 3
REMARK VINA RESULT:      -8.3      1.929      2.325
REMARK  7 active torsions:
REMARK  status: ('A' for Active; 'I' for Inactive)
REMARK    1  A    between atoms: C_5  and  C_6 
REMARK    2  A    between atoms: C_9  and  C_10 
REMARK       I    between atoms: C_10  and  N_11 
REMARK    3  A    between atoms: N_11  and  N_12 
REMARK       I    between atoms: N_12  and  C_13 
REMARK    4  A    between atoms: C_13  and  C_14 
REMARK    5  A    between atoms: C_14  and  N_15 
REMARK    6  A    between atoms: N_15  and  C_16 
REMARK    7  A    between atoms: C_18  and  O_19 
ROOT
HETATM    1  C   UNL     1      40.929 -12.481   5.989  1.00  0.00     0.289 C 
HETATM    2  N   UNL     1      41.565 -11.365   6.503  1.00  0.00    -0.262 N 
HETATM    3  O   UNL     1      39.833 -12.870   6.387  1.00  0.00    -0.264 OA
HETATM    4  H   UNL     1      42.336 -10.961   5.971  1.00  0.00     0.190 HD
ENDROOT
BRANCH   2   5
HETATM    5  N   UNL     1      40.829 -10.518   7.347  1.00  0.00    -0.266 N 
HETATM    6  C   UNL     1      41.452  -9.366   7.800  1.00  0.00     0.253 C 
HETATM    7  O   UNL     1      42.664  -9.170   7.702  1.00  0.00    -0.270 OA
HETATM    8  H   UNL     1      39.824 -10.520   7.185  1.00  0.00     0.190 HD
BRANCH   6   9
HETATM    9  C   UNL     1      40.503  -8.366   8.473  1.00  0.00     0.224 C 
BRANCH   9  10
HETATM   10  N   UNL     1      39.597  -9.087   9.367  1.00  0.00    -0.381 N 
HETATM   11  H   UNL     1      39.218  -9.923   8.918  1.00  0.00     0.160 HD
BRANCH  10  12
HETATM   12  C   UNL     1      39.936  -9.297  10.705  1.00  0.00     0.030 A 
HETATM   13  C   UNL     1      39.399 -10.420  11.357  1.00  0.00     0.065 A 
HETATM   14  C   UNL     1      39.618 -10.653  12.718  1.00  0.00     0.070 A 
HETATM   15  C   UNL     1      40.366  -9.735  13.453  1.00  0.00     0.037 A 
HETATM   16  C   UNL     1      40.878  -8.595  12.837  1.00  0.00     0.005 A 
HETATM   17  C   UNL     1      40.651  -8.374  11.476  1.00  0.00     0.029 A 
BRANCH  14  18
HETATM   18  O   UNL     1      39.151 -11.718  13.440  1.00  0.00    -0.356 OA
HETATM   19  C   UNL     1      38.300 -12.630  12.758  1.00  0.00     0.210 C 
ENDBRANCH  14  18
ENDBRANCH  10  12
ENDBRANCH   9  10
ENDBRANCH   6   9
ENDBRANCH   2   5
BRANCH   1  20
HETATM   20  C   UNL     1      41.692 -13.149   4.935  1.00  0.00     0.134 A 
HETATM   21  C   UNL     1      42.223 -12.498   3.842  1.00  0.00     0.089 A 
HETATM   22  S   UNL     1      43.016 -13.612   2.819  1.00  0.00    -0.079 SA
HETATM   23  C   UNL     1      42.584 -14.908   3.875  1.00  0.00     0.108 A 
HETATM   24  N   UNL     1      41.930 -14.526   4.959  1.00  0.00    -0.235 NA
BRANCH  23  25
HETATM   25  C   UNL     1      42.929 -16.313   3.570  1.00  0.00    -0.000 A 
HETATM   26  C   UNL     1      42.594 -16.946   2.362  1.00  0.00     0.015 A 
HETATM   27  C   UNL     1      42.917 -18.290   2.133  1.00  0.00     0.007 A 
HETATM   28  C   UNL     1      43.577 -19.038   3.110  1.00  0.00    -0.062 A 
HETATM   29  C   UNL     1      43.932 -20.475   2.872  1.00  0.00     0.048 C 
HETATM   30  C   UNL     1      43.927 -18.418   4.313  1.00  0.00     0.007 A 
HETATM   31  C   UNL     1      43.602 -17.076   4.539  1.00  0.00     0.015 A 
ENDBRANCH  23  25
ENDBRANCH   1  20
TORSDOF 7
ENDMDL
MODEL 4
REMARK VINA RESULT:      -8.1      1.633      1.796
REMARK  7 active torsions:
REMARK  status: ('A' for Active; 'I' for Inactive)
REMARK    1  A    between atoms: C_5  and  C_6 
REMARK    2  A    between atoms: C_9  and  C_10 
REMARK       I    between atoms: C_10  and  N_11 
REMARK    3  A    between atoms: N_11  and  N_12 
REMARK       I    between atoms: N_12  and  C_13 
REMARK    4  A    between atoms: C_13  and  C_14 
REMARK    5  A    between atoms: C_14  and  N_15 
REMARK    6  A    between atoms: N_15  and  C_16 
REMARK    7  A    between atoms: C_18  and  O_19 
ROOT
HETATM    1  C   UNL     1      42.784 -12.300   5.727  1.00  0.00     0.289 C 
HETATM    2  N   UNL     1      42.288 -11.652   6.844  1.00  0.00    -0.262 N 
HETATM    3  O   UNL     1      43.590 -11.782   4.956  1.00  0.00    -0.264 OA
HETATM    4  H   UNL     1      41.828 -12.211   7.562  1.00  0.00     0.190 HD
ENDROOT
BRANCH   2   5
HETATM    5  N   UNL     1      42.899 -10.449   7.235  1.00  0.00    -0.266 N 
HETATM    6  C   UNL     1      43.947 -10.526   8.138  1.00  0.00     0.253 C 
HETATM    7  O   UNL     1      44.207 -11.542   8.786  1.00  0.00    -0.270 OA
HETATM    8  H   UNL     1      42.893  -9.717   6.528  1.00  0.00     0.190 HD
BRANCH   6   9
HETATM    9  C   UNL     1      44.736  -9.220   8.293  1.00  0.00     0.224 C 
BRANCH   9  10
HETATM   10  N   UNL     1      44.857  -8.895   9.714  1.00  0.00    -0.381 N 
HETATM   11  H   UNL     1      45.759  -8.461   9.921  1.00  0.00     0.160 HD
BRANCH  10  12
HETATM   12  C   UNL     1      43.798  -8.298  10.400  1.00  0.00     0.030 A 
HETATM   13  C   UNL     1      43.276  -8.963  11.523  1.00  0.00     0.065 A 
HETATM   14  C   UNL     1      42.160  -8.478  12.211  1.00  0.00     0.070 A 
HETATM   15  C   UNL     1      41.533  -7.318  11.756  1.00  0.00     0.037 A 
HETATM   16  C   UNL     1      42.009  -6.662  10.624  1.00  0.00     0.005 A 
HETATM   17  C   UNL     1      43.125  -7.158   9.945  1.00  0.00     0.029 A 
BRANCH  14  18
HETATM   18  O   UNL     1      41.585  -9.042  13.317  1.00  0.00    -0.356 OA
HETATM   19  C   UNL     1      40.590 -10.032  13.087  1.00  0.00     0.210 C 
ENDBRANCH  14  18
ENDBRANCH  10  12
ENDBRANCH   9  10
ENDBRANCH   6   9
ENDBRANCH   2   5
BRANCH   1  20
HETATM   20  C   UNL     1      42.252 -13.651   5.556  1.00  0.00     0.134 A 
HETATM   21  C   UNL     1      41.111 -14.111   6.179  1.00  0.00     0.089 A 
HETATM   22  S   UNL     1      40.826 -15.741   5.760  1.00  0.00    -0.079 SA
HETATM   23  C   UNL     1      42.256 -15.756   4.792  1.00  0.00     0.108 A 
HETATM   24  N   UNL     1      42.885 -14.593   4.740  1.00  0.00    -0.235 NA
BRANCH  23  25
HETATM   25  C   UNL     1      42.714 -16.975   4.092  1.00  0.00    -0.000 A 
HETATM   26  C   UNL     1      43.632 -17.883   4.643  1.00  0.00     0.015 A 
HETATM   27  C   UNL     1      44.058 -19.009   3.927  1.00  0.00     0.007 A 
HETATM   28  C   UNL     1      43.583 -19.251   2.636  1.00  0.00    -0.062 A 
HETATM   29  C   UNL     1      44.029 -20.456   1.863  1.00  0.00     0.048 C 
HETATM   30  C   UNL     1      42.660 -18.362   2.079  1.00  0.00     0.007 A 
HETATM   31  C   UNL     1      42.237 -17.237   2.796  1.00  0.00     0.015 A 
ENDBRANCH  23  25
ENDBRANCH   1  20
TORSDOF 7
ENDMDL
MODEL 5
REMARK VINA RESULT:      -8.0      2.772     10.845
REMARK  7 active torsions:
REMARK  status: ('A' for Active; 'I' for Inactive)
REMARK    1  A    between atoms: C_5  and  C_6 
REMARK    2  A    between atoms: C_9  and  C_10 
REMARK       I    between atoms: C_10  and  N_11 
REMARK    3  A    between atoms: N_11  and  N_12 
REMARK       I    between atoms: N_12  and  C_13 
REMARK    4  A    between atoms: C_13  and  C_14 
REMARK    5  A    between atoms: C_14  and  N_15 
REMARK    6  A    between atoms: N_15  and  C_16 
REMARK    7  A    between atoms: C_18  and  O_19 
ROOT
HETATM    1  C   UNL     1      43.208 -10.985   6.899  1.00  0.00     0.289 C 
HETATM    2  N   UNL     1      43.992 -11.988   6.360  1.00  0.00    -0.262 N 
HETATM    3  O   UNL     1      42.121 -10.657   6.425  1.00  0.00    -0.264 OA
HETATM    4  H   UNL     1      44.745 -12.373   6.931  1.00  0.00     0.190 HD
ENDROOT
BRANCH   2   5
HETATM    5  N   UNL     1      43.423 -12.814   5.376  1.00  0.00    -0.266 N 
HETATM    6  C   UNL     1      42.854 -14.007   5.789  1.00  0.00     0.253 C 
HETATM    7  O   UNL     1      43.029 -14.486   6.911  1.00  0.00    -0.270 OA
HETATM    8  H   UNL     1      43.036 -12.319   4.575  1.00  0.00     0.190 HD
BRANCH   6   9
HETATM    9  C   UNL     1      42.014 -14.705   4.713  1.00  0.00     0.224 C 
BRANCH   9  10
HETATM   10  N   UNL     1      42.897 -15.190   3.651  1.00  0.00    -0.381 N 
HETATM   11  H   UNL     1      43.769 -14.658   3.620  1.00  0.00     0.160 HD
BRANCH  10  12
HETATM   12  C   UNL     1      43.089 -16.559   3.456  1.00  0.00     0.030 A 
HETATM   13  C   UNL     1      43.559 -17.323   4.539  1.00  0.00     0.065 A 
HETATM   14  C   UNL     1      43.862 -18.681   4.401  1.00  0.00     0.070 A 
HETATM   15  C   UNL     1      43.719 -19.286   3.153  1.00  0.00     0.037 A 
HETATM   16  C   UNL     1      43.290 -18.541   2.057  1.00  0.00     0.005 A 
HETATM   17  C   UNL     1      42.992 -17.184   2.208  1.00  0.00     0.029 A 
BRANCH  14  18
HETATM   18  O   UNL     1      44.312 -19.512   5.391  1.00  0.00    -0.356 OA
HETATM   19  C   UNL     1      43.990 -20.892   5.264  1.00  0.00     0.210 C 
ENDBRANCH  14  18
ENDBRANCH  10  12
ENDBRANCH   9  10
ENDBRANCH   6   9
ENDBRANCH   2   5
BRANCH   1  20
HETATM   20  C   UNL     1      43.801 -10.355   8.078  1.00  0.00     0.134 A 
HETATM   21  C   UNL     1      45.085 -10.602   8.515  1.00  0.00     0.089 A 
HETATM   22  S   UNL     1      45.407  -9.709   9.934  1.00  0.00    -0.079 SA
HETATM   23  C   UNL     1      43.807  -9.062   9.906  1.00  0.00     0.108 A 
HETATM   24  N   UNL     1      43.086  -9.449   8.866  1.00  0.00    -0.235 NA
BRANCH  23  25
HETATM   25  C   UNL     1      43.310  -8.157  10.965  1.00  0.00    -0.000 A 
HETATM   26  C   UNL     1      43.434  -8.431  12.336  1.00  0.00     0.015 A 
HETATM   27  C   UNL     1      42.919  -7.555  13.300  1.00  0.00     0.007 A 
HETATM   28  C   UNL     1      42.260  -6.385  12.917  1.00  0.00    -0.062 A 
HETATM   29  C   UNL     1      41.711  -5.438  13.942  1.00  0.00     0.048 C 
HETATM   30  C   UNL     1      42.139  -6.094  11.556  1.00  0.00     0.007 A 
HETATM   31  C   UNL     1      42.653  -6.971  10.595  1.00  0.00     0.015 A 
ENDBRANCH  23  25
ENDBRANCH   1  20
TORSDOF 7
ENDMDL
MODEL 6
REMARK VINA RESULT:      -7.8      2.376      2.838
REMARK  7 active torsions:
REMARK  status: ('A' for Active; 'I' for Inactive)
REMARK    1  A    between atoms: C_5  and  C_6 
REMARK    2  A    between atoms: C_9  and  C_10 
REMARK       I    between atoms: C_10  and  N_11 
REMARK    3  A    between atoms: N_11  and  N_12 
REMARK       I    between atoms: N_12  and  C_13 
REMARK    4  A    between atoms: C_13  and  C_14 
REMARK    5  A    between atoms: C_14  and  N_15 
REMARK    6  A    between atoms: N_15  and  C_16 
REMARK    7  A    between atoms: C_18  and  O_19 
ROOT
HETATM    1  C   UNL     1      40.431 -12.638   6.107  1.00  0.00     0.289 C 
HETATM    2  N   UNL     1      40.861 -11.420   6.602  1.00  0.00    -0.262 N 
HETATM    3  O   UNL     1      39.392 -13.181   6.477  1.00  0.00    -0.264 OA
HETATM    4  H   UNL     1      41.582 -10.916   6.086  1.00  0.00     0.190 HD
ENDROOT
BRANCH   2   5
HETATM    5  N   UNL     1      39.965 -10.672   7.384  1.00  0.00    -0.266 N 
HETATM    6  C   UNL     1      40.481  -9.618   8.119  1.00  0.00     0.253 C 
HETATM    7  O   UNL     1      41.687  -9.454   8.311  1.00  0.00    -0.270 OA
HETATM    8  H   UNL     1      39.019 -10.615   7.012  1.00  0.00     0.190 HD
BRANCH   6   9
HETATM    9  C   UNL     1      39.414  -8.687   8.711  1.00  0.00     0.224 C 
BRANCH   9  10
HETATM   10  N   UNL     1      38.835  -9.312   9.901  1.00  0.00    -0.381 N 
HETATM   11  H   UNL     1      38.539 -10.272   9.710  1.00  0.00     0.160 HD
BRANCH  10  12
HETATM   12  C   UNL     1      39.447  -9.171  11.147  1.00  0.00     0.030 A 
HETATM   13  C   UNL     1      40.031  -7.931  11.463  1.00  0.00     0.065 A 
HETATM   14  C   UNL     1      40.739  -7.735  12.652  1.00  0.00     0.070 A 
HETATM   15  C   UNL     1      40.892  -8.803  13.536  1.00  0.00     0.037 A 
HETATM   16  C   UNL     1      40.354 -10.050  13.228  1.00  0.00     0.005 A 
HETATM   17  C   UNL     1      39.649 -10.233  12.035  1.00  0.00     0.029 A 
BRANCH  14  18
HETATM   18  O   UNL     1      41.332  -6.570  13.056  1.00  0.00    -0.356 OA
HETATM   19  C   UNL     1      41.431  -6.354  14.458  1.00  0.00     0.210 C 
ENDBRANCH  14  18
ENDBRANCH  10  12
ENDBRANCH   9  10
ENDBRANCH   6   9
ENDBRANCH   2   5
BRANCH   1  20
HETATM   20  C   UNL     1      41.335 -13.211   5.112  1.00  0.00     0.134 A 
HETATM   21  C   UNL     1      42.008 -12.465   4.167  1.00  0.00     0.089 A 
HETATM   22  S   UNL     1      42.941 -13.485   3.164  1.00  0.00    -0.079 SA
HETATM   23  C   UNL     1      42.375 -14.870   4.025  1.00  0.00     0.108 A 
HETATM   24  N   UNL     1      41.575 -14.585   5.040  1.00  0.00    -0.235 NA
BRANCH  23  25
HETATM   25  C   UNL     1      42.766 -16.244   3.641  1.00  0.00    -0.000 A 
HETATM   26  C   UNL     1      43.666 -17.026   4.382  1.00  0.00     0.015 A 
HETATM   27  C   UNL     1      44.028 -18.312   3.958  1.00  0.00     0.007 A 
HETATM   28  C   UNL     1      43.505 -18.845   2.778  1.00  0.00    -0.062 A 
HETATM   29  C   UNL     1      43.883 -20.222   2.320  1.00  0.00     0.048 C 
HETATM   30  C   UNL     1      42.600 -18.081   2.036  1.00  0.00     0.007 A 
HETATM   31  C   UNL     1      42.241 -16.797   2.461  1.00  0.00     0.015 A 
ENDBRANCH  23  25
ENDBRANCH   1  20
TORSDOF 7
ENDMDL
MODEL 7
REMARK VINA RESULT:      -7.8      2.168      2.812
REMARK  7 active torsions:
REMARK  status: ('A' for Active; 'I' for Inactive)
REMARK    1  A    between atoms: C_5  and  C_6 
REMARK    2  A    between atoms: C_9  and  C_10 
REMARK       I    between atoms: C_10  and  N_11 
REMARK    3  A    between atoms: N_11  and  N_12 
REMARK       I    between atoms: N_12  and  C_13 
REMARK    4  A    between atoms: C_13  and  C_14 
REMARK    5  A    between atoms: C_14  and  N_15 
REMARK    6  A    between atoms: N_15  and  C_16 
REMARK    7  A    between atoms: C_18  and  O_19 
ROOT
HETATM    1  C   UNL     1      41.314 -11.487   5.722  1.00  0.00     0.289 C 
HETATM    2  N   UNL     1      40.229 -10.636   5.829  1.00  0.00    -0.262 N 
HETATM    3  O   UNL     1      42.345 -11.342   6.377  1.00  0.00    -0.264 OA
HETATM    4  H   UNL     1      39.332 -10.947   5.454  1.00  0.00     0.190 HD
ENDROOT
BRANCH   2   5
HETATM    5  N   UNL     1      40.217  -9.711   6.885  1.00  0.00    -0.266 N 
HETATM    6  C   UNL     1      39.461 -10.023   8.003  1.00  0.00     0.253 C 
HETATM    7  O   UNL     1      38.626 -10.929   8.022  1.00  0.00    -0.270 OA
HETATM    8  H   UNL     1      41.073  -9.169   6.988  1.00  0.00     0.190 HD
BRANCH   6   9
HETATM    9  C   UNL     1      39.724  -9.113   9.210  1.00  0.00     0.224 C 
BRANCH   9  10
HETATM   10  N   UNL     1      40.257  -9.915  10.311  1.00  0.00    -0.381 N 
HETATM   11  H   UNL     1      40.391 -10.889  10.031  1.00  0.00     0.160 HD
BRANCH  10  12
HETATM   12  C   UNL     1      41.299  -9.431  11.104  1.00  0.00     0.030 A 
HETATM   13  C   UNL     1      40.968  -8.737  12.281  1.00  0.00     0.065 A 
HETATM   14  C   UNL     1      41.948  -8.144  13.083  1.00  0.00     0.070 A 
HETATM   15  C   UNL     1      43.285  -8.222  12.693  1.00  0.00     0.037 A 
HETATM   16  C   UNL     1      43.633  -8.873  11.512  1.00  0.00     0.005 A 
HETATM   17  C   UNL     1      42.643  -9.460  10.718  1.00  0.00     0.029 A 
BRANCH  14  18
HETATM   18  O   UNL     1      41.733  -7.459  14.248  1.00  0.00    -0.356 OA
HETATM   19  C   UNL     1      41.376  -8.231  15.388  1.00  0.00     0.210 C 
ENDBRANCH  14  18
ENDBRANCH  10  12
ENDBRANCH   9  10
ENDBRANCH   6   9
ENDBRANCH   2   5
BRANCH   1  20
HETATM   20  C   UNL     1      41.113 -12.565   4.755  1.00  0.00     0.134 A 
HETATM   21  C   UNL     1      40.096 -12.581   3.824  1.00  0.00     0.089 A 
HETATM   22  S   UNL     1      40.168 -14.012   2.895  1.00  0.00    -0.079 SA
HETATM   23  C   UNL     1      41.535 -14.547   3.803  1.00  0.00     0.108 A 
HETATM   24  N   UNL     1      41.950 -13.683   4.716  1.00  0.00    -0.235 NA
BRANCH  23  25
HETATM   25  C   UNL     1      42.168 -15.862   3.561  1.00  0.00    -0.000 A 
HETATM   26  C   UNL     1      43.140 -16.418   4.408  1.00  0.00     0.015 A 
HETATM   27  C   UNL     1      43.732 -17.655   4.119  1.00  0.00     0.007 A 
HETATM   28  C   UNL     1      43.373 -18.362   2.969  1.00  0.00    -0.062 A 
HETATM   29  C   UNL     1      43.998 -19.689   2.654  1.00  0.00     0.048 C 
HETATM   30  C   UNL     1      42.400 -17.825   2.123  1.00  0.00     0.007 A 
HETATM   31  C   UNL     1      41.810 -16.590   2.414  1.00  0.00     0.015 A 
ENDBRANCH  23  25
ENDBRANCH   1  20
TORSDOF 7
ENDMDL
MODEL 8
REMARK VINA RESULT:      -7.4      2.057      2.919
REMARK  7 active torsions:
REMARK  status: ('A' for Active; 'I' for Inactive)
REMARK    1  A    between atoms: C_5  and  C_6 
REMARK    2  A    between atoms: C_9  and  C_10 
REMARK       I    between atoms: C_10  and  N_11 
REMARK    3  A    between atoms: N_11  and  N_12 
REMARK       I    between atoms: N_12  and  C_13 
REMARK    4  A    between atoms: C_13  and  C_14 
REMARK    5  A    between atoms: C_14  and  N_15 
REMARK    6  A    between atoms: N_15  and  C_16 
REMARK    7  A    between atoms: C_18  and  O_19 
ROOT
HETATM    1  C   UNL     1      41.614 -10.882   6.503  1.00  0.00     0.289 C 
HETATM    2  N   UNL     1      42.535 -10.624   7.502  1.00  0.00    -0.262 N 
HETATM    3  O   UNL     1      40.420 -10.606   6.605  1.00  0.00    -0.264 OA
HETATM    4  H   UNL     1      43.526 -10.646   7.263  1.00  0.00     0.190 HD
ENDROOT
BRANCH   2   5
HETATM    5  N   UNL     1      42.133  -9.813   8.576  1.00  0.00    -0.266 N 
HETATM    6  C   UNL     1      43.069  -9.544   9.561  1.00  0.00     0.253 C 
HETATM    7  O   UNL     1      44.132 -10.158   9.669  1.00  0.00    -0.270 OA
HETATM    8  H   UNL     1      41.427  -9.118   8.345  1.00  0.00     0.190 HD
BRANCH   6   9
HETATM    9  C   UNL     1      42.650  -8.436  10.536  1.00  0.00     0.224 C 
BRANCH   9  10
HETATM   10  N   UNL     1      43.110  -8.777  11.881  1.00  0.00    -0.381 N 
HETATM   11  H   UNL     1      44.130  -8.752  11.943  1.00  0.00     0.160 HD
BRANCH  10  12
HETATM   12  C   UNL     1      42.485  -8.236  13.006  1.00  0.00     0.030 A 
HETATM   13  C   UNL     1      42.353  -6.838  13.082  1.00  0.00     0.065 A 
HETATM   14  C   UNL     1      41.820  -6.213  14.214  1.00  0.00     0.070 A 
HETATM   15  C   UNL     1      41.434  -6.992  15.303  1.00  0.00     0.037 A 
HETATM   16  C   UNL     1      41.589  -8.376  15.265  1.00  0.00     0.005 A 
HETATM   17  C   UNL     1      42.124  -8.989  14.128  1.00  0.00     0.029 A 
BRANCH  14  18
HETATM   18  O   UNL     1      41.639  -4.867  14.382  1.00  0.00    -0.356 OA
HETATM   19  C   UNL     1      40.393  -4.451  14.927  1.00  0.00     0.210 C 
ENDBRANCH  14  18
ENDBRANCH  10  12
ENDBRANCH   9  10
ENDBRANCH   6   9
ENDBRANCH   2   5
BRANCH   1  20
HETATM   20  C   UNL     1      42.200 -11.517   5.323  1.00  0.00     0.134 A 
HETATM   21  C   UNL     1      42.740 -10.817   4.264  1.00  0.00     0.089 A 
HETATM   22  S   UNL     1      43.296 -11.898   3.065  1.00  0.00    -0.079 SA
HETATM   23  C   UNL     1      42.760 -13.240   4.008  1.00  0.00     0.108 A 
HETATM   24  N   UNL     1      42.242 -12.905   5.179  1.00  0.00    -0.235 NA
BRANCH  23  25
HETATM   25  C   UNL     1      42.881 -14.633   3.526  1.00  0.00    -0.000 A 
HETATM   26  C   UNL     1      43.192 -14.966   2.198  1.00  0.00     0.015 A 
HETATM   27  C   UNL     1      43.266 -16.302   1.784  1.00  0.00     0.007 A 
HETATM   28  C   UNL     1      43.022 -17.340   2.686  1.00  0.00    -0.062 A 
HETATM   29  C   UNL     1      43.104 -18.774   2.252  1.00  0.00     0.048 C 
HETATM   30  C   UNL     1      42.722 -17.024   4.013  1.00  0.00     0.007 A 
HETATM   31  C   UNL     1      42.648 -15.688   4.424  1.00  0.00     0.015 A 
ENDBRANCH  23  25
ENDBRANCH   1  20
TORSDOF 7
ENDMDL
MODEL 9
REMARK VINA RESULT:      -7.4      6.954     10.155
REMARK  7 active torsions:
REMARK  status: ('A' for Active; 'I' for Inactive)
REMARK    1  A    between atoms: C_5  and  C_6 
REMARK    2  A    between atoms: C_9  and  C_10 
REMARK       I    between atoms: C_10  and  N_11 
REMARK    3  A    between atoms: N_11  and  N_12 
REMARK       I    between atoms: N_12  and  C_13 
REMARK    4  A    between atoms: C_13  and  C_14 
REMARK    5  A    between atoms: C_14  and  N_15 
REMARK    6  A    between atoms: N_15  and  C_16 
REMARK    7  A    between atoms: C_18  and  O_19 
ROOT
HETATM    1  C   UNL     1      41.257 -13.287   0.703  1.00  0.00     0.289 C 
HETATM    2  N   UNL     1      41.085 -14.170  -0.348  1.00  0.00    -0.262 N 
HETATM    3  O   UNL     1      41.189 -12.067   0.571  1.00  0.00    -0.264 OA
HETATM    4  H   UNL     1      40.909 -15.151  -0.131  1.00  0.00     0.190 HD
ENDROOT
BRANCH   2   5
HETATM    5  N   UNL     1      40.588 -13.663  -1.560  1.00  0.00    -0.266 N 
HETATM    6  C   UNL     1      39.450 -14.254  -2.085  1.00  0.00     0.253 C 
HETATM    7  O   UNL     1      39.002 -15.330  -1.683  1.00  0.00    -0.270 OA
HETATM    8  H   UNL     1      40.757 -12.670  -1.709  1.00  0.00     0.190 HD
BRANCH   6   9
HETATM    9  C   UNL     1      38.815 -13.472  -3.241  1.00  0.00     0.224 C 
BRANCH   9  10
HETATM   10  N   UNL     1      37.457 -13.076  -2.867  1.00  0.00    -0.381 N 
HETATM   11  H   UNL     1      37.050 -13.730  -2.195  1.00  0.00     0.160 HD
BRANCH  10  12
HETATM   12  C   UNL     1      37.160 -11.744  -2.574  1.00  0.00     0.030 A 
HETATM   13  C   UNL     1      37.927 -11.093  -1.593  1.00  0.00     0.065 A 
HETATM   14  C   UNL     1      37.636  -9.789  -1.179  1.00  0.00     0.070 A 
HETATM   15  C   UNL     1      36.543  -9.128  -1.736  1.00  0.00     0.037 A 
HETATM   16  C   UNL     1      35.746  -9.765  -2.684  1.00  0.00     0.005 A 
HETATM   17  C   UNL     1      36.047 -11.069  -3.088  1.00  0.00     0.029 A 
BRANCH  14  18
HETATM   18  O   UNL     1      38.325  -9.067  -0.243  1.00  0.00    -0.356 OA
HETATM   19  C   UNL     1      39.676  -8.746  -0.550  1.00  0.00     0.210 C 
ENDBRANCH  14  18
ENDBRANCH  10  12
ENDBRANCH   9  10
ENDBRANCH   6   9
ENDBRANCH   2   5
BRANCH   1  20
HETATM   20  C   UNL     1      41.534 -13.949   1.977  1.00  0.00     0.134 A 
HETATM   21  C   UNL     1      41.316 -13.366   3.208  1.00  0.00     0.089 A 
HETATM   22  S   UNL     1      41.786 -14.431   4.457  1.00  0.00    -0.079 SA
HETATM   23  C   UNL     1      42.282 -15.602   3.289  1.00  0.00     0.108 A 
HETATM   24  N   UNL     1      42.061 -15.242   2.035  1.00  0.00    -0.235 NA
BRANCH  23  25
HETATM   25  C   UNL     1      42.897 -16.888   3.684  1.00  0.00    -0.000 A 
HETATM   26  C   UNL     1      43.217 -17.903   2.769  1.00  0.00     0.015 A 
HETATM   27  C   UNL     1      43.771 -19.117   3.197  1.00  0.00     0.007 A 
HETATM   28  C   UNL     1      44.011 -19.349   4.553  1.00  0.00    -0.062 A 
HETATM   29  C   UNL     1      44.609 -20.643   5.020  1.00  0.00     0.048 C 
HETATM   30  C   UNL     1      43.707 -18.343   5.474  1.00  0.00     0.007 A 
HETATM   31  C   UNL     1      43.153 -17.132   5.044  1.00  0.00     0.015 A 
ENDBRANCH  23  25
ENDBRANCH   1  20
TORSDOF 7
ENDMDL
MODEL 10
REMARK VINA RESULT:      -7.4      3.089     10.186
REMARK  7 active torsions:
REMARK  status: ('A' for Active; 'I' for Inactive)
REMARK    1  A    between atoms: C_5  and  C_6 
REMARK    2  A    between atoms: C_9  and  C_10 
REMARK       I    between atoms: C_10  and  N_11 
REMARK    3  A    between atoms: N_11  and  N_12 
REMARK       I    between atoms: N_12  and  C_13 
REMARK    4  A    between atoms: C_13  and  C_14 
REMARK    5  A    between atoms: C_14  and  N_15 
REMARK    6  A    between atoms: N_15  and  C_16 
REMARK    7  A    between atoms: C_18  and  O_19 
ROOT
HETATM    1  C   UNL     1      42.623 -12.691   6.041  1.00  0.00     0.289 C 
HETATM    2  N   UNL     1      41.261 -12.452   6.035  1.00  0.00    -0.262 N 
HETATM    3  O   UNL     1      43.141 -13.628   5.437  1.00  0.00    -0.264 OA
HETATM    4  H   UNL     1      40.929 -11.538   6.341  1.00  0.00     0.190 HD
ENDROOT
BRANCH   2   5
HETATM    5  N   UNL     1      40.470 -13.168   5.121  1.00  0.00    -0.266 N 
HETATM    6  C   UNL     1      40.225 -12.585   3.889  1.00  0.00     0.253 C 
HETATM    7  O   UNL     1      40.454 -11.399   3.646  1.00  0.00    -0.270 OA
HETATM    8  H   UNL     1      40.541 -14.181   5.196  1.00  0.00     0.190 HD
BRANCH   6   9
HETATM    9  C   UNL     1      39.604 -13.537   2.858  1.00  0.00     0.224 C 
BRANCH   9  10
HETATM   10  N   UNL     1      39.818 -14.919   3.289  1.00  0.00    -0.381 N 
HETATM   11  H   UNL     1      38.970 -15.478   3.180  1.00  0.00     0.160 HD
BRANCH  10  12
HETATM   12  C   UNL     1      40.974 -15.608   2.918  1.00  0.00     0.030 A 
HETATM   13  C   UNL     1      41.587 -16.437   3.874  1.00  0.00     0.065 A 
HETATM   14  C   UNL     1      42.795 -17.091   3.611  1.00  0.00     0.070 A 
HETATM   15  C   UNL     1      43.419 -16.897   2.380  1.00  0.00     0.037 A 
HETATM   16  C   UNL     1      42.849 -16.051   1.431  1.00  0.00     0.005 A 
HETATM   17  C   UNL     1      41.643 -15.402   1.706  1.00  0.00     0.029 A 
BRANCH  14  18
HETATM   18  O   UNL     1      43.464 -17.925   4.465  1.00  0.00    -0.356 OA
HETATM   19  C   UNL     1      44.281 -18.927   3.874  1.00  0.00     0.210 C 
ENDBRANCH  14  18
ENDBRANCH  10  12
ENDBRANCH   9  10
ENDBRANCH   6   9
ENDBRANCH   2   5
BRANCH   1  20
HETATM   20  C   UNL     1      43.377 -11.726   6.840  1.00  0.00     0.134 A 
HETATM   21  C   UNL     1      44.728 -11.832   7.097  1.00  0.00     0.089 A 
HETATM   22  S   UNL     1      45.244 -10.539   8.086  1.00  0.00    -0.079 SA
HETATM   23  C   UNL     1      43.633  -9.922   8.142  1.00  0.00     0.108 A 
HETATM   24  N   UNL     1      42.765 -10.612   7.419  1.00  0.00    -0.235 NA
BRANCH  23  25
HETATM   25  C   UNL     1      43.281  -8.725   8.935  1.00  0.00    -0.000 A 
HETATM   26  C   UNL     1      42.985  -7.478   8.362  1.00  0.00     0.015 A 
HETATM   27  C   UNL     1      42.687  -6.366   9.160  1.00  0.00     0.007 A 
HETATM   28  C   UNL     1      42.686  -6.470  10.553  1.00  0.00    -0.062 A 
HETATM   29  C   UNL     1      42.363  -5.286  11.415  1.00  0.00     0.048 C 
HETATM   30  C   UNL     1      42.969  -7.708  11.136  1.00  0.00     0.007 A 
HETATM   31  C   UNL     1      43.266  -8.817  10.338  1.00  0.00     0.015 A 
ENDBRANCH  23  25
ENDBRANCH   1  20
TORSDOF 7
ENDMDL
