MODEL 1
REMARK VINA RESULT:      -7.7      0.000      0.000
REMARK  5 active torsions:
REMARK  status: ('A' for Active; 'I' for Inactive)
REMARK    1  A    between atoms: C_3  and  N_4 
REMARK       I    between atoms: N_4  and  C_5 
REMARK       I    between atoms: C_5  and  N_6 
REMARK    2  A    between atoms: N_6  and  C_7 
REMARK    3  A    between atoms: C_7  and  C_8 
REMARK    4  A    between atoms: C_8  and  C_9 
REMARK    5  A    between atoms: N_15  and  C_16 
ROOT
HETATM    1  C   UNL     1      43.981 -13.364   6.979  1.00  0.00     0.054 C 
HETATM    2  C   UNL     1      43.428 -14.598   6.371  1.00  0.00     0.003 A 
HETATM    3  C   UNL     1      42.085 -14.916   6.053  1.00  0.00     0.159 A 
HETATM    4  N   UNL     1      41.980 -16.145   5.543  1.00  0.00    -0.149 NA
HETATM    5  N   UNL     1      43.250 -16.636   5.494  1.00  0.00    -0.241 N 
HETATM    6  C   UNL     1      44.136 -15.726   6.018  1.00  0.00     0.129 A 
ENDROOT
BRANCH   3   7
HETATM    7  N   UNL     1      41.012 -14.079   6.275  1.00  0.00    -0.291 N 
HETATM    8  C   UNL     1      40.096 -13.606   5.388  1.00  0.00     0.321 C 
HETATM    9  N   UNL     1      40.308 -13.870   4.071  1.00  0.00    -0.343 N 
HETATM   10  O   UNL     1      39.148 -12.936   5.792  1.00  0.00    -0.247 OA
HETATM   11  H   UNL     1      41.032 -14.565   3.889  1.00  0.00     0.164 HD
HETATM   12  H   UNL     1      40.842 -13.779   7.222  1.00  0.00     0.172 HD
BRANCH   9  13
HETATM   13  C   UNL     1      39.371 -13.510   3.027  1.00  0.00     0.133 C 
BRANCH  13  14
HETATM   14  C   UNL     1      40.023 -13.456   1.653  1.00  0.00     0.137 C 
BRANCH  14  15
HETATM   15  C   UNL     1      40.076 -14.833   1.047  1.00  0.00     0.389 C 
HETATM   16  F   UNL     1      41.347 -15.258   0.879  1.00  0.00    -0.171 F 
HETATM   17  F   UNL     1      39.445 -15.730   1.835  1.00  0.00    -0.171 F 
HETATM   18  F   UNL     1      39.472 -14.859  -0.162  1.00  0.00    -0.171 F 
ENDBRANCH  14  15
ENDBRANCH  13  14
ENDBRANCH   9  13
ENDBRANCH   3   7
BRANCH   5  19
HETATM   19  C   UNL     1      43.482 -17.963   5.024  1.00  0.00     0.079 A 
HETATM   20  C   UNL     1      43.645 -18.312   3.674  1.00  0.00     0.062 A 
HETATM   21 CL   UNL     1      43.374 -17.259   2.329  1.00  0.00    -0.082 Cl
HETATM   22  C   UNL     1      43.940 -19.641   3.330  1.00  0.00     0.026 A 
HETATM   23  C   UNL     1      44.061 -20.628   4.307  1.00  0.00     0.002 A 
HETATM   24  C   UNL     1      43.866 -20.299   5.641  1.00  0.00     0.002 A 
HETATM   25  C   UNL     1      43.572 -18.982   5.998  1.00  0.00     0.033 A 
ENDBRANCH   5  19
TORSDOF 5
ENDMDL
MODEL 2
REMARK VINA RESULT:      -7.6      2.497      3.343
REMARK  5 active torsions:
REMARK  status: ('A' for Active; 'I' for Inactive)
REMARK    1  A    between atoms: C_3  and  N_4 
REMARK       I    between atoms: N_4  and  C_5 
REMARK       I    between atoms: C_5  and  N_6 
REMARK    2  A    between atoms: N_6  and  C_7 
REMARK    3  A    between atoms: C_7  and  C_8 
REMARK    4  A    between atoms: C_8  and  C_9 
REMARK    5  A    between atoms: N_15  and  C_16 
ROOT
HETATM    1  C   UNL     1      40.190 -13.082   5.165  1.00  0.00     0.054 C 
HETATM    2  C   UNL     1      41.215 -13.913   4.492  1.00  0.00     0.003 A 
HETATM    3  C   UNL     1      42.159 -13.545   3.502  1.00  0.00     0.159 A 
HETATM    4  N   UNL     1      42.898 -14.588   3.117  1.00  0.00    -0.149 NA
HETATM    5  N   UNL     1      42.470 -15.643   3.867  1.00  0.00    -0.241 N 
HETATM    6  C   UNL     1      41.432 -15.261   4.683  1.00  0.00     0.129 A 
ENDROOT
BRANCH   3   7
HETATM    7  N   UNL     1      42.278 -12.279   2.971  1.00  0.00    -0.291 N 
HETATM    8  C   UNL     1      41.871 -11.815   1.759  1.00  0.00     0.321 C 
HETATM    9  N   UNL     1      41.390 -12.727   0.871  1.00  0.00    -0.343 N 
HETATM   10  O   UNL     1      41.985 -10.620   1.495  1.00  0.00    -0.247 OA
HETATM   11  H   UNL     1      41.199 -13.646   1.270  1.00  0.00     0.164 HD
HETATM   12  H   UNL     1      42.700 -11.568   3.548  1.00  0.00     0.172 HD
BRANCH   9  13
HETATM   13  C   UNL     1      40.836 -12.367  -0.417  1.00  0.00     0.133 C 
BRANCH  13  14
HETATM   14  C   UNL     1      39.405 -12.854  -0.593  1.00  0.00     0.137 C 
BRANCH  14  15
HETATM   15  C   UNL     1      39.387 -14.152  -1.356  1.00  0.00     0.389 C 
HETATM   16  F   UNL     1      38.265 -14.282  -2.095  1.00  0.00    -0.171 F 
HETATM   17  F   UNL     1      40.442 -14.231  -2.195  1.00  0.00    -0.171 F 
HETATM   18  F   UNL     1      39.452 -15.211  -0.519  1.00  0.00    -0.171 F 
ENDBRANCH  14  15
ENDBRANCH  13  14
ENDBRANCH   9  13
ENDBRANCH   3   7
BRANCH   5  19
HETATM   19  C   UNL     1      43.042 -16.934   3.670  1.00  0.00     0.079 A 
HETATM   20  C   UNL     1      43.922 -17.560   4.567  1.00  0.00     0.062 A 
HETATM   21 CL   UNL     1      44.647 -16.808   5.946  1.00  0.00    -0.082 Cl
HETATM   22  C   UNL     1      44.370 -18.865   4.307  1.00  0.00     0.026 A 
HETATM   23  C   UNL     1      43.967 -19.549   3.160  1.00  0.00     0.002 A 
HETATM   24  C   UNL     1      43.125 -18.925   2.250  1.00  0.00     0.002 A 
HETATM   25  C   UNL     1      42.672 -17.629   2.496  1.00  0.00     0.033 A 
ENDBRANCH   5  19
TORSDOF 5
ENDMDL
MODEL 3
REMARK VINA RESULT:      -7.4      4.507      5.728
REMARK  5 active torsions:
REMARK  status: ('A' for Active; 'I' for Inactive)
REMARK    1  A    between atoms: C_3  and  N_4 
REMARK       I    between atoms: N_4  and  C_5 
REMARK       I    between atoms: C_5  and  N_6 
REMARK    2  A    between atoms: N_6  and  C_7 
REMARK    3  A    between atoms: C_7  and  C_8 
REMARK    4  A    between atoms: C_8  and  C_9 
REMARK    5  A    between atoms: N_15  and  C_16 
ROOT
HETATM    1  C   UNL     1      39.865 -13.639   5.828  1.00  0.00     0.054 C 
HETATM    2  C   UNL     1      40.956 -14.337   5.107  1.00  0.00     0.003 A 
HETATM    3  C   UNL     1      41.986 -13.798   4.299  1.00  0.00     0.159 A 
HETATM    4  N   UNL     1      42.765 -14.757   3.793  1.00  0.00    -0.149 NA
HETATM    5  N   UNL     1      42.276 -15.930   4.285  1.00  0.00    -0.241 N 
HETATM    6  C   UNL     1      41.163 -15.699   5.057  1.00  0.00     0.129 A 
ENDROOT
BRANCH   3   7
HETATM    7  N   UNL     1      42.146 -12.455   4.033  1.00  0.00    -0.291 N 
HETATM    8  C   UNL     1      43.097 -11.597   4.491  1.00  0.00     0.321 C 
HETATM    9  N   UNL     1      43.950 -12.063   5.444  1.00  0.00    -0.343 N 
HETATM   10  O   UNL     1      43.130 -10.443   4.070  1.00  0.00    -0.247 OA
HETATM   11  H   UNL     1      43.918 -13.073   5.584  1.00  0.00     0.164 HD
HETATM   12  H   UNL     1      41.496 -12.024   3.394  1.00  0.00     0.172 HD
BRANCH   9  13
HETATM   13  C   UNL     1      45.067 -11.295   5.954  1.00  0.00     0.133 C 
BRANCH  13  14
HETATM   14  C   UNL     1      44.726 -10.558   7.242  1.00  0.00     0.137 C 
BRANCH  14  15
HETATM   15  C   UNL     1      45.986 -10.207   7.989  1.00  0.00     0.389 C 
HETATM   16  F   UNL     1      45.892 -10.514   9.301  1.00  0.00    -0.171 F 
HETATM   17  F   UNL     1      47.046 -10.876   7.486  1.00  0.00    -0.171 F 
HETATM   18  F   UNL     1      46.257  -8.887   7.895  1.00  0.00    -0.171 F 
ENDBRANCH  14  15
ENDBRANCH  13  14
ENDBRANCH   9  13
ENDBRANCH   3   7
BRANCH   5  19
HETATM   19  C   UNL     1      42.873 -17.167   3.899  1.00  0.00     0.079 A 
HETATM   20  C   UNL     1      43.651 -17.972   4.745  1.00  0.00     0.062 A 
HETATM   21 CL   UNL     1      44.215 -17.520   6.317  1.00  0.00    -0.082 Cl
HETATM   22  C   UNL     1      44.132 -19.207   4.282  1.00  0.00     0.026 A 
HETATM   23  C   UNL     1      43.862 -19.644   2.985  1.00  0.00     0.002 A 
HETATM   24  C   UNL     1      43.124 -18.839   2.130  1.00  0.00     0.002 A 
HETATM   25  C   UNL     1      42.639 -17.609   2.577  1.00  0.00     0.033 A 
ENDBRANCH   5  19
TORSDOF 5
ENDMDL
MODEL 4
REMARK VINA RESULT:      -7.4      3.056      4.298
REMARK  5 active torsions:
REMARK  status: ('A' for Active; 'I' for Inactive)
REMARK    1  A    between atoms: C_3  and  N_4 
REMARK       I    between atoms: N_4  and  C_5 
REMARK       I    between atoms: C_5  and  N_6 
REMARK    2  A    between atoms: N_6  and  C_7 
REMARK    3  A    between atoms: C_7  and  C_8 
REMARK    4  A    between atoms: C_8  and  C_9 
REMARK    5  A    between atoms: N_15  and  C_16 
ROOT
HETATM    1  C   UNL     1      39.544 -12.742   3.843  1.00  0.00     0.054 C 
HETATM    2  C   UNL     1      40.611 -13.644   3.348  1.00  0.00     0.003 A 
HETATM    3  C   UNL     1      41.414 -13.531   2.188  1.00  0.00     0.159 A 
HETATM    4  N   UNL     1      42.249 -14.566   2.066  1.00  0.00    -0.149 NA
HETATM    5  N   UNL     1      42.024 -15.353   3.156  1.00  0.00    -0.241 N 
HETATM    6  C   UNL     1      41.016 -14.828   3.927  1.00  0.00     0.129 A 
ENDROOT
BRANCH   3   7
HETATM    7  N   UNL     1      41.324 -12.502   1.275  1.00  0.00    -0.291 N 
HETATM    8  C   UNL     1      40.950 -12.546  -0.032  1.00  0.00     0.321 C 
HETATM    9  N   UNL     1      40.752 -13.774  -0.584  1.00  0.00    -0.343 N 
HETATM   10  O   UNL     1      40.844 -11.501  -0.670  1.00  0.00    -0.247 OA
HETATM   11  H   UNL     1      40.714 -14.539   0.089  1.00  0.00     0.164 HD
HETATM   12  H   UNL     1      41.536 -11.571   1.598  1.00  0.00     0.172 HD
BRANCH   9  13
HETATM   13  C   UNL     1      40.263 -13.969  -1.932  1.00  0.00     0.133 C 
BRANCH  13  14
HETATM   14  C   UNL     1      38.795 -14.370  -1.968  1.00  0.00     0.137 C 
BRANCH  14  15
HETATM   15  C   UNL     1      37.933 -13.167  -2.240  1.00  0.00     0.389 C 
HETATM   16  F   UNL     1      36.748 -13.513  -2.787  1.00  0.00    -0.171 F 
HETATM   17  F   UNL     1      37.676 -12.491  -1.099  1.00  0.00    -0.171 F 
HETATM   18  F   UNL     1      38.543 -12.311  -3.090  1.00  0.00    -0.171 F 
ENDBRANCH  14  15
ENDBRANCH  13  14
ENDBRANCH   9  13
ENDBRANCH   3   7
BRANCH   5  19
HETATM   19  C   UNL     1      42.741 -16.577   3.309  1.00  0.00     0.079 A 
HETATM   20  C   UNL     1      43.507 -16.914   4.436  1.00  0.00     0.062 A 
HETATM   21 CL   UNL     1      43.908 -15.840   5.732  1.00  0.00    -0.082 Cl
HETATM   22  C   UNL     1      44.115 -18.178   4.512  1.00  0.00     0.026 A 
HETATM   23  C   UNL     1      43.984 -19.103   3.477  1.00  0.00     0.002 A 
HETATM   24  C   UNL     1      43.258 -18.765   2.343  1.00  0.00     0.002 A 
HETATM   25  C   UNL     1      42.648 -17.513   2.255  1.00  0.00     0.033 A 
ENDBRANCH   5  19
TORSDOF 5
ENDMDL
MODEL 5
REMARK VINA RESULT:      -7.4      3.330      4.607
REMARK  5 active torsions:
REMARK  status: ('A' for Active; 'I' for Inactive)
REMARK    1  A    between atoms: C_3  and  N_4 
REMARK       I    between atoms: N_4  and  C_5 
REMARK       I    between atoms: C_5  and  N_6 
REMARK    2  A    between atoms: N_6  and  C_7 
REMARK    3  A    between atoms: C_7  and  C_8 
REMARK    4  A    between atoms: C_8  and  C_9 
REMARK    5  A    between atoms: N_15  and  C_16 
ROOT
HETATM    1  C   UNL     1      41.691 -13.406   1.422  1.00  0.00     0.054 C 
HETATM    2  C   UNL     1      41.793 -14.653   2.216  1.00  0.00     0.003 A 
HETATM    3  C   UNL     1      41.145 -15.002   3.426  1.00  0.00     0.159 A 
HETATM    4  N   UNL     1      41.521 -16.210   3.853  1.00  0.00    -0.149 NA
HETATM    5  N   UNL     1      42.395 -16.678   2.918  1.00  0.00    -0.241 N 
HETATM    6  C   UNL     1      42.596 -15.738   1.935  1.00  0.00     0.129 A 
ENDROOT
BRANCH   3   7
HETATM    7  N   UNL     1      40.264 -14.185   4.101  1.00  0.00    -0.291 N 
HETATM    8  C   UNL     1      40.528 -13.170   4.967  1.00  0.00     0.321 C 
HETATM    9  N   UNL     1      41.824 -12.989   5.340  1.00  0.00    -0.343 N 
HETATM   10  O   UNL     1      39.604 -12.490   5.407  1.00  0.00    -0.247 OA
HETATM   11  H   UNL     1      42.502 -13.509   4.784  1.00  0.00     0.164 HD
HETATM   12  H   UNL     1      39.280 -14.319   3.932  1.00  0.00     0.172 HD
BRANCH   9  13
HETATM   13  C   UNL     1      42.263 -11.894   6.180  1.00  0.00     0.133 C 
BRANCH  13  14
HETATM   14  C   UNL     1      43.648 -11.389   5.801  1.00  0.00     0.137 C 
BRANCH  14  15
HETATM   15  C   UNL     1      44.686 -11.974   6.721  1.00  0.00     0.389 C 
HETATM   16  F   UNL     1      45.938 -11.651   6.333  1.00  0.00    -0.171 F 
HETATM   17  F   UNL     1      44.519 -11.522   7.983  1.00  0.00    -0.171 F 
HETATM   18  F   UNL     1      44.602 -13.322   6.758  1.00  0.00    -0.171 F 
ENDBRANCH  14  15
ENDBRANCH  13  14
ENDBRANCH   9  13
ENDBRANCH   3   7
BRANCH   5  19
HETATM   19  C   UNL     1      43.018 -17.949   3.099  1.00  0.00     0.079 A 
HETATM   20  C   UNL     1      43.792 -18.303   4.215  1.00  0.00     0.062 A 
HETATM   21 CL   UNL     1      44.320 -17.216   5.453  1.00  0.00    -0.082 Cl
HETATM   22  C   UNL     1      44.299 -19.608   4.324  1.00  0.00     0.026 A 
HETATM   23  C   UNL     1      44.060 -20.559   3.332  1.00  0.00     0.002 A 
HETATM   24  C   UNL     1      43.326 -20.207   2.209  1.00  0.00     0.002 A 
HETATM   25  C   UNL     1      42.815 -18.914   2.087  1.00  0.00     0.033 A 
ENDBRANCH   5  19
TORSDOF 5
ENDMDL
MODEL 6
REMARK VINA RESULT:      -7.3      3.722      6.949
REMARK  5 active torsions:
REMARK  status: ('A' for Active; 'I' for Inactive)
REMARK    1  A    between atoms: C_3  and  N_4 
REMARK       I    between atoms: N_4  and  C_5 
REMARK       I    between atoms: C_5  and  N_6 
REMARK    2  A    between atoms: N_6  and  C_7 
REMARK    3  A    between atoms: C_7  and  C_8 
REMARK    4  A    between atoms: C_8  and  C_9 
REMARK    5  A    between atoms: N_15  and  C_16 
ROOT
HETATM    1  C   UNL     1      42.738 -12.390   2.810  1.00  0.00     0.054 C 
HETATM    2  C   UNL     1      41.599 -13.019   2.102  1.00  0.00     0.003 A 
HETATM    3  C   UNL     1      40.722 -14.041   2.542  1.00  0.00     0.159 A 
HETATM    4  N   UNL     1      39.834 -14.365   1.599  1.00  0.00    -0.149 NA
HETATM    5  N   UNL     1      40.097 -13.544   0.544  1.00  0.00    -0.241 N 
HETATM    6  C   UNL     1      41.180 -12.743   0.817  1.00  0.00     0.129 A 
ENDROOT
BRANCH   3   7
HETATM    7  N   UNL     1      40.797 -14.654   3.774  1.00  0.00    -0.291 N 
HETATM    8  C   UNL     1      41.467 -15.782   4.131  1.00  0.00     0.321 C 
HETATM    9  N   UNL     1      42.052 -16.502   3.136  1.00  0.00    -0.343 N 
HETATM   10  O   UNL     1      41.489 -16.129   5.310  1.00  0.00    -0.247 OA
HETATM   11  H   UNL     1      42.098 -16.023   2.237  1.00  0.00     0.164 HD
HETATM   12  H   UNL     1      40.318 -14.214   4.544  1.00  0.00     0.172 HD
BRANCH   9  13
HETATM   13  C   UNL     1      42.874 -17.670   3.377  1.00  0.00     0.133 C 
BRANCH  13  14
HETATM   14  C   UNL     1      43.360 -18.316   2.088  1.00  0.00     0.137 C 
BRANCH  14  15
HETATM   15  C   UNL     1      43.274 -19.816   2.193  1.00  0.00     0.389 C 
HETATM   16  F   UNL     1      44.099 -20.427   1.316  1.00  0.00    -0.171 F 
HETATM   17  F   UNL     1      43.613 -20.231   3.432  1.00  0.00    -0.171 F 
HETATM   18  F   UNL     1      42.019 -20.251   1.948  1.00  0.00    -0.171 F 
ENDBRANCH  14  15
ENDBRANCH  13  14
ENDBRANCH   9  13
ENDBRANCH   3   7
BRANCH   5  19
HETATM   19  C   UNL     1      39.336 -13.662  -0.657  1.00  0.00     0.079 A 
HETATM   20  C   UNL     1      38.477 -12.671  -1.156  1.00  0.00     0.062 A 
HETATM   21 CL   UNL     1      38.011 -11.234  -0.312  1.00  0.00    -0.082 Cl
HETATM   22  C   UNL     1      37.830 -12.865  -2.387  1.00  0.00     0.026 A 
HETATM   23  C   UNL     1      38.013 -14.038  -3.119  1.00  0.00     0.002 A 
HETATM   24  C   UNL     1      38.832 -15.039  -2.616  1.00  0.00     0.002 A 
HETATM   25  C   UNL     1      39.481 -14.859  -1.394  1.00  0.00     0.033 A 
ENDBRANCH   5  19
TORSDOF 5
ENDMDL
MODEL 7
REMARK VINA RESULT:      -7.3      1.706      2.103
REMARK  5 active torsions:
REMARK  status: ('A' for Active; 'I' for Inactive)
REMARK    1  A    between atoms: C_3  and  N_4 
REMARK       I    between atoms: N_4  and  C_5 
REMARK       I    between atoms: C_5  and  N_6 
REMARK    2  A    between atoms: N_6  and  C_7 
REMARK    3  A    between atoms: C_7  and  C_8 
REMARK    4  A    between atoms: C_8  and  C_9 
REMARK    5  A    between atoms: N_15  and  C_16 
ROOT
HETATM    1  C   UNL     1      43.158 -15.672   8.118  1.00  0.00     0.054 C 
HETATM    2  C   UNL     1      43.260 -16.155   6.721  1.00  0.00     0.003 A 
HETATM    3  C   UNL     1      43.130 -15.432   5.510  1.00  0.00     0.159 A 
HETATM    4  N   UNL     1      43.257 -16.230   4.447  1.00  0.00    -0.149 NA
HETATM    5  N   UNL     1      43.500 -17.475   4.944  1.00  0.00    -0.241 N 
HETATM    6  C   UNL     1      43.476 -17.456   6.318  1.00  0.00     0.129 A 
ENDROOT
BRANCH   3   7
HETATM    7  N   UNL     1      42.867 -14.081   5.434  1.00  0.00    -0.291 N 
HETATM    8  C   UNL     1      41.905 -13.434   4.722  1.00  0.00     0.321 C 
HETATM    9  N   UNL     1      41.163 -14.176   3.856  1.00  0.00    -0.343 N 
HETATM   10  O   UNL     1      41.767 -12.219   4.850  1.00  0.00    -0.247 OA
HETATM   11  H   UNL     1      41.268 -15.185   3.966  1.00  0.00     0.164 HD
HETATM   12  H   UNL     1      43.434 -13.463   5.991  1.00  0.00     0.172 HD
BRANCH   9  13
HETATM   13  C   UNL     1      40.048 -13.641   3.104  1.00  0.00     0.133 C 
BRANCH  13  14
HETATM   14  C   UNL     1      40.208 -13.838   1.604  1.00  0.00     0.137 C 
BRANCH  14  15
HETATM   15  C   UNL     1      40.103 -15.300   1.257  1.00  0.00     0.389 C 
HETATM   16  F   UNL     1      41.308 -15.909   1.285  1.00  0.00    -0.171 F 
HETATM   17  F   UNL     1      39.298 -15.944   2.128  1.00  0.00    -0.171 F 
HETATM   18  F   UNL     1      39.585 -15.472   0.021  1.00  0.00    -0.171 F 
ENDBRANCH  14  15
ENDBRANCH  13  14
ENDBRANCH   9  13
ENDBRANCH   3   7
BRANCH   5  19
HETATM   19  C   UNL     1      43.650 -18.579   4.054  1.00  0.00     0.079 A 
HETATM   20  C   UNL     1      43.831 -19.910   4.462  1.00  0.00     0.062 A 
HETATM   21 CL   UNL     1      44.128 -20.428   6.085  1.00  0.00    -0.082 Cl
HETATM   22  C   UNL     1      43.896 -20.931   3.498  1.00  0.00     0.026 A 
HETATM   23  C   UNL     1      43.801 -20.643   2.137  1.00  0.00     0.002 A 
HETATM   24  C   UNL     1      43.658 -19.326   1.724  1.00  0.00     0.002 A 
HETATM   25  C   UNL     1      43.591 -18.302   2.670  1.00  0.00     0.033 A 
ENDBRANCH   5  19
TORSDOF 5
ENDMDL
MODEL 8
REMARK VINA RESULT:      -7.2      1.988      2.701
REMARK  5 active torsions:
REMARK  status: ('A' for Active; 'I' for Inactive)
REMARK    1  A    between atoms: C_3  and  N_4 
REMARK       I    between atoms: N_4  and  C_5 
REMARK       I    between atoms: C_5  and  N_6 
REMARK    2  A    between atoms: N_6  and  C_7 
REMARK    3  A    between atoms: C_7  and  C_8 
REMARK    4  A    between atoms: C_8  and  C_9 
REMARK    5  A    between atoms: N_15  and  C_16 
ROOT
HETATM    1  C   UNL     1      42.138 -12.821   5.702  1.00  0.00     0.054 C 
HETATM    2  C   UNL     1      42.031 -14.081   4.928  1.00  0.00     0.003 A 
HETATM    3  C   UNL     1      40.997 -14.517   4.064  1.00  0.00     0.159 A 
HETATM    4  N   UNL     1      41.250 -15.733   3.572  1.00  0.00    -0.149 NA
HETATM    5  N   UNL     1      42.460 -16.095   4.083  1.00  0.00    -0.241 N 
HETATM    6  C   UNL     1      42.934 -15.122   4.930  1.00  0.00     0.129 A 
ENDROOT
BRANCH   3   7
HETATM    7  N   UNL     1      39.854 -13.797   3.790  1.00  0.00    -0.291 N 
HETATM    8  C   UNL     1      39.439 -13.263   2.610  1.00  0.00     0.321 C 
HETATM    9  N   UNL     1      40.305 -13.317   1.562  1.00  0.00    -0.343 N 
HETATM   10  O   UNL     1      38.336 -12.725   2.540  1.00  0.00    -0.247 OA
HETATM   11  H   UNL     1      41.109 -13.927   1.707  1.00  0.00     0.164 HD
HETATM   12  H   UNL     1      39.203 -13.650   4.545  1.00  0.00     0.172 HD
BRANCH   9  13
HETATM   13  C   UNL     1      39.964 -12.874   0.226  1.00  0.00     0.133 C 
BRANCH  13  14
HETATM   14  C   UNL     1      40.489 -13.812  -0.851  1.00  0.00     0.137 C 
BRANCH  14  15
HETATM   15  C   UNL     1      39.343 -14.452  -1.588  1.00  0.00     0.389 C 
HETATM   16  F   UNL     1      39.073 -15.688  -1.118  1.00  0.00    -0.171 F 
HETATM   17  F   UNL     1      38.219 -13.712  -1.466  1.00  0.00    -0.171 F 
HETATM   18  F   UNL     1      39.613 -14.564  -2.908  1.00  0.00    -0.171 F 
ENDBRANCH  14  15
ENDBRANCH  13  14
ENDBRANCH   9  13
ENDBRANCH   3   7
BRANCH   5  19
HETATM   19  C   UNL     1      43.007 -17.376   3.776  1.00  0.00     0.079 A 
HETATM   20  C   UNL     1      43.621 -18.224   4.710  1.00  0.00     0.062 A 
HETATM   21 CL   UNL     1      44.030 -17.793   6.335  1.00  0.00    -0.082 Cl
HETATM   22  C   UNL     1      44.062 -19.497   4.312  1.00  0.00     0.026 A 
HETATM   23  C   UNL     1      43.914 -19.930   2.994  1.00  0.00     0.002 A 
HETATM   24  C   UNL     1      43.340 -19.084   2.056  1.00  0.00     0.002 A 
HETATM   25  C   UNL     1      42.897 -17.817   2.438  1.00  0.00     0.033 A 
ENDBRANCH   5  19
TORSDOF 5
ENDMDL
MODEL 9
REMARK VINA RESULT:      -6.9      3.487      6.173
REMARK  5 active torsions:
REMARK  status: ('A' for Active; 'I' for Inactive)
REMARK    1  A    between atoms: C_3  and  N_4 
REMARK       I    between atoms: N_4  and  C_5 
REMARK       I    between atoms: C_5  and  N_6 
REMARK    2  A    between atoms: N_6  and  C_7 
REMARK    3  A    between atoms: C_7  and  C_8 
REMARK    4  A    between atoms: C_8  and  C_9 
REMARK    5  A    between atoms: N_15  and  C_16 
ROOT
HETATM    1  C   UNL     1      40.371 -16.440   5.975  1.00  0.00     0.054 C 
HETATM    2  C   UNL     1      41.060 -15.158   5.699  1.00  0.00     0.003 A 
HETATM    3  C   UNL     1      41.160 -14.436   4.485  1.00  0.00     0.159 A 
HETATM    4  N   UNL     1      41.895 -13.331   4.630  1.00  0.00    -0.149 NA
HETATM    5  N   UNL     1      42.262 -13.299   5.942  1.00  0.00    -0.241 N 
HETATM    6  C   UNL     1      41.791 -14.411   6.598  1.00  0.00     0.129 A 
ENDROOT
BRANCH   3   7
HETATM    7  N   UNL     1      40.601 -14.839   3.291  1.00  0.00    -0.291 N 
HETATM    8  C   UNL     1      40.959 -15.872   2.482  1.00  0.00     0.321 C 
HETATM    9  N   UNL     1      42.098 -16.545   2.796  1.00  0.00    -0.343 N 
HETATM   10  O   UNL     1      40.279 -16.133   1.492  1.00  0.00    -0.247 OA
HETATM   11  H   UNL     1      42.473 -16.335   3.721  1.00  0.00     0.164 HD
HETATM   12  H   UNL     1      39.798 -14.331   2.956  1.00  0.00     0.172 HD
BRANCH   9  13
HETATM   13  C   UNL     1      42.550 -17.720   2.082  1.00  0.00     0.133 C 
BRANCH  13  14
HETATM   14  C   UNL     1      43.532 -18.554   2.893  1.00  0.00     0.137 C 
BRANCH  14  15
HETATM   15  C   UNL     1      43.430 -20.005   2.503  1.00  0.00     0.389 C 
HETATM   16  F   UNL     1      44.447 -20.379   1.698  1.00  0.00    -0.171 F 
HETATM   17  F   UNL     1      43.457 -20.799   3.595  1.00  0.00    -0.171 F 
HETATM   18  F   UNL     1      42.274 -20.254   1.848  1.00  0.00    -0.171 F 
ENDBRANCH  14  15
ENDBRANCH  13  14
ENDBRANCH   9  13
ENDBRANCH   3   7
BRANCH   5  19
HETATM   19  C   UNL     1      43.098 -12.248   6.422  1.00  0.00     0.079 A 
HETATM   20  C   UNL     1      42.642 -10.968   6.775  1.00  0.00     0.062 A 
HETATM   21 CL   UNL     1      41.049 -10.358   6.488  1.00  0.00    -0.082 Cl
HETATM   22  C   UNL     1      43.543 -10.030   7.304  1.00  0.00     0.026 A 
HETATM   23  C   UNL     1      44.892 -10.342   7.472  1.00  0.00     0.002 A 
HETATM   24  C   UNL     1      45.358 -11.593   7.092  1.00  0.00     0.002 A 
HETATM   25  C   UNL     1      44.474 -12.535   6.565  1.00  0.00     0.033 A 
ENDBRANCH   5  19
TORSDOF 5
ENDMDL
MODEL 10
REMARK VINA RESULT:      -6.9      5.055      6.471
REMARK  5 active torsions:
REMARK  status: ('A' for Active; 'I' for Inactive)
REMARK    1  A    between atoms: C_3  and  N_4 
REMARK       I    between atoms: N_4  and  C_5 
REMARK       I    between atoms: C_5  and  N_6 
REMARK    2  A    between atoms: N_6  and  C_7 
REMARK    3  A    between atoms: C_7  and  C_8 
REMARK    4  A    between atoms: C_8  and  C_9 
REMARK    5  A    between atoms: N_15  and  C_16 
ROOT
HETATM    1  C   UNL     1      39.436 -12.730   5.789  1.00  0.00     0.054 C 
HETATM    2  C   UNL     1      40.714 -13.371   5.400  1.00  0.00     0.003 A 
HETATM    3  C   UNL     1      41.997 -12.791   5.240  1.00  0.00     0.159 A 
HETATM    4  N   UNL     1      42.898 -13.695   4.847  1.00  0.00    -0.149 NA
HETATM    5  N   UNL     1      42.228 -14.879   4.773  1.00  0.00    -0.241 N 
HETATM    6  C   UNL     1      40.899 -14.698   5.074  1.00  0.00     0.129 A 
ENDROOT
BRANCH   3   7
HETATM    7  N   UNL     1      42.276 -11.455   5.428  1.00  0.00    -0.291 N 
HETATM    8  C   UNL     1      43.007 -10.862   6.409  1.00  0.00     0.321 C 
HETATM    9  N   UNL     1      43.430 -11.649   7.435  1.00  0.00    -0.343 N 
HETATM   10  O   UNL     1      43.224  -9.653   6.361  1.00  0.00    -0.247 OA
HETATM   11  H   UNL     1      43.324 -12.651   7.272  1.00  0.00     0.164 HD
HETATM   12  H   UNL     1      41.924 -10.803   4.744  1.00  0.00     0.172 HD
BRANCH   9  13
HETATM   13  C   UNL     1      44.292 -11.176   8.498  1.00  0.00     0.133 C 
BRANCH  13  14
HETATM   14  C   UNL     1      43.525 -10.433   9.583  1.00  0.00     0.137 C 
BRANCH  14  15
HETATM   15  C   UNL     1      44.383 -10.272  10.810  1.00  0.00     0.389 C 
HETATM   16  F   UNL     1      45.695 -10.405  10.524  1.00  0.00    -0.171 F 
HETATM   17  F   UNL     1      44.205  -9.053  11.363  1.00  0.00    -0.171 F 
HETATM   18  F   UNL     1      44.071 -11.193  11.748  1.00  0.00    -0.171 F 
ENDBRANCH  14  15
ENDBRANCH  13  14
ENDBRANCH   9  13
ENDBRANCH   3   7
BRANCH   5  19
HETATM   19  C   UNL     1      42.908 -16.056   4.339  1.00  0.00     0.079 A 
HETATM   20  C   UNL     1      43.809 -16.789   5.127  1.00  0.00     0.062 A 
HETATM   21 CL   UNL     1      44.429 -16.292   6.664  1.00  0.00    -0.082 Cl
HETATM   22  C   UNL     1      44.369 -17.975   4.624  1.00  0.00     0.026 A 
HETATM   23  C   UNL     1      44.057 -18.431   3.343  1.00  0.00     0.002 A 
HETATM   24  C   UNL     1      43.195 -17.693   2.544  1.00  0.00     0.002 A 
HETATM   25  C   UNL     1      42.631 -16.513   3.032  1.00  0.00     0.033 A 
ENDBRANCH   5  19
TORSDOF 5
ENDMDL
