MODEL 1
REMARK VINA RESULT:      -9.3      0.000      0.000
REMARK  6 active torsions:
REMARK  status: ('A' for Active; 'I' for Inactive)
REMARK    1  A    between atoms: C_8  and  C_9 
REMARK    2  A    between atoms: N_10  and  N_11 
REMARK       I    between atoms: N_11  and  C_12 
REMARK    3  A    between atoms: C_12  and  C_13 
REMARK    4  A    between atoms: C_16  and  N_17 
REMARK    5  A    between atoms: N_17  and  C_18 
REMARK    6  A    between atoms: C_18  and  C_19 
ROOT
HETATM    1  C   UNL     1      44.307 -10.441   8.221  1.00  0.00     0.033 A 
HETATM    2  C   UNL     1      44.954 -10.133   9.420  1.00  0.00     0.019 A 
HETATM    3  C   UNL     1      44.491  -9.081  10.223  1.00  0.00     0.030 A 
HETATM    4  C   UNL     1      43.401  -8.292   9.835  1.00  0.00     0.028 A 
HETATM    5  C   UNL     1      42.765  -8.615   8.627  1.00  0.00     0.030 A 
HETATM    6  C   UNL     1      43.218  -9.663   7.819  1.00  0.00     0.019 A 
ENDROOT
BRANCH   1   7
HETATM    7  C   UNL     1      44.724 -11.576   7.349  1.00  0.00     0.271 C 
HETATM    8  N   UNL     1      43.827 -12.634   7.286  1.00  0.00    -0.243 N 
HETATM    9  H   UNL     1      43.000 -12.628   7.870  1.00  0.00     0.192 HD
HETATM   10  O   UNL     1      45.788 -11.490   6.744  1.00  0.00    -0.266 OA
BRANCH   8  11
HETATM   11  N   UNL     1      43.978 -13.809   6.596  1.00  0.00    -0.183 NA
HETATM   12  C   UNL     1      43.218 -14.818   6.879  1.00  0.00     0.152 C 
BRANCH  12  13
HETATM   13  C   UNL     1      43.377 -16.049   6.126  1.00  0.00     0.011 A 
HETATM   14  C   UNL     1      43.279 -16.214   4.707  1.00  0.00     0.004 A 
HETATM   15  C   UNL     1      43.024 -15.340   3.629  1.00  0.00     0.014 A 
HETATM   16  C   UNL     1      43.488 -17.566   4.427  1.00  0.00     0.043 A 
HETATM   17  C   UNL     1      42.985 -15.844   2.323  1.00  0.00     0.001 A 
HETATM   18  C   UNL     1      43.195 -17.199   2.080  1.00  0.00     0.002 A 
HETATM   19  C   UNL     1      43.453 -18.087   3.128  1.00  0.00     0.030 A 
HETATM   20  N   UNL     1      43.714 -18.198   5.627  1.00  0.00    -0.364 N 
HETATM   21  H   UNL     1      43.899 -19.187   5.729  1.00  0.00     0.165 HD
HETATM   22  C   UNL     1      43.645 -17.298   6.655  1.00  0.00     0.102 A 
ENDBRANCH  12  13
ENDBRANCH   8  11
ENDBRANCH   1   7
BRANCH   4  23
HETATM   23  N   UNL     1      42.828  -7.311  10.641  1.00  0.00    -0.386 N 
HETATM   24  H   UNL     1      43.300  -7.211  11.536  1.00  0.00     0.160 HD
BRANCH  23  25
HETATM   25  C   UNL     1      41.382  -7.182  10.755  1.00  0.00     0.158 C 
BRANCH  25  26
HETATM   26  C   UNL     1      40.833  -8.368  11.517  1.00  0.00    -0.038 A 
HETATM   27  C   UNL     1      39.967  -9.282  10.893  1.00  0.00     0.048 A 
HETATM   28  C   UNL     1      39.480 -10.330  11.646  1.00  0.00     0.105 A 
HETATM   29  C   UNL     1      39.821 -10.498  12.968  1.00  0.00     0.105 A 
HETATM   30  O   UNL     1      38.630 -11.296  11.203  1.00  0.00    -0.323 OA
HETATM   31  O   UNL     1      39.230 -11.590  13.521  1.00  0.00    -0.323 OA
HETATM   32  C   UNL     1      40.670  -9.629  13.614  1.00  0.00     0.040 A 
HETATM   33  C   UNL     1      38.471 -12.087  12.400  1.00  0.00     0.352 A 
HETATM   34  C   UNL     1      41.178  -8.553  12.878  1.00  0.00     0.012 A 
ENDBRANCH  25  26
ENDBRANCH  23  25
ENDBRANCH   4  23
TORSDOF 6
ENDMDL
MODEL 2
REMARK VINA RESULT:      -9.2      2.981     10.810
REMARK  6 active torsions:
REMARK  status: ('A' for Active; 'I' for Inactive)
REMARK    1  A    between atoms: C_8  and  C_9 
REMARK    2  A    between atoms: N_10  and  N_11 
REMARK       I    between atoms: N_11  and  C_12 
REMARK    3  A    between atoms: C_12  and  C_13 
REMARK    4  A    between atoms: C_16  and  N_17 
REMARK    5  A    between atoms: N_17  and  C_18 
REMARK    6  A    between atoms: C_18  and  C_19 
ROOT
HETATM    1  C   UNL     1      43.726 -12.222   6.771  1.00  0.00     0.033 A 
HETATM    2  C   UNL     1      43.590 -11.835   5.435  1.00  0.00     0.019 A 
HETATM    3  C   UNL     1      43.170 -12.762   4.471  1.00  0.00     0.030 A 
HETATM    4  C   UNL     1      42.911 -14.097   4.806  1.00  0.00     0.028 A 
HETATM    5  C   UNL     1      43.054 -14.467   6.151  1.00  0.00     0.030 A 
HETATM    6  C   UNL     1      43.472 -13.550   7.122  1.00  0.00     0.019 A 
ENDROOT
BRANCH   1   7
HETATM    7  C   UNL     1      44.124 -11.270   7.847  1.00  0.00     0.271 C 
HETATM    8  N   UNL     1      43.084 -10.533   8.398  1.00  0.00    -0.243 N 
HETATM    9  H   UNL     1      42.152 -10.609   8.010  1.00  0.00     0.192 HD
HETATM   10  O   UNL     1      45.304 -11.223   8.182  1.00  0.00    -0.266 OA
BRANCH   8  11
HETATM   11  N   UNL     1      43.175  -9.568   9.369  1.00  0.00    -0.183 NA
HETATM   12  C   UNL     1      42.183  -8.758   9.560  1.00  0.00     0.152 C 
BRANCH  12  13
HETATM   13  C   UNL     1      42.288  -7.755  10.604  1.00  0.00     0.011 A 
HETATM   14  C   UNL     1      42.266  -7.973  12.019  1.00  0.00     0.004 A 
HETATM   15  C   UNL     1      42.152  -9.118  12.837  1.00  0.00     0.014 A 
HETATM   16  C   UNL     1      42.380  -6.727  12.637  1.00  0.00     0.043 A 
HETATM   17  C   UNL     1      42.153  -8.975  14.230  1.00  0.00     0.001 A 
HETATM   18  C   UNL     1      42.266  -7.716  14.814  1.00  0.00     0.002 A 
HETATM   19  C   UNL     1      42.384  -6.566  14.028  1.00  0.00     0.030 A 
HETATM   20  N   UNL     1      42.478  -5.786  11.638  1.00  0.00    -0.364 N 
HETATM   21  H   UNL     1      42.574  -4.792  11.794  1.00  0.00     0.165 HD
HETATM   22  C   UNL     1      42.419  -6.392  10.413  1.00  0.00     0.102 A 
ENDBRANCH  12  13
ENDBRANCH   8  11
ENDBRANCH   1   7
BRANCH   4  23
HETATM   23  N   UNL     1      42.384 -15.032   3.917  1.00  0.00    -0.386 N 
HETATM   24  H   UNL     1      41.805 -15.730   4.377  1.00  0.00     0.160 HD
BRANCH  23  25
HETATM   25  C   UNL     1      43.197 -15.596   2.850  1.00  0.00     0.158 C 
BRANCH  25  26
HETATM   26  C   UNL     1      43.348 -17.085   3.071  1.00  0.00    -0.038 A 
HETATM   27  C   UNL     1      43.733 -17.589   4.325  1.00  0.00     0.048 A 
HETATM   28  C   UNL     1      43.876 -18.954   4.459  1.00  0.00     0.105 A 
HETATM   29  C   UNL     1      43.651 -19.817   3.412  1.00  0.00     0.105 A 
HETATM   30  O   UNL     1      44.247 -19.603   5.595  1.00  0.00    -0.323 OA
HETATM   31  O   UNL     1      43.851 -21.116   3.758  1.00  0.00    -0.323 OA
HETATM   32  C   UNL     1      43.268 -19.365   2.169  1.00  0.00     0.040 A 
HETATM   33  C   UNL     1      44.236 -20.973   5.141  1.00  0.00     0.352 A 
HETATM   34  C   UNL     1      43.118 -17.985   2.001  1.00  0.00     0.012 A 
ENDBRANCH  25  26
ENDBRANCH  23  25
ENDBRANCH   4  23
TORSDOF 6
ENDMDL
MODEL 3
REMARK VINA RESULT:      -9.1      2.299      3.510
REMARK  6 active torsions:
REMARK  status: ('A' for Active; 'I' for Inactive)
REMARK    1  A    between atoms: C_8  and  C_9 
REMARK    2  A    between atoms: N_10  and  N_11 
REMARK       I    between atoms: N_11  and  C_12 
REMARK    3  A    between atoms: C_12  and  C_13 
REMARK    4  A    between atoms: C_16  and  N_17 
REMARK    5  A    between atoms: N_17  and  C_18 
REMARK    6  A    between atoms: C_18  and  C_19 
ROOT
HETATM    1  C   UNL     1      43.391 -11.313   6.320  1.00  0.00     0.033 A 
HETATM    2  C   UNL     1      42.478 -10.266   6.465  1.00  0.00     0.019 A 
HETATM    3  C   UNL     1      42.529  -9.435   7.593  1.00  0.00     0.030 A 
HETATM    4  C   UNL     1      43.462  -9.649   8.615  1.00  0.00     0.028 A 
HETATM    5  C   UNL     1      44.369 -10.706   8.454  1.00  0.00     0.030 A 
HETATM    6  C   UNL     1      44.328 -11.541   7.332  1.00  0.00     0.019 A 
ENDROOT
BRANCH   1   7
HETATM    7  C   UNL     1      43.416 -12.200   5.123  1.00  0.00     0.271 C 
HETATM    8  N   UNL     1      43.100 -13.531   5.366  1.00  0.00    -0.243 N 
HETATM    9  H   UNL     1      42.949 -13.847   6.316  1.00  0.00     0.192 HD
HETATM   10  O   UNL     1      43.681 -11.706   4.031  1.00  0.00    -0.266 OA
BRANCH   8  11
HETATM   11  N   UNL     1      43.084 -14.559   4.458  1.00  0.00    -0.183 NA
HETATM   12  C   UNL     1      43.412 -15.752   4.839  1.00  0.00     0.152 C 
BRANCH  12  13
HETATM   13  C   UNL     1      43.372 -16.833   3.871  1.00  0.00     0.011 A 
HETATM   14  C   UNL     1      43.613 -18.223   4.115  1.00  0.00     0.004 A 
HETATM   15  C   UNL     1      43.939 -18.980   5.262  1.00  0.00     0.014 A 
HETATM   16  C   UNL     1      43.482 -18.892   2.897  1.00  0.00     0.043 A 
HETATM   17  C   UNL     1      44.124 -20.363   5.148  1.00  0.00     0.001 A 
HETATM   18  C   UNL     1      43.988 -20.997   3.917  1.00  0.00     0.002 A 
HETATM   19  C   UNL     1      43.662 -20.274   2.766  1.00  0.00     0.030 A 
HETATM   20  N   UNL     1      43.164 -17.948   1.949  1.00  0.00    -0.364 N 
HETATM   21  H   UNL     1      43.006 -18.148   0.971  1.00  0.00     0.165 HD
HETATM   22  C   UNL     1      43.099 -16.708   2.521  1.00  0.00     0.102 A 
ENDBRANCH  12  13
ENDBRANCH   8  11
ENDBRANCH   1   7
BRANCH   4  23
HETATM   23  N   UNL     1      43.633  -8.792   9.700  1.00  0.00    -0.386 N 
HETATM   24  H   UNL     1      43.928  -7.859   9.423  1.00  0.00     0.160 HD
BRANCH  23  25
HETATM   25  C   UNL     1      44.289  -9.244  10.919  1.00  0.00     0.158 C 
BRANCH  25  26
HETATM   26  C   UNL     1      43.348  -9.059  12.089  1.00  0.00    -0.038 A 
HETATM   27  C   UNL     1      43.490  -7.962  12.956  1.00  0.00     0.048 A 
HETATM   28  C   UNL     1      42.617  -7.859  14.020  1.00  0.00     0.105 A 
HETATM   29  C   UNL     1      41.628  -8.789  14.243  1.00  0.00     0.105 A 
HETATM   30  O   UNL     1      42.619  -6.871  14.953  1.00  0.00    -0.323 OA
HETATM   31  O   UNL     1      40.884  -8.501  15.343  1.00  0.00    -0.323 OA
HETATM   32  C   UNL     1      41.453  -9.874  13.415  1.00  0.00     0.040 A 
HETATM   33  C   UNL     1      41.522  -7.288  15.793  1.00  0.00     0.352 A 
HETATM   34  C   UNL     1      42.324 -10.008  12.329  1.00  0.00     0.012 A 
ENDBRANCH  25  26
ENDBRANCH  23  25
ENDBRANCH   4  23
TORSDOF 6
ENDMDL
MODEL 4
REMARK VINA RESULT:      -9.1      2.360      3.369
REMARK  6 active torsions:
REMARK  status: ('A' for Active; 'I' for Inactive)
REMARK    1  A    between atoms: C_8  and  C_9 
REMARK    2  A    between atoms: N_10  and  N_11 
REMARK       I    between atoms: N_11  and  C_12 
REMARK    3  A    between atoms: C_12  and  C_13 
REMARK    4  A    between atoms: C_16  and  N_17 
REMARK    5  A    between atoms: N_17  and  C_18 
REMARK    6  A    between atoms: C_18  and  C_19 
ROOT
HETATM    1  C   UNL     1      43.837 -11.083   7.009  1.00  0.00     0.033 A 
HETATM    2  C   UNL     1      44.880 -11.131   7.938  1.00  0.00     0.019 A 
HETATM    3  C   UNL     1      44.771 -10.448   9.158  1.00  0.00     0.030 A 
HETATM    4  C   UNL     1      43.643  -9.676   9.464  1.00  0.00     0.028 A 
HETATM    5  C   UNL     1      42.608  -9.639   8.519  1.00  0.00     0.030 A 
HETATM    6  C   UNL     1      42.705 -10.317   7.299  1.00  0.00     0.019 A 
ENDROOT
BRANCH   1   7
HETATM    7  C   UNL     1      43.876 -11.825   5.717  1.00  0.00     0.271 C 
HETATM    8  N   UNL     1      43.258 -13.068   5.731  1.00  0.00    -0.243 N 
HETATM    9  H   UNL     1      42.891 -13.439   6.600  1.00  0.00     0.192 HD
HETATM   10  O   UNL     1      44.413 -11.293   4.750  1.00  0.00    -0.266 OA
BRANCH   8  11
HETATM   11  N   UNL     1      43.181 -13.968   4.699  1.00  0.00    -0.183 NA
HETATM   12  C   UNL     1      43.184 -15.237   4.956  1.00  0.00     0.152 C 
BRANCH  12  13
HETATM   13  C   UNL     1      43.083 -16.176   3.853  1.00  0.00     0.011 A 
HETATM   14  C   UNL     1      43.413 -17.569   3.870  1.00  0.00     0.004 A 
HETATM   15  C   UNL     1      43.903 -18.454   4.855  1.00  0.00     0.014 A 
HETATM   16  C   UNL     1      43.174 -18.072   2.590  1.00  0.00     0.043 A 
HETATM   17  C   UNL     1      44.136 -19.795   4.526  1.00  0.00     0.001 A 
HETATM   18  C   UNL     1      43.889 -20.262   3.239  1.00  0.00     0.002 A 
HETATM   19  C   UNL     1      43.401 -19.410   2.244  1.00  0.00     0.030 A 
HETATM   20  N   UNL     1      42.707 -17.028   1.825  1.00  0.00    -0.364 N 
HETATM   21  H   UNL     1      42.448 -17.102   0.851  1.00  0.00     0.165 HD
HETATM   22  C   UNL     1      42.652 -15.884   2.572  1.00  0.00     0.102 A 
ENDBRANCH  12  13
ENDBRANCH   8  11
ENDBRANCH   1   7
BRANCH   4  23
HETATM   23  N   UNL     1      43.430  -9.071  10.701  1.00  0.00    -0.386 N 
HETATM   24  H   UNL     1      44.292  -8.919  11.219  1.00  0.00     0.160 HD
BRANCH  23  25
HETATM   25  C   UNL     1      42.327  -9.481  11.558  1.00  0.00     0.158 C 
BRANCH  25  26
HETATM   26  C   UNL     1      42.392  -8.710  12.858  1.00  0.00    -0.038 A 
HETATM   27  C   UNL     1      41.506  -9.001  13.909  1.00  0.00     0.048 A 
HETATM   28  C   UNL     1      41.597  -8.249  15.061  1.00  0.00     0.105 A 
HETATM   29  C   UNL     1      42.521  -7.240  15.201  1.00  0.00     0.105 A 
HETATM   30  O   UNL     1      40.816  -8.393  16.165  1.00  0.00    -0.323 OA
HETATM   31  O   UNL     1      42.438  -6.624  16.410  1.00  0.00    -0.323 OA
HETATM   32  C   UNL     1      43.409  -6.925  14.198  1.00  0.00     0.040 A 
HETATM   33  C   UNL     1      41.351  -7.355  17.014  1.00  0.00     0.352 A 
HETATM   34  C   UNL     1      43.340  -7.669  13.015  1.00  0.00     0.012 A 
ENDBRANCH  25  26
ENDBRANCH  23  25
ENDBRANCH   4  23
TORSDOF 6
ENDMDL
MODEL 5
REMARK VINA RESULT:      -8.9      2.721      3.415
REMARK  6 active torsions:
REMARK  status: ('A' for Active; 'I' for Inactive)
REMARK    1  A    between atoms: C_8  and  C_9 
REMARK    2  A    between atoms: N_10  and  N_11 
REMARK       I    between atoms: N_11  and  C_12 
REMARK    3  A    between atoms: C_12  and  C_13 
REMARK    4  A    between atoms: C_16  and  N_17 
REMARK    5  A    between atoms: N_17  and  C_18 
REMARK    6  A    between atoms: C_18  and  C_19 
ROOT
HETATM    1  C   UNL     1      44.299 -10.749   7.376  1.00  0.00     0.033 A 
HETATM    2  C   UNL     1      45.439 -10.512   8.149  1.00  0.00     0.019 A 
HETATM    3  C   UNL     1      45.338  -9.811   9.359  1.00  0.00     0.030 A 
HETATM    4  C   UNL     1      44.113  -9.301   9.808  1.00  0.00     0.028 A 
HETATM    5  C   UNL     1      42.981  -9.547   9.018  1.00  0.00     0.030 A 
HETATM    6  C   UNL     1      43.069 -10.246   7.810  1.00  0.00     0.019 A 
ENDROOT
BRANCH   1   7
HETATM    7  C   UNL     1      44.336 -11.526   6.105  1.00  0.00     0.271 C 
HETATM    8  N   UNL     1      43.400 -12.547   6.010  1.00  0.00    -0.243 N 
HETATM    9  H   UNL     1      42.809 -12.765   6.804  1.00  0.00     0.192 HD
HETATM   10  O   UNL     1      45.149 -11.205   5.244  1.00  0.00    -0.266 OA
BRANCH   8  11
HETATM   11  N   UNL     1      43.241 -13.433   4.975  1.00  0.00    -0.183 NA
HETATM   12  C   UNL     1      42.652 -14.567   5.189  1.00  0.00     0.152 C 
BRANCH  12  13
HETATM   13  C   UNL     1      42.475 -15.485   4.078  1.00  0.00     0.011 A 
HETATM   14  C   UNL     1      43.091 -16.766   3.908  1.00  0.00     0.004 A 
HETATM   15  C   UNL     1      43.997 -17.533   4.673  1.00  0.00     0.014 A 
HETATM   16  C   UNL     1      42.645 -17.289   2.693  1.00  0.00     0.043 A 
HETATM   17  C   UNL     1      44.422 -18.779   4.197  1.00  0.00     0.001 A 
HETATM   18  C   UNL     1      43.958 -19.269   2.979  1.00  0.00     0.002 A 
HETATM   19  C   UNL     1      43.058 -18.533   2.203  1.00  0.00     0.030 A 
HETATM   20  N   UNL     1      41.782 -16.366   2.148  1.00  0.00    -0.364 N 
HETATM   21  H   UNL     1      41.303 -16.480   1.266  1.00  0.00     0.165 HD
HETATM   22  C   UNL     1      41.676 -15.277   2.969  1.00  0.00     0.102 A 
ENDBRANCH  12  13
ENDBRANCH   8  11
ENDBRANCH   1   7
BRANCH   4  23
HETATM   23  N   UNL     1      43.933  -8.699  11.051  1.00  0.00    -0.386 N 
HETATM   24  H   UNL     1      44.727  -8.130  11.333  1.00  0.00     0.160 HD
BRANCH  23  25
HETATM   25  C   UNL     1      43.350  -9.434  12.165  1.00  0.00     0.158 C 
BRANCH  25  26
HETATM   26  C   UNL     1      42.670  -8.463  13.104  1.00  0.00    -0.038 A 
HETATM   27  C   UNL     1      42.665  -7.085  12.829  1.00  0.00     0.048 A 
HETATM   28  C   UNL     1      42.049  -6.245  13.734  1.00  0.00     0.105 A 
HETATM   29  C   UNL     1      41.449  -6.721  14.877  1.00  0.00     0.105 A 
HETATM   30  O   UNL     1      41.960  -4.893  13.626  1.00  0.00    -0.323 OA
HETATM   31  O   UNL     1      40.906  -5.727  15.629  1.00  0.00    -0.323 OA
HETATM   32  C   UNL     1      41.428  -8.063  15.180  1.00  0.00     0.040 A 
HETATM   33  C   UNL     1      41.240  -4.570  14.834  1.00  0.00     0.352 A 
HETATM   34  C   UNL     1      42.047  -8.939  14.283  1.00  0.00     0.012 A 
ENDBRANCH  25  26
ENDBRANCH  23  25
ENDBRANCH   4  23
TORSDOF 6
ENDMDL
MODEL 6
REMARK VINA RESULT:      -8.7      8.329     11.611
REMARK  6 active torsions:
REMARK  status: ('A' for Active; 'I' for Inactive)
REMARK    1  A    between atoms: C_8  and  C_9 
REMARK    2  A    between atoms: N_10  and  N_11 
REMARK       I    between atoms: N_11  and  C_12 
REMARK    3  A    between atoms: C_12  and  C_13 
REMARK    4  A    between atoms: C_16  and  N_17 
REMARK    5  A    between atoms: N_17  and  C_18 
REMARK    6  A    between atoms: C_18  and  C_19 
ROOT
HETATM    1  C   UNL     1      39.657 -13.957  -0.654  1.00  0.00     0.033 A 
HETATM    2  C   UNL     1      39.279 -12.694  -0.192  1.00  0.00     0.019 A 
HETATM    3  C   UNL     1      38.706 -11.763  -1.069  1.00  0.00     0.030 A 
HETATM    4  C   UNL     1      38.531 -12.054  -2.428  1.00  0.00     0.028 A 
HETATM    5  C   UNL     1      38.917 -13.326  -2.874  1.00  0.00     0.030 A 
HETATM    6  C   UNL     1      39.489 -14.263  -2.007  1.00  0.00     0.019 A 
ENDROOT
BRANCH   1   7
HETATM    7  C   UNL     1      40.228 -15.004   0.241  1.00  0.00     0.271 C 
HETATM    8  N   UNL     1      41.551 -14.805   0.615  1.00  0.00    -0.243 N 
HETATM    9  H   UNL     1      42.075 -14.033   0.219  1.00  0.00     0.192 HD
HETATM   10  O   UNL     1      39.506 -15.930   0.597  1.00  0.00    -0.266 OA
BRANCH   8  11
HETATM   11  N   UNL     1      42.325 -15.626   1.394  1.00  0.00    -0.183 NA
HETATM   12  C   UNL     1      42.106 -15.691   2.668  1.00  0.00     0.152 C 
BRANCH  12  13
HETATM   13  C   UNL     1      42.922 -16.580   3.475  1.00  0.00     0.011 A 
HETATM   14  C   UNL     1      43.200 -17.963   3.228  1.00  0.00     0.004 A 
HETATM   15  C   UNL     1      42.829 -18.877   2.218  1.00  0.00     0.014 A 
HETATM   16  C   UNL     1      44.012 -18.420   4.267  1.00  0.00     0.043 A 
HETATM   17  C   UNL     1      43.277 -20.201   2.286  1.00  0.00     0.001 A 
HETATM   18  C   UNL     1      44.085 -20.624   3.338  1.00  0.00     0.002 A 
HETATM   19  C   UNL     1      44.471 -19.740   4.350  1.00  0.00     0.030 A 
HETATM   20  N   UNL     1      44.230 -17.354   5.110  1.00  0.00    -0.364 N 
HETATM   21  H   UNL     1      44.789 -17.392   5.951  1.00  0.00     0.165 HD
HETATM   22  C   UNL     1      43.577 -16.245   4.646  1.00  0.00     0.102 A 
ENDBRANCH  12  13
ENDBRANCH   8  11
ENDBRANCH   1   7
BRANCH   4  23
HETATM   23  N   UNL     1      37.866 -11.215  -3.321  1.00  0.00    -0.386 N 
HETATM   24  H   UNL     1      38.390 -11.056  -4.178  1.00  0.00     0.160 HD
BRANCH  23  25
HETATM   25  C   UNL     1      37.178 -10.019  -2.858  1.00  0.00     0.158 C 
BRANCH  25  26
HETATM   26  C   UNL     1      35.683 -10.232  -2.956  1.00  0.00    -0.038 A 
HETATM   27  C   UNL     1      34.793  -9.398  -2.260  1.00  0.00     0.048 A 
HETATM   28  C   UNL     1      33.442  -9.656  -2.370  1.00  0.00     0.105 A 
HETATM   29  C   UNL     1      32.958 -10.692  -3.135  1.00  0.00     0.105 A 
HETATM   30  O   UNL     1      32.449  -8.955  -1.760  1.00  0.00    -0.323 OA
HETATM   31  O   UNL     1      31.602 -10.771  -3.103  1.00  0.00    -0.323 OA
HETATM   32  C   UNL     1      33.797 -11.529  -3.836  1.00  0.00     0.040 A 
HETATM   33  C   UNL     1      31.286  -9.672  -2.224  1.00  0.00     0.352 A 
HETATM   34  C   UNL     1      35.172 -11.294  -3.742  1.00  0.00     0.012 A 
ENDBRANCH  25  26
ENDBRANCH  23  25
ENDBRANCH   4  23
TORSDOF 6
ENDMDL
MODEL 7
REMARK VINA RESULT:      -8.7      3.547     10.906
REMARK  6 active torsions:
REMARK  status: ('A' for Active; 'I' for Inactive)
REMARK    1  A    between atoms: C_8  and  C_9 
REMARK    2  A    between atoms: N_10  and  N_11 
REMARK       I    between atoms: N_11  and  C_12 
REMARK    3  A    between atoms: C_12  and  C_13 
REMARK    4  A    between atoms: C_16  and  N_17 
REMARK    5  A    between atoms: N_17  and  C_18 
REMARK    6  A    between atoms: C_18  and  C_19 
ROOT
HETATM    1  C   UNL     1      39.947 -12.235   5.813  1.00  0.00     0.033 A 
HETATM    2  C   UNL     1      40.227 -13.544   6.212  1.00  0.00     0.019 A 
HETATM    3  C   UNL     1      40.755 -14.464   5.295  1.00  0.00     0.030 A 
HETATM    4  C   UNL     1      40.980 -14.115   3.957  1.00  0.00     0.028 A 
HETATM    5  C   UNL     1      40.691 -12.797   3.575  1.00  0.00     0.030 A 
HETATM    6  C   UNL     1      40.165 -11.870   4.481  1.00  0.00     0.019 A 
ENDROOT
BRANCH   1   7
HETATM    7  C   UNL     1      39.429 -11.200   6.752  1.00  0.00     0.271 C 
HETATM    8  N   UNL     1      40.402 -10.466   7.418  1.00  0.00    -0.243 N 
HETATM    9  H   UNL     1      41.380 -10.705   7.303  1.00  0.00     0.192 HD
HETATM   10  O   UNL     1      38.215 -11.053   6.853  1.00  0.00    -0.266 OA
BRANCH   8  11
HETATM   11  N   UNL     1      40.205  -9.487   8.358  1.00  0.00    -0.183 NA
HETATM   12  C   UNL     1      41.155  -9.199   9.189  1.00  0.00     0.152 C 
BRANCH  12  13
HETATM   13  C   UNL     1      40.937  -8.147  10.166  1.00  0.00     0.011 A 
HETATM   14  C   UNL     1      41.709  -7.886  11.343  1.00  0.00     0.004 A 
HETATM   15  C   UNL     1      42.846  -8.483  11.928  1.00  0.00     0.014 A 
HETATM   16  C   UNL     1      41.131  -6.792  11.989  1.00  0.00     0.043 A 
HETATM   17  C   UNL     1      43.356  -7.972  13.128  1.00  0.00     0.001 A 
HETATM   18  C   UNL     1      42.753  -6.881  13.747  1.00  0.00     0.002 A 
HETATM   19  C   UNL     1      41.628  -6.267  13.188  1.00  0.00     0.030 A 
HETATM   20  N   UNL     1      40.054  -6.396  11.230  1.00  0.00    -0.364 N 
HETATM   21  H   UNL     1      39.447  -5.620  11.457  1.00  0.00     0.165 HD
HETATM   22  C   UNL     1      39.926  -7.204  10.135  1.00  0.00     0.102 A 
ENDBRANCH  12  13
ENDBRANCH   8  11
ENDBRANCH   1   7
BRANCH   4  23
HETATM   23  N   UNL     1      41.605 -14.948   3.033  1.00  0.00    -0.386 N 
HETATM   24  H   UNL     1      41.053 -15.772   2.808  1.00  0.00     0.160 HD
BRANCH  23  25
HETATM   25  C   UNL     1      43.029 -15.239   3.125  1.00  0.00     0.158 C 
BRANCH  25  26
HETATM   26  C   UNL     1      43.227 -16.734   3.246  1.00  0.00    -0.038 A 
HETATM   27  C   UNL     1      43.588 -17.312   4.474  1.00  0.00     0.048 A 
HETATM   28  C   UNL     1      43.777 -18.677   4.518  1.00  0.00     0.105 A 
HETATM   29  C   UNL     1      43.619 -19.470   3.405  1.00  0.00     0.105 A 
HETATM   30  O   UNL     1      44.134 -19.393   5.617  1.00  0.00    -0.323 OA
HETATM   31  O   UNL     1      43.856 -20.783   3.665  1.00  0.00    -0.323 OA
HETATM   32  C   UNL     1      43.261 -18.944   2.184  1.00  0.00     0.040 A 
HETATM   33  C   UNL     1      44.189 -20.727   5.068  1.00  0.00     0.352 A 
HETATM   34  C   UNL     1      43.065 -17.561   2.108  1.00  0.00     0.012 A 
ENDBRANCH  25  26
ENDBRANCH  23  25
ENDBRANCH   4  23
TORSDOF 6
ENDMDL
MODEL 8
REMARK VINA RESULT:      -8.5      2.384      2.845
REMARK  6 active torsions:
REMARK  status: ('A' for Active; 'I' for Inactive)
REMARK    1  A    between atoms: C_8  and  C_9 
REMARK    2  A    between atoms: N_10  and  N_11 
REMARK       I    between atoms: N_11  and  C_12 
REMARK    3  A    between atoms: C_12  and  C_13 
REMARK    4  A    between atoms: C_16  and  N_17 
REMARK    5  A    between atoms: N_17  and  C_18 
REMARK    6  A    between atoms: C_18  and  C_19 
ROOT
HETATM    1  C   UNL     1      44.265 -10.155   8.787  1.00  0.00     0.033 A 
HETATM    2  C   UNL     1      43.901 -10.401  10.114  1.00  0.00     0.019 A 
HETATM    3  C   UNL     1      43.410  -9.361  10.916  1.00  0.00     0.030 A 
HETATM    4  C   UNL     1      43.304  -8.052  10.429  1.00  0.00     0.028 A 
HETATM    5  C   UNL     1      43.675  -7.824   9.096  1.00  0.00     0.030 A 
HETATM    6  C   UNL     1      44.165  -8.854   8.287  1.00  0.00     0.019 A 
ENDROOT
BRANCH   1   7
HETATM    7  C   UNL     1      44.749 -11.228   7.873  1.00  0.00     0.271 C 
HETATM    8  N   UNL     1      43.806 -12.191   7.539  1.00  0.00    -0.243 N 
HETATM    9  H   UNL     1      42.891 -12.171   7.973  1.00  0.00     0.192 HD
HETATM   10  O   UNL     1      45.907 -11.177   7.469  1.00  0.00    -0.266 OA
BRANCH   8  11
HETATM   11  N   UNL     1      43.994 -13.299   6.754  1.00  0.00    -0.183 NA
HETATM   12  C   UNL     1      43.260 -14.349   6.944  1.00  0.00     0.152 C 
BRANCH  12  13
HETATM   13  C   UNL     1      43.458 -15.507   6.091  1.00  0.00     0.011 A 
HETATM   14  C   UNL     1      43.260 -15.583   4.675  1.00  0.00     0.004 A 
HETATM   15  C   UNL     1      42.847 -14.663   3.687  1.00  0.00     0.014 A 
HETATM   16  C   UNL     1      43.555 -16.888   4.279  1.00  0.00     0.043 A 
HETATM   17  C   UNL     1      42.743 -15.078   2.354  1.00  0.00     0.001 A 
HETATM   18  C   UNL     1      43.044 -16.390   1.995  1.00  0.00     0.002 A 
HETATM   19  C   UNL     1      43.458 -17.321   2.952  1.00  0.00     0.030 A 
HETATM   20  N   UNL     1      43.929 -17.579   5.409  1.00  0.00    -0.364 N 
HETATM   21  H   UNL     1      44.202 -18.552   5.423  1.00  0.00     0.165 HD
HETATM   22  C   UNL     1      43.870 -16.761   6.503  1.00  0.00     0.102 A 
ENDBRANCH  12  13
ENDBRANCH   8  11
ENDBRANCH   1   7
BRANCH   4  23
HETATM   23  N   UNL     1      42.719  -7.006  11.140  1.00  0.00    -0.386 N 
HETATM   24  H   UNL     1      43.346  -6.598  11.828  1.00  0.00     0.160 HD
BRANCH  23  25
HETATM   25  C   UNL     1      41.347  -7.097  11.619  1.00  0.00     0.158 C 
BRANCH  25  26
HETATM   26  C   UNL     1      41.339  -7.014  13.129  1.00  0.00    -0.038 A 
HETATM   27  C   UNL     1      40.151  -6.732  13.825  1.00  0.00     0.048 A 
HETATM   28  C   UNL     1      40.210  -6.646  15.200  1.00  0.00     0.105 A 
HETATM   29  C   UNL     1      41.385  -6.829  15.892  1.00  0.00     0.105 A 
HETATM   30  O   UNL     1      39.162  -6.376  16.023  1.00  0.00    -0.323 OA
HETATM   31  O   UNL     1      41.222  -6.698  17.235  1.00  0.00    -0.323 OA
HETATM   32  C   UNL     1      42.569  -7.111  15.248  1.00  0.00     0.040 A 
HETATM   33  C   UNL     1      39.812  -6.403  17.311  1.00  0.00     0.352 A 
HETATM   34  C   UNL     1      42.542  -7.202  13.853  1.00  0.00     0.012 A 
ENDBRANCH  25  26
ENDBRANCH  23  25
ENDBRANCH   4  23
TORSDOF 6
ENDMDL
MODEL 9
REMARK VINA RESULT:      -8.4      8.022     11.170
REMARK  6 active torsions:
REMARK  status: ('A' for Active; 'I' for Inactive)
REMARK    1  A    between atoms: C_8  and  C_9 
REMARK    2  A    between atoms: N_10  and  N_11 
REMARK       I    between atoms: N_11  and  C_12 
REMARK    3  A    between atoms: C_12  and  C_13 
REMARK    4  A    between atoms: C_16  and  N_17 
REMARK    5  A    between atoms: N_17  and  C_18 
REMARK    6  A    between atoms: C_18  and  C_19 
ROOT
HETATM    1  C   UNL     1      40.327 -13.567  -0.463  1.00  0.00     0.033 A 
HETATM    2  C   UNL     1      39.370 -13.653  -1.477  1.00  0.00     0.019 A 
HETATM    3  C   UNL     1      39.102 -12.544  -2.291  1.00  0.00     0.030 A 
HETATM    4  C   UNL     1      39.751 -11.318  -2.092  1.00  0.00     0.028 A 
HETATM    5  C   UNL     1      40.706 -11.250  -1.068  1.00  0.00     0.030 A 
HETATM    6  C   UNL     1      40.983 -12.351  -0.250  1.00  0.00     0.019 A 
ENDROOT
BRANCH   1   7
HETATM    7  C   UNL     1      40.688 -14.725   0.404  1.00  0.00     0.271 C 
HETATM    8  N   UNL     1      42.014 -14.766   0.813  1.00  0.00    -0.243 N 
HETATM    9  H   UNL     1      42.672 -14.082   0.458  1.00  0.00     0.192 HD
HETATM   10  O   UNL     1      39.810 -15.526   0.709  1.00  0.00    -0.266 OA
BRANCH   8  11
HETATM   11  N   UNL     1      42.617 -15.733   1.577  1.00  0.00    -0.183 NA
HETATM   12  C   UNL     1      42.554 -15.658   2.868  1.00  0.00     0.152 C 
BRANCH  12  13
HETATM   13  C   UNL     1      43.181 -16.700   3.662  1.00  0.00     0.011 A 
HETATM   14  C   UNL     1      43.322 -18.083   3.318  1.00  0.00     0.004 A 
HETATM   15  C   UNL     1      42.949 -18.864   2.203  1.00  0.00     0.014 A 
HETATM   16  C   UNL     1      43.971 -18.715   4.380  1.00  0.00     0.043 A 
HETATM   17  C   UNL     1      43.234 -20.234   2.191  1.00  0.00     0.001 A 
HETATM   18  C   UNL     1      43.882 -20.832   3.269  1.00  0.00     0.002 A 
HETATM   19  C   UNL     1      44.266 -20.083   4.385  1.00  0.00     0.030 A 
HETATM   20  N   UNL     1      44.226 -17.752   5.329  1.00  0.00    -0.364 N 
HETATM   21  H   UNL     1      44.693 -17.924   6.209  1.00  0.00     0.165 HD
HETATM   22  C   UNL     1      43.752 -16.540   4.911  1.00  0.00     0.102 A 
ENDBRANCH  12  13
ENDBRANCH   8  11
ENDBRANCH   1   7
BRANCH   4  23
HETATM   23  N   UNL     1      39.609 -10.220  -2.937  1.00  0.00    -0.386 N 
HETATM   24  H   UNL     1      38.691 -10.171  -3.370  1.00  0.00     0.160 HD
BRANCH  23  25
HETATM   25  C   UNL     1      40.677  -9.829  -3.847  1.00  0.00     0.158 C 
BRANCH  25  26
HETATM   26  C   UNL     1      41.145  -8.433  -3.498  1.00  0.00    -0.038 A 
HETATM   27  C   UNL     1      42.259  -8.238  -2.665  1.00  0.00     0.048 A 
HETATM   28  C   UNL     1      42.624  -6.943  -2.363  1.00  0.00     0.105 A 
HETATM   29  C   UNL     1      41.935  -5.859  -2.854  1.00  0.00     0.105 A 
HETATM   30  O   UNL     1      43.667  -6.578  -1.570  1.00  0.00    -0.323 OA
HETATM   31  O   UNL     1      42.458  -4.677  -2.433  1.00  0.00    -0.323 OA
HETATM   32  C   UNL     1      40.841  -6.007  -3.677  1.00  0.00     0.040 A 
HETATM   33  C   UNL     1      43.551  -5.140  -1.613  1.00  0.00     0.352 A 
HETATM   34  C   UNL     1      40.444  -7.309  -3.998  1.00  0.00     0.012 A 
ENDBRANCH  25  26
ENDBRANCH  23  25
ENDBRANCH   4  23
TORSDOF 6
ENDMDL
MODEL 10
REMARK VINA RESULT:      -8.2      8.190     12.439
REMARK  6 active torsions:
REMARK  status: ('A' for Active; 'I' for Inactive)
REMARK    1  A    between atoms: C_8  and  C_9 
REMARK    2  A    between atoms: N_10  and  N_11 
REMARK       I    between atoms: N_11  and  C_12 
REMARK    3  A    between atoms: C_12  and  C_13 
REMARK    4  A    between atoms: C_16  and  N_17 
REMARK    5  A    between atoms: N_17  and  C_18 
REMARK    6  A    between atoms: C_18  and  C_19 
ROOT
HETATM    1  C   UNL     1      39.910 -13.436  -0.988  1.00  0.00     0.033 A 
HETATM    2  C   UNL     1      40.782 -13.062  -2.013  1.00  0.00     0.019 A 
HETATM    3  C   UNL     1      40.385 -12.114  -2.967  1.00  0.00     0.030 A 
HETATM    4  C   UNL     1      39.105 -11.548  -2.944  1.00  0.00     0.028 A 
HETATM    5  C   UNL     1      38.242 -11.937  -1.909  1.00  0.00     0.030 A 
HETATM    6  C   UNL     1      38.628 -12.881  -0.952  1.00  0.00     0.019 A 
ENDROOT
BRANCH   1   7
HETATM    7  C   UNL     1      40.291 -14.403   0.080  1.00  0.00     0.271 C 
HETATM    8  N   UNL     1      41.334 -13.996   0.901  1.00  0.00    -0.243 N 
HETATM    9  H   UNL     1      41.825 -13.133   0.701  1.00  0.00     0.192 HD
HETATM   10  O   UNL     1      39.660 -15.451   0.177  1.00  0.00    -0.266 OA
BRANCH   8  11
HETATM   11  N   UNL     1      41.906 -14.702   1.929  1.00  0.00    -0.183 NA
HETATM   12  C   UNL     1      42.386 -15.883   1.703  1.00  0.00     0.152 C 
BRANCH  12  13
HETATM   13  C   UNL     1      43.005 -16.609   2.798  1.00  0.00     0.011 A 
HETATM   14  C   UNL     1      43.259 -18.016   2.868  1.00  0.00     0.004 A 
HETATM   15  C   UNL     1      43.033 -19.103   1.996  1.00  0.00     0.014 A 
HETATM   16  C   UNL     1      43.853 -18.274   4.105  1.00  0.00     0.043 A 
HETATM   17  C   UNL     1      43.402 -20.395   2.390  1.00  0.00     0.001 A 
HETATM   18  C   UNL     1      43.990 -20.616   3.633  1.00  0.00     0.002 A 
HETATM   19  C   UNL     1      44.229 -19.559   4.515  1.00  0.00     0.030 A 
HETATM   20  N   UNL     1      43.965 -17.069   4.759  1.00  0.00    -0.364 N 
HETATM   21  H   UNL     1      44.363 -16.951   5.680  1.00  0.00     0.165 HD
HETATM   22  C   UNL     1      43.455 -16.063   3.986  1.00  0.00     0.102 A 
ENDBRANCH  12  13
ENDBRANCH   8  11
ENDBRANCH   1   7
BRANCH   4  23
HETATM   23  N   UNL     1      38.695 -10.522  -3.794  1.00  0.00    -0.386 N 
HETATM   24  H   UNL     1      38.968 -10.678  -4.761  1.00  0.00     0.160 HD
BRANCH  23  25
HETATM   25  C   UNL     1      38.815  -9.126  -3.399  1.00  0.00     0.158 C 
BRANCH  25  26
HETATM   26  C   UNL     1      39.692  -8.399  -4.394  1.00  0.00    -0.038 A 
HETATM   27  C   UNL     1      41.001  -8.019  -4.052  1.00  0.00     0.048 A 
HETATM   28  C   UNL     1      41.745  -7.338  -4.993  1.00  0.00     0.105 A 
HETATM   29  C   UNL     1      41.242  -7.031  -6.236  1.00  0.00     0.105 A 
HETATM   30  O   UNL     1      43.019  -6.893  -4.825  1.00  0.00    -0.323 OA
HETATM   31  O   UNL     1      42.137  -6.356  -7.006  1.00  0.00    -0.323 OA
HETATM   32  C   UNL     1      39.967  -7.389  -6.612  1.00  0.00     0.040 A 
HETATM   33  C   UNL     1      43.258  -6.265  -6.103  1.00  0.00     0.352 A 
HETATM   34  C   UNL     1      39.187  -8.078  -5.678  1.00  0.00     0.012 A 
ENDBRANCH  25  26
ENDBRANCH  23  25
ENDBRANCH   4  23
TORSDOF 6
ENDMDL
