MODEL 1
REMARK VINA RESULT:      -8.3      0.000      0.000
REMARK  9 active torsions:
REMARK  status: ('A' for Active; 'I' for Inactive)
REMARK    1  A    between atoms: C_2  and  C_3 
REMARK    2  A    between atoms: C_6  and  N_7 
REMARK    3  A    between atoms: N_7  and  S_8 
REMARK    4  A    between atoms: S_8  and  C_9 
REMARK    5  A    between atoms: C_15  and  C_16 
REMARK       I    between atoms: C_16  and  N_17 
REMARK    6  A    between atoms: N_17  and  C_18 
REMARK    7  A    between atoms: C_18  and  C_19 
REMARK    8  A    between atoms: C_19  and  C_20 
REMARK    9  A    between atoms: C_20  and  O_21 
ROOT
HETATM    1  C   UNL     1      40.751 -13.498   5.085  1.00  0.00     0.081 A 
HETATM    2  C   UNL     1      40.490 -13.611   3.718  1.00  0.00     0.043 A 
HETATM    3  C   UNL     1      39.676 -12.655   3.102  1.00  0.00     0.043 A 
HETATM    4  C   UNL     1      39.137 -11.582   3.835  1.00  0.00     0.046 A 
HETATM    5  N   UNL     1      38.292 -10.665   3.200  1.00  0.00    -0.364 N 
HETATM    6  C   UNL     1      38.056 -10.744   1.851  1.00  0.00     0.109 A 
HETATM    7  C   UNL     1      38.519 -11.702   1.032  1.00  0.00     0.098 A 
HETATM    8  C   UNL     1      39.374 -12.757   1.648  1.00  0.00     0.201 A 
HETATM    9  O   UNL     1      39.827 -13.690   0.988  1.00  0.00    -0.286 OA
HETATM   10  C   UNL     1      39.408 -11.490   5.203  1.00  0.00     0.032 A 
HETATM   11  C   UNL     1      40.224 -12.438   5.830  1.00  0.00     0.027 A 
HETATM   12  H   UNL     1      38.026  -9.815   3.687  1.00  0.00     0.165 HD
ENDROOT
BRANCH   1  13
HETATM   13  S   UNL     1      41.829 -14.685   5.861  1.00  0.00     0.263 S 
HETATM   14  O   UNL     1      41.088 -15.915   6.030  1.00  0.00    -0.200 OA
HETATM   15  O   UNL     1      42.447 -14.020   6.990  1.00  0.00    -0.200 OA
BRANCH  13  16
HETATM   16  N   UNL     1      43.043 -14.892   4.710  1.00  0.00    -0.281 N 
HETATM   17  H   UNL     1      43.183 -14.067   4.130  1.00  0.00     0.179 HD
BRANCH  16  18
HETATM   18  C   UNL     1      43.232 -16.167   4.113  1.00  0.00     0.042 A 
HETATM   19  C   UNL     1      44.008 -17.128   4.759  1.00  0.00     0.030 A 
HETATM   20  C   UNL     1      44.191 -18.383   4.171  1.00  0.00     0.009 A 
HETATM   21  C   UNL     1      43.599 -18.685   2.936  1.00  0.00    -0.058 A 
HETATM   22  C   UNL     1      42.826 -17.708   2.296  1.00  0.00     0.009 A 
HETATM   23  C   UNL     1      42.650 -16.453   2.879  1.00  0.00     0.030 A 
BRANCH  21  24
HETATM   24  C   UNL     1      43.755 -20.054   2.324  1.00  0.00     0.034 C 
HETATM   25  C   UNL     1      43.914 -21.133   3.383  1.00  0.00     0.010 C 
ENDBRANCH  21  24
ENDBRANCH  16  18
ENDBRANCH  13  16
ENDBRANCH   1  13
BRANCH   7  26
HETATM   26  C   UNL     1      38.159 -11.642  -0.414  1.00  0.00     0.257 C 
HETATM   27  N   UNL     1      37.963 -12.857  -1.020  1.00  0.00    -0.357 N 
HETATM   28  H   UNL     1      38.046 -13.700  -0.449  1.00  0.00     0.162 HD
HETATM   29  O   UNL     1      38.050 -10.573  -1.006  1.00  0.00    -0.267 OA
BRANCH  27  30
HETATM   30  C   UNL     1      37.597 -12.991  -2.414  1.00  0.00     0.125 C 
BRANCH  30  31
HETATM   31  C   UNL     1      38.417 -14.041  -3.157  1.00  0.00     0.046 C 
BRANCH  31  32
HETATM   32  C   UNL     1      39.830 -14.187  -2.603  1.00  0.00     0.168 C 
BRANCH  32  33
HETATM   33  O   UNL     1      40.720 -13.469  -3.458  1.00  0.00    -0.396 OA
HETATM   34  C   UNL     1      41.150 -12.250  -2.867  1.00  0.00     0.201 C 
ENDBRANCH  32  33
ENDBRANCH  31  32
ENDBRANCH  30  31
ENDBRANCH  27  30
ENDBRANCH   7  26
TORSDOF 9
ENDMDL
MODEL 2
REMARK VINA RESULT:      -7.9      4.064      8.218
REMARK  9 active torsions:
REMARK  status: ('A' for Active; 'I' for Inactive)
REMARK    1  A    between atoms: C_2  and  C_3 
REMARK    2  A    between atoms: C_6  and  N_7 
REMARK    3  A    between atoms: N_7  and  S_8 
REMARK    4  A    between atoms: S_8  and  C_9 
REMARK    5  A    between atoms: C_15  and  C_16 
REMARK       I    between atoms: C_16  and  N_17 
REMARK    6  A    between atoms: N_17  and  C_18 
REMARK    7  A    between atoms: C_18  and  C_19 
REMARK    8  A    between atoms: C_19  and  C_20 
REMARK    9  A    between atoms: C_20  and  O_21 
ROOT
HETATM    1  C   UNL     1      42.361 -12.643   3.169  1.00  0.00     0.081 A 
HETATM    2  C   UNL     1      42.996 -12.783   4.406  1.00  0.00     0.043 A 
HETATM    3  C   UNL     1      42.941 -11.726   5.319  1.00  0.00     0.043 A 
HETATM    4  C   UNL     1      42.243 -10.543   5.017  1.00  0.00     0.046 A 
HETATM    5  N   UNL     1      42.241  -9.486   5.935  1.00  0.00    -0.364 N 
HETATM    6  C   UNL     1      42.831  -9.623   7.166  1.00  0.00     0.109 A 
HETATM    7  C   UNL     1      43.512 -10.701   7.589  1.00  0.00     0.098 A 
HETATM    8  C   UNL     1      43.618 -11.845   6.639  1.00  0.00     0.201 A 
HETATM    9  O   UNL     1      44.240 -12.867   6.924  1.00  0.00    -0.286 OA
HETATM   10  C   UNL     1      41.617 -10.422   3.774  1.00  0.00     0.032 A 
HETATM   11  C   UNL     1      41.662 -11.474   2.852  1.00  0.00     0.027 A 
HETATM   12  H   UNL     1      41.620  -8.698   5.783  1.00  0.00     0.165 HD
ENDROOT
BRANCH   1  13
HETATM   13  S   UNL     1      42.386 -14.008   2.024  1.00  0.00     0.263 S 
HETATM   14  O   UNL     1      43.768 -14.351   1.774  1.00  0.00    -0.200 OA
HETATM   15  O   UNL     1      41.489 -13.665   0.939  1.00  0.00    -0.200 OA
BRANCH  13  16
HETATM   16  N   UNL     1      41.630 -15.237   2.895  1.00  0.00    -0.281 N 
HETATM   17  H   UNL     1      40.912 -14.890   3.529  1.00  0.00     0.179 HD
BRANCH  16  18
HETATM   18  C   UNL     1      42.380 -16.375   3.296  1.00  0.00     0.042 A 
HETATM   19  C   UNL     1      42.914 -16.436   4.581  1.00  0.00     0.030 A 
HETATM   20  C   UNL     1      43.650 -17.557   4.976  1.00  0.00     0.009 A 
HETATM   21  C   UNL     1      43.853 -18.624   4.089  1.00  0.00    -0.058 A 
HETATM   22  C   UNL     1      43.314 -18.548   2.799  1.00  0.00     0.009 A 
HETATM   23  C   UNL     1      42.587 -17.424   2.402  1.00  0.00     0.030 A 
BRANCH  21  24
HETATM   24  C   UNL     1      44.605 -19.855   4.527  1.00  0.00     0.034 C 
HETATM   25  C   UNL     1      43.811 -20.675   5.533  1.00  0.00     0.010 C 
ENDBRANCH  21  24
ENDBRANCH  16  18
ENDBRANCH  13  16
ENDBRANCH   1  13
BRANCH   7  26
HETATM   26  C   UNL     1      44.101 -10.681   8.959  1.00  0.00     0.257 C 
HETATM   27  N   UNL     1      43.200 -10.525   9.982  1.00  0.00    -0.357 N 
HETATM   28  H   UNL     1      42.208 -10.464   9.746  1.00  0.00     0.162 HD
HETATM   29  O   UNL     1      45.309 -10.795   9.142  1.00  0.00    -0.267 OA
BRANCH  27  30
HETATM   30  C   UNL     1      43.590 -10.493  11.376  1.00  0.00     0.125 C 
BRANCH  30  31
HETATM   31  C   UNL     1      43.381  -9.132  12.032  1.00  0.00     0.046 C 
BRANCH  31  32
HETATM   32  C   UNL     1      41.917  -8.842  12.339  1.00  0.00     0.168 C 
BRANCH  32  33
HETATM   33  O   UNL     1      41.188 -10.067  12.234  1.00  0.00    -0.396 OA
HETATM   34  C   UNL     1      39.870  -9.855  11.746  1.00  0.00     0.201 C 
ENDBRANCH  32  33
ENDBRANCH  31  32
ENDBRANCH  30  31
ENDBRANCH  27  30
ENDBRANCH   7  26
TORSDOF 9
ENDMDL
MODEL 3
REMARK VINA RESULT:      -7.8      5.433      9.430
REMARK  9 active torsions:
REMARK  status: ('A' for Active; 'I' for Inactive)
REMARK    1  A    between atoms: C_2  and  C_3 
REMARK    2  A    between atoms: C_6  and  N_7 
REMARK    3  A    between atoms: N_7  and  S_8 
REMARK    4  A    between atoms: S_8  and  C_9 
REMARK    5  A    between atoms: C_15  and  C_16 
REMARK       I    between atoms: C_16  and  N_17 
REMARK    6  A    between atoms: N_17  and  C_18 
REMARK    7  A    between atoms: C_18  and  C_19 
REMARK    8  A    between atoms: C_19  and  C_20 
REMARK    9  A    between atoms: C_20  and  O_21 
ROOT
HETATM    1  C   UNL     1      43.320 -11.695   5.615  1.00  0.00     0.081 A 
HETATM    2  C   UNL     1      42.716 -10.890   6.584  1.00  0.00     0.043 A 
HETATM    3  C   UNL     1      43.487 -10.420   7.651  1.00  0.00     0.043 A 
HETATM    4  C   UNL     1      44.855 -10.730   7.748  1.00  0.00     0.046 A 
HETATM    5  N   UNL     1      45.591 -10.281   8.850  1.00  0.00    -0.364 N 
HETATM    6  C   UNL     1      45.020  -9.461   9.790  1.00  0.00     0.109 A 
HETATM    7  C   UNL     1      43.734  -9.073   9.809  1.00  0.00     0.098 A 
HETATM    8  C   UNL     1      42.866  -9.569   8.703  1.00  0.00     0.201 A 
HETATM    9  O   UNL     1      41.670  -9.289   8.644  1.00  0.00    -0.286 OA
HETATM   10  C   UNL     1      45.439 -11.540   6.770  1.00  0.00     0.032 A 
HETATM   11  C   UNL     1      44.679 -12.014   5.695  1.00  0.00     0.027 A 
HETATM   12  H   UNL     1      46.602 -10.376   8.845  1.00  0.00     0.165 HD
ENDROOT
BRANCH   1  13
HETATM   13  S   UNL     1      42.352 -12.252   4.227  1.00  0.00     0.263 S 
HETATM   14  O   UNL     1      43.258 -12.516   3.132  1.00  0.00    -0.200 OA
HETATM   15  O   UNL     1      41.248 -11.326   4.082  1.00  0.00    -0.200 OA
BRANCH  13  16
HETATM   16  N   UNL     1      41.689 -13.695   4.793  1.00  0.00    -0.281 N 
HETATM   17  H   UNL     1      41.316 -13.616   5.738  1.00  0.00     0.179 HD
BRANCH  16  18
HETATM   18  C   UNL     1      42.270 -14.932   4.406  1.00  0.00     0.042 A 
HETATM   19  C   UNL     1      43.278 -15.498   5.184  1.00  0.00     0.030 A 
HETATM   20  C   UNL     1      43.847 -16.718   4.805  1.00  0.00     0.009 A 
HETATM   21  C   UNL     1      43.410 -17.378   3.647  1.00  0.00    -0.058 A 
HETATM   22  C   UNL     1      42.399 -16.796   2.873  1.00  0.00     0.009 A 
HETATM   23  C   UNL     1      41.838 -15.574   3.248  1.00  0.00     0.030 A 
BRANCH  21  24
HETATM   24  C   UNL     1      43.988 -18.716   3.262  1.00  0.00     0.034 C 
HETATM   25  C   UNL     1      43.171 -19.393   2.171  1.00  0.00     0.010 C 
ENDBRANCH  21  24
ENDBRANCH  16  18
ENDBRANCH  13  16
ENDBRANCH   1  13
BRANCH   7  26
HETATM   26  C   UNL     1      43.272  -8.184  10.913  1.00  0.00     0.257 C 
HETATM   27  N   UNL     1      43.459  -8.676  12.180  1.00  0.00    -0.357 N 
HETATM   28  H   UNL     1      43.917  -9.584  12.282  1.00  0.00     0.162 HD
HETATM   29  O   UNL     1      42.761  -7.091  10.688  1.00  0.00    -0.267 OA
BRANCH  27  30
HETATM   30  C   UNL     1      43.081  -7.947  13.371  1.00  0.00     0.125 C 
BRANCH  30  31
HETATM   31  C   UNL     1      42.129  -8.719  14.278  1.00  0.00     0.046 C 
BRANCH  31  32
HETATM   32  C   UNL     1      40.739  -8.881  13.674  1.00  0.00     0.168 C 
BRANCH  32  33
HETATM   33  O   UNL     1      40.736 -10.061  12.870  1.00  0.00    -0.396 OA
HETATM   34  C   UNL     1      39.519 -10.784  13.000  1.00  0.00     0.201 C 
ENDBRANCH  32  33
ENDBRANCH  31  32
ENDBRANCH  30  31
ENDBRANCH  27  30
ENDBRANCH   7  26
TORSDOF 9
ENDMDL
MODEL 4
REMARK VINA RESULT:      -7.8      3.304      6.947
REMARK  9 active torsions:
REMARK  status: ('A' for Active; 'I' for Inactive)
REMARK    1  A    between atoms: C_2  and  C_3 
REMARK    2  A    between atoms: C_6  and  N_7 
REMARK    3  A    between atoms: N_7  and  S_8 
REMARK    4  A    between atoms: S_8  and  C_9 
REMARK    5  A    between atoms: C_15  and  C_16 
REMARK       I    between atoms: C_16  and  N_17 
REMARK    6  A    between atoms: N_17  and  C_18 
REMARK    7  A    between atoms: C_18  and  C_19 
REMARK    8  A    between atoms: C_19  and  C_20 
REMARK    9  A    between atoms: C_20  and  O_21 
ROOT
HETATM    1  C   UNL     1      40.402 -13.500   3.301  1.00  0.00     0.081 A 
HETATM    2  C   UNL     1      41.216 -13.057   4.346  1.00  0.00     0.043 A 
HETATM    3  C   UNL     1      40.974 -11.799   4.907  1.00  0.00     0.043 A 
HETATM    4  C   UNL     1      39.918 -10.992   4.448  1.00  0.00     0.046 A 
HETATM    5  N   UNL     1      39.726  -9.721   5.000  1.00  0.00    -0.364 N 
HETATM    6  C   UNL     1      40.496  -9.287   6.051  1.00  0.00     0.109 A 
HETATM    7  C   UNL     1      41.521  -9.962   6.597  1.00  0.00     0.098 A 
HETATM    8  C   UNL     1      41.832 -11.299   6.015  1.00  0.00     0.201 A 
HETATM    9  O   UNL     1      42.766 -11.983   6.430  1.00  0.00    -0.286 OA
HETATM   10  C   UNL     1      39.117 -11.453   3.399  1.00  0.00     0.032 A 
HETATM   11  C   UNL     1      39.347 -12.711   2.831  1.00  0.00     0.027 A 
HETATM   12  H   UNL     1      38.882  -9.204   4.777  1.00  0.00     0.165 HD
ENDROOT
BRANCH   1  13
HETATM   13  S   UNL     1      40.676 -15.123   2.618  1.00  0.00     0.263 S 
HETATM   14  O   UNL     1      40.197 -15.117   1.255  1.00  0.00    -0.200 OA
HETATM   15  O   UNL     1      40.177 -16.078   3.586  1.00  0.00    -0.200 OA
BRANCH  13  16
HETATM   16  N   UNL     1      42.356 -15.256   2.643  1.00  0.00    -0.281 N 
HETATM   17  H   UNL     1      42.803 -14.787   1.857  1.00  0.00     0.179 HD
BRANCH  16  18
HETATM   18  C   UNL     1      42.958 -16.444   3.140  1.00  0.00     0.042 A 
HETATM   19  C   UNL     1      43.472 -16.472   4.435  1.00  0.00     0.030 A 
HETATM   20  C   UNL     1      44.061 -17.642   4.923  1.00  0.00     0.009 A 
HETATM   21  C   UNL     1      44.137 -18.790   4.121  1.00  0.00    -0.058 A 
HETATM   22  C   UNL     1      43.620 -18.746   2.821  1.00  0.00     0.009 A 
HETATM   23  C   UNL     1      43.040 -17.575   2.331  1.00  0.00     0.030 A 
BRANCH  21  24
HETATM   24  C   UNL     1      44.728 -20.067   4.663  1.00  0.00     0.034 C 
HETATM   25  C   UNL     1      43.676 -20.939   5.331  1.00  0.00     0.010 C 
ENDBRANCH  21  24
ENDBRANCH  16  18
ENDBRANCH  13  16
ENDBRANCH   1  13
BRANCH   7  26
HETATM   26  C   UNL     1      42.261  -9.339   7.731  1.00  0.00     0.257 C 
HETATM   27  N   UNL     1      42.157  -9.997   8.931  1.00  0.00    -0.357 N 
HETATM   28  H   UNL     1      41.617 -10.863   8.961  1.00  0.00     0.162 HD
HETATM   29  O   UNL     1      42.913  -8.308   7.586  1.00  0.00    -0.267 OA
BRANCH  27  30
HETATM   30  C   UNL     1      42.816  -9.543  10.137  1.00  0.00     0.125 C 
BRANCH  30  31
HETATM   31  C   UNL     1      43.971 -10.441  10.570  1.00  0.00     0.046 C 
BRANCH  31  32
HETATM   32  C   UNL     1      45.233 -10.218   9.745  1.00  0.00     0.168 C 
BRANCH  32  33
HETATM   33  O   UNL     1      45.195 -11.102   8.624  1.00  0.00    -0.396 OA
HETATM   34  C   UNL     1      45.907 -10.574   7.513  1.00  0.00     0.201 C 
ENDBRANCH  32  33
ENDBRANCH  31  32
ENDBRANCH  30  31
ENDBRANCH  27  30
ENDBRANCH   7  26
TORSDOF 9
ENDMDL
MODEL 5
REMARK VINA RESULT:      -7.8      3.832      7.792
REMARK  9 active torsions:
REMARK  status: ('A' for Active; 'I' for Inactive)
REMARK    1  A    between atoms: C_2  and  C_3 
REMARK    2  A    between atoms: C_6  and  N_7 
REMARK    3  A    between atoms: N_7  and  S_8 
REMARK    4  A    between atoms: S_8  and  C_9 
REMARK    5  A    between atoms: C_15  and  C_16 
REMARK       I    between atoms: C_16  and  N_17 
REMARK    6  A    between atoms: N_17  and  C_18 
REMARK    7  A    between atoms: C_18  and  C_19 
REMARK    8  A    between atoms: C_19  and  C_20 
REMARK    9  A    between atoms: C_20  and  O_21 
ROOT
HETATM    1  C   UNL     1      40.326 -12.386   2.381  1.00  0.00     0.081 A 
HETATM    2  C   UNL     1      41.630 -12.082   2.779  1.00  0.00     0.043 A 
HETATM    3  C   UNL     1      41.883 -11.823   4.130  1.00  0.00     0.043 A 
HETATM    4  C   UNL     1      40.852 -11.883   5.084  1.00  0.00     0.046 A 
HETATM    5  N   UNL     1      41.128 -11.577   6.422  1.00  0.00    -0.364 N 
HETATM    6  C   UNL     1      42.410 -11.311   6.833  1.00  0.00     0.109 A 
HETATM    7  C   UNL     1      43.487 -11.240   6.032  1.00  0.00     0.098 A 
HETATM    8  C   UNL     1      43.261 -11.486   4.579  1.00  0.00     0.201 A 
HETATM    9  O   UNL     1      44.178 -11.420   3.762  1.00  0.00    -0.286 OA
HETATM   10  C   UNL     1      39.554 -12.186   4.665  1.00  0.00     0.032 A 
HETATM   11  C   UNL     1      39.289 -12.451   3.317  1.00  0.00     0.027 A 
HETATM   12  H   UNL     1      40.425 -11.764   7.130  1.00  0.00     0.165 HD
ENDROOT
BRANCH   1  13
HETATM   13  S   UNL     1      40.010 -12.767   0.670  1.00  0.00     0.263 S 
HETATM   14  O   UNL     1      41.169 -12.365  -0.096  1.00  0.00    -0.200 OA
HETATM   15  O   UNL     1      38.691 -12.257   0.359  1.00  0.00    -0.200 OA
BRANCH  13  16
HETATM   16  N   UNL     1      39.877 -14.448   0.682  1.00  0.00    -0.281 N 
HETATM   17  H   UNL     1      38.911 -14.769   0.648  1.00  0.00     0.179 HD
BRANCH  16  18
HETATM   18  C   UNL     1      40.811 -15.219   1.424  1.00  0.00     0.042 A 
HETATM   19  C   UNL     1      40.407 -15.859   2.595  1.00  0.00     0.030 A 
HETATM   20  C   UNL     1      41.327 -16.620   3.323  1.00  0.00     0.009 A 
HETATM   21  C   UNL     1      42.653 -16.748   2.884  1.00  0.00    -0.058 A 
HETATM   22  C   UNL     1      43.045 -16.096   1.709  1.00  0.00     0.009 A 
HETATM   23  C   UNL     1      42.130 -15.329   0.987  1.00  0.00     0.030 A 
BRANCH  21  24
HETATM   24  C   UNL     1      43.633 -17.607   3.642  1.00  0.00     0.034 C 
HETATM   25  C   UNL     1      43.963 -17.021   5.006  1.00  0.00     0.010 C 
ENDBRANCH  21  24
ENDBRANCH  16  18
ENDBRANCH  13  16
ENDBRANCH   1  13
BRANCH   7  26
HETATM   26  C   UNL     1      44.811 -10.930   6.643  1.00  0.00     0.257 C 
HETATM   27  N   UNL     1      44.811  -9.903   7.553  1.00  0.00    -0.357 N 
HETATM   28  H   UNL     1      43.922  -9.450   7.769  1.00  0.00     0.162 HD
HETATM   29  O   UNL     1      45.822 -11.558   6.341  1.00  0.00    -0.267 OA
BRANCH  27  30
HETATM   30  C   UNL     1      46.003  -9.472   8.252  1.00  0.00     0.125 C 
BRANCH  30  31
HETATM   31  C   UNL     1      45.818  -9.378   9.763  1.00  0.00     0.046 C 
BRANCH  31  32
HETATM   32  C   UNL     1      44.364  -9.536  10.191  1.00  0.00     0.168 C 
BRANCH  32  33
HETATM   33  O   UNL     1      44.142 -10.907  10.524  1.00  0.00    -0.396 OA
HETATM   34  C   UNL     1      43.588 -11.050  11.825  1.00  0.00     0.201 C 
ENDBRANCH  32  33
ENDBRANCH  31  32
ENDBRANCH  30  31
ENDBRANCH  27  30
ENDBRANCH   7  26
TORSDOF 9
ENDMDL
MODEL 6
REMARK VINA RESULT:      -7.7      2.160      2.751
REMARK  9 active torsions:
REMARK  status: ('A' for Active; 'I' for Inactive)
REMARK    1  A    between atoms: C_2  and  C_3 
REMARK    2  A    between atoms: C_6  and  N_7 
REMARK    3  A    between atoms: N_7  and  S_8 
REMARK    4  A    between atoms: S_8  and  C_9 
REMARK    5  A    between atoms: C_15  and  C_16 
REMARK       I    between atoms: C_16  and  N_17 
REMARK    6  A    between atoms: N_17  and  C_18 
REMARK    7  A    between atoms: C_18  and  C_19 
REMARK    8  A    between atoms: C_19  and  C_20 
REMARK    9  A    between atoms: C_20  and  O_21 
ROOT
HETATM    1  C   UNL     1      42.850 -14.287   6.102  1.00  0.00     0.081 A 
HETATM    2  C   UNL     1      42.037 -14.358   4.968  1.00  0.00     0.043 A 
HETATM    3  C   UNL     1      42.074 -13.312   4.041  1.00  0.00     0.043 A 
HETATM    4  C   UNL     1      42.927 -12.209   4.227  1.00  0.00     0.046 A 
HETATM    5  N   UNL     1      42.911 -11.158   3.303  1.00  0.00    -0.364 N 
HETATM    6  C   UNL     1      42.144 -11.231   2.168  1.00  0.00     0.109 A 
HETATM    7  C   UNL     1      41.301 -12.231   1.858  1.00  0.00     0.098 A 
HETATM    8  C   UNL     1      41.210 -13.358   2.830  1.00  0.00     0.201 A 
HETATM    9  O   UNL     1      40.451 -14.308   2.649  1.00  0.00    -0.286 OA
HETATM   10  C   UNL     1      43.730 -12.156   5.369  1.00  0.00     0.032 A 
HETATM   11  C   UNL     1      43.704 -13.198   6.303  1.00  0.00     0.027 A 
HETATM   12  H   UNL     1      43.626 -10.440   3.355  1.00  0.00     0.165 HD
ENDROOT
BRANCH   1  13
HETATM   13  S   UNL     1      42.842 -15.642   7.259  1.00  0.00     0.263 S 
HETATM   14  O   UNL     1      41.658 -16.432   7.009  1.00  0.00    -0.200 OA
HETATM   15  O   UNL     1      43.109 -15.081   8.567  1.00  0.00    -0.200 OA
BRANCH  13  16
HETATM   16  N   UNL     1      44.221 -16.508   6.824  1.00  0.00    -0.281 N 
HETATM   17  H   UNL     1      45.064 -15.937   6.823  1.00  0.00     0.179 HD
BRANCH  16  18
HETATM   18  C   UNL     1      44.120 -17.550   5.863  1.00  0.00     0.042 A 
HETATM   19  C   UNL     1      43.866 -18.855   6.279  1.00  0.00     0.030 A 
HETATM   20  C   UNL     1      43.764 -19.879   5.332  1.00  0.00     0.009 A 
HETATM   21  C   UNL     1      43.914 -19.603   3.965  1.00  0.00    -0.058 A 
HETATM   22  C   UNL     1      44.174 -18.287   3.562  1.00  0.00     0.009 A 
HETATM   23  C   UNL     1      44.284 -17.267   4.509  1.00  0.00     0.030 A 
BRANCH  21  24
HETATM   24  C   UNL     1      43.757 -20.696   2.939  1.00  0.00     0.034 C 
HETATM   25  C   UNL     1      42.887 -20.256   1.772  1.00  0.00     0.010 C 
ENDBRANCH  21  24
ENDBRANCH  16  18
ENDBRANCH  13  16
ENDBRANCH   1  13
BRANCH   7  26
HETATM   26  C   UNL     1      40.533 -12.147   0.583  1.00  0.00     0.257 C 
HETATM   27  N   UNL     1      41.204 -12.573  -0.535  1.00  0.00    -0.357 N 
HETATM   28  H   UNL     1      42.151 -12.937  -0.420  1.00  0.00     0.162 HD
HETATM   29  O   UNL     1      39.381 -11.724   0.553  1.00  0.00    -0.267 OA
BRANCH  27  30
HETATM   30  C   UNL     1      40.611 -12.574  -1.856  1.00  0.00     0.125 C 
BRANCH  30  31
HETATM   31  C   UNL     1      40.195 -13.962  -2.332  1.00  0.00     0.046 C 
BRANCH  31  32
HETATM   32  C   UNL     1      38.743 -14.017  -2.792  1.00  0.00     0.168 C 
BRANCH  32  33
HETATM   33  O   UNL     1      37.961 -13.224  -1.898  1.00  0.00    -0.396 OA
HETATM   34  C   UNL     1      37.139 -12.299  -2.597  1.00  0.00     0.201 C 
ENDBRANCH  32  33
ENDBRANCH  31  32
ENDBRANCH  30  31
ENDBRANCH  27  30
ENDBRANCH   7  26
TORSDOF 9
ENDMDL
MODEL 7
REMARK VINA RESULT:      -7.7      5.504      9.426
REMARK  9 active torsions:
REMARK  status: ('A' for Active; 'I' for Inactive)
REMARK    1  A    between atoms: C_2  and  C_3 
REMARK    2  A    between atoms: C_6  and  N_7 
REMARK    3  A    between atoms: N_7  and  S_8 
REMARK    4  A    between atoms: S_8  and  C_9 
REMARK    5  A    between atoms: C_15  and  C_16 
REMARK       I    between atoms: C_16  and  N_17 
REMARK    6  A    between atoms: N_17  and  C_18 
REMARK    7  A    between atoms: C_18  and  C_19 
REMARK    8  A    between atoms: C_19  and  C_20 
REMARK    9  A    between atoms: C_20  and  O_21 
ROOT
HETATM    1  C   UNL     1      43.756 -11.118   5.790  1.00  0.00     0.081 A 
HETATM    2  C   UNL     1      43.002 -10.482   6.780  1.00  0.00     0.043 A 
HETATM    3  C   UNL     1      43.607 -10.180   8.004  1.00  0.00     0.043 A 
HETATM    4  C   UNL     1      44.959 -10.489   8.239  1.00  0.00     0.046 A 
HETATM    5  N   UNL     1      45.526 -10.213   9.489  1.00  0.00    -0.364 N 
HETATM    6  C   UNL     1      44.807  -9.558  10.457  1.00  0.00     0.109 A 
HETATM    7  C   UNL     1      43.519  -9.190  10.358  1.00  0.00     0.098 A 
HETATM    8  C   UNL     1      42.824  -9.513   9.079  1.00  0.00     0.201 A 
HETATM    9  O   UNL     1      41.639  -9.239   8.900  1.00  0.00    -0.286 OA
HETATM   10  C   UNL     1      45.694 -11.128   7.237  1.00  0.00     0.032 A 
HETATM   11  C   UNL     1      45.101 -11.433   6.007  1.00  0.00     0.027 A 
HETATM   12  H   UNL     1      46.530 -10.297   9.608  1.00  0.00     0.165 HD
ENDROOT
BRANCH   1  13
HETATM   13  S   UNL     1      43.001 -11.457   4.213  1.00  0.00     0.263 S 
HETATM   14  O   UNL     1      44.044 -11.876   3.303  1.00  0.00    -0.200 OA
HETATM   15  O   UNL     1      42.142 -10.333   3.904  1.00  0.00    -0.200 OA
BRANCH  13  16
HETATM   16  N   UNL     1      41.980 -12.753   4.561  1.00  0.00    -0.281 N 
HETATM   17  H   UNL     1      41.398 -12.589   5.381  1.00  0.00     0.179 HD
BRANCH  16  18
HETATM   18  C   UNL     1      42.421 -14.080   4.311  1.00  0.00     0.042 A 
HETATM   19  C   UNL     1      43.118 -14.776   5.297  1.00  0.00     0.030 A 
HETATM   20  C   UNL     1      43.550 -16.083   5.051  1.00  0.00     0.009 A 
HETATM   21  C   UNL     1      43.285 -16.701   3.820  1.00  0.00    -0.058 A 
HETATM   22  C   UNL     1      42.587 -15.988   2.837  1.00  0.00     0.009 A 
HETATM   23  C   UNL     1      42.165 -14.680   3.080  1.00  0.00     0.030 A 
BRANCH  21  24
HETATM   24  C   UNL     1      43.707 -18.127   3.570  1.00  0.00     0.034 C 
HETATM   25  C   UNL     1      43.112 -18.675   2.282  1.00  0.00     0.010 C 
ENDBRANCH  21  24
ENDBRANCH  16  18
ENDBRANCH  13  16
ENDBRANCH   1  13
BRANCH   7  26
HETATM   26  C   UNL     1      42.886  -8.491  11.513  1.00  0.00     0.257 C 
HETATM   27  N   UNL     1      42.057  -7.448  11.185  1.00  0.00    -0.357 N 
HETATM   28  H   UNL     1      41.909  -7.243  10.195  1.00  0.00     0.162 HD
HETATM   29  O   UNL     1      43.102  -8.837  12.671  1.00  0.00    -0.267 OA
BRANCH  27  30
HETATM   30  C   UNL     1      41.350  -6.664  12.174  1.00  0.00     0.125 C 
BRANCH  30  31
HETATM   31  C   UNL     1      39.840  -6.877  12.150  1.00  0.00     0.046 C 
BRANCH  31  32
HETATM   32  C   UNL     1      39.406  -8.117  12.922  1.00  0.00     0.168 C 
BRANCH  32  33
HETATM   33  O   UNL     1      39.629  -9.260  12.095  1.00  0.00    -0.396 OA
HETATM   34  C   UNL     1      39.745 -10.451  12.861  1.00  0.00     0.201 C 
ENDBRANCH  32  33
ENDBRANCH  31  32
ENDBRANCH  30  31
ENDBRANCH  27  30
ENDBRANCH   7  26
TORSDOF 9
ENDMDL
MODEL 8
REMARK VINA RESULT:      -7.6      2.757      3.877
REMARK  9 active torsions:
REMARK  status: ('A' for Active; 'I' for Inactive)
REMARK    1  A    between atoms: C_2  and  C_3 
REMARK    2  A    between atoms: C_6  and  N_7 
REMARK    3  A    between atoms: N_7  and  S_8 
REMARK    4  A    between atoms: S_8  and  C_9 
REMARK    5  A    between atoms: C_15  and  C_16 
REMARK       I    between atoms: C_16  and  N_17 
REMARK    6  A    between atoms: N_17  and  C_18 
REMARK    7  A    between atoms: C_18  and  C_19 
REMARK    8  A    between atoms: C_19  and  C_20 
REMARK    9  A    between atoms: C_20  and  O_21 
ROOT
HETATM    1  C   UNL     1      40.770 -14.602   3.511  1.00  0.00     0.081 A 
HETATM    2  C   UNL     1      41.060 -13.473   2.741  1.00  0.00     0.043 A 
HETATM    3  C   UNL     1      40.769 -13.491   1.374  1.00  0.00     0.043 A 
HETATM    4  C   UNL     1      40.175 -14.617   0.775  1.00  0.00     0.046 A 
HETATM    5  N   UNL     1      39.935 -14.622  -0.604  1.00  0.00    -0.364 N 
HETATM    6  C   UNL     1      40.182 -13.508  -1.365  1.00  0.00     0.109 A 
HETATM    7  C   UNL     1      40.728 -12.364  -0.919  1.00  0.00     0.098 A 
HETATM    8  C   UNL     1      41.078 -12.306   0.529  1.00  0.00     0.201 A 
HETATM    9  O   UNL     1      41.603 -11.312   1.028  1.00  0.00    -0.286 OA
HETATM   10  C   UNL     1      39.896 -15.738   1.562  1.00  0.00     0.032 A 
HETATM   11  C   UNL     1      40.180 -15.730   2.932  1.00  0.00     0.027 A 
HETATM   12  H   UNL     1      39.375 -15.366  -1.008  1.00  0.00     0.165 HD
ENDROOT
BRANCH   1  13
HETATM   13  S   UNL     1      41.092 -14.562   5.263  1.00  0.00     0.263 S 
HETATM   14  O   UNL     1      40.290 -15.591   5.885  1.00  0.00    -0.200 OA
HETATM   15  O   UNL     1      40.994 -13.178   5.679  1.00  0.00    -0.200 OA
BRANCH  13  16
HETATM   16  N   UNL     1      42.726 -14.968   5.348  1.00  0.00    -0.281 N 
HETATM   17  H   UNL     1      43.329 -14.280   4.899  1.00  0.00     0.179 HD
BRANCH  16  18
HETATM   18  C   UNL     1      43.113 -16.333   5.289  1.00  0.00     0.042 A 
HETATM   19  C   UNL     1      43.086 -17.113   6.444  1.00  0.00     0.030 A 
HETATM   20  C   UNL     1      43.464 -18.457   6.384  1.00  0.00     0.009 A 
HETATM   21  C   UNL     1      43.870 -19.030   5.170  1.00  0.00    -0.058 A 
HETATM   22  C   UNL     1      43.897 -18.234   4.019  1.00  0.00     0.009 A 
HETATM   23  C   UNL     1      43.527 -16.890   4.081  1.00  0.00     0.030 A 
BRANCH  21  24
HETATM   24  C   UNL     1      44.232 -20.492   5.094  1.00  0.00     0.034 C 
HETATM   25  C   UNL     1      43.896 -21.088   3.735  1.00  0.00     0.010 C 
ENDBRANCH  21  24
ENDBRANCH  16  18
ENDBRANCH  13  16
ENDBRANCH   1  13
BRANCH   7  26
HETATM   26  C   UNL     1      40.938 -11.249  -1.886  1.00  0.00     0.257 C 
HETATM   27  N   UNL     1      40.917  -9.989  -1.343  1.00  0.00    -0.357 N 
HETATM   28  H   UNL     1      40.791  -9.902  -0.333  1.00  0.00     0.162 HD
HETATM   29  O   UNL     1      41.115 -11.459  -3.083  1.00  0.00    -0.267 OA
BRANCH  27  30
HETATM   30  C   UNL     1      41.113  -8.790  -2.128  1.00  0.00     0.125 C 
BRANCH  30  31
HETATM   31  C   UNL     1      42.490  -8.161  -1.941  1.00  0.00     0.046 C 
BRANCH  31  32
HETATM   32  C   UNL     1      42.585  -6.760  -2.531  1.00  0.00     0.168 C 
BRANCH  32  33
HETATM   33  O   UNL     1      42.000  -6.784  -3.834  1.00  0.00    -0.396 OA
HETATM   34  C   UNL     1      42.988  -6.806  -4.855  1.00  0.00     0.201 C 
ENDBRANCH  32  33
ENDBRANCH  31  32
ENDBRANCH  30  31
ENDBRANCH  27  30
ENDBRANCH   7  26
TORSDOF 9
ENDMDL
MODEL 9
REMARK VINA RESULT:      -7.4      2.255      3.255
REMARK  9 active torsions:
REMARK  status: ('A' for Active; 'I' for Inactive)
REMARK    1  A    between atoms: C_2  and  C_3 
REMARK    2  A    between atoms: C_6  and  N_7 
REMARK    3  A    between atoms: N_7  and  S_8 
REMARK    4  A    between atoms: S_8  and  C_9 
REMARK    5  A    between atoms: C_15  and  C_16 
REMARK       I    between atoms: C_16  and  N_17 
REMARK    6  A    between atoms: N_17  and  C_18 
REMARK    7  A    between atoms: C_18  and  C_19 
REMARK    8  A    between atoms: C_19  and  C_20 
REMARK    9  A    between atoms: C_20  and  O_21 
ROOT
HETATM    1  C   UNL     1      40.939 -14.417   3.739  1.00  0.00     0.081 A 
HETATM    2  C   UNL     1      41.142 -13.503   2.702  1.00  0.00     0.043 A 
HETATM    3  C   UNL     1      40.665 -13.810   1.424  1.00  0.00     0.043 A 
HETATM    4  C   UNL     1      39.974 -15.010   1.179  1.00  0.00     0.046 A 
HETATM    5  N   UNL     1      39.545 -15.309  -0.120  1.00  0.00    -0.364 N 
HETATM    6  C   UNL     1      39.706 -14.405  -1.139  1.00  0.00     0.109 A 
HETATM    7  C   UNL     1      40.329 -13.219  -1.039  1.00  0.00     0.098 A 
HETATM    8  C   UNL     1      40.876 -12.858   0.300  1.00  0.00     0.201 A 
HETATM    9  O   UNL     1      41.484 -11.805   0.489  1.00  0.00    -0.286 OA
HETATM   10  C   UNL     1      39.784 -15.912   2.229  1.00  0.00     0.032 A 
HETATM   11  C   UNL     1      40.254 -15.615   3.513  1.00  0.00     0.027 A 
HETATM   12  H   UNL     1      38.921 -16.096  -0.268  1.00  0.00     0.165 HD
ENDROOT
BRANCH   1  13
HETATM   13  S   UNL     1      41.501 -14.005   5.379  1.00  0.00     0.263 S 
HETATM   14  O   UNL     1      40.693 -14.743   6.323  1.00  0.00    -0.200 OA
HETATM   15  O   UNL     1      41.599 -12.561   5.441  1.00  0.00    -0.200 OA
BRANCH  13  16
HETATM   16  N   UNL     1      43.082 -14.589   5.387  1.00  0.00    -0.281 N 
HETATM   17  H   UNL     1      43.761 -13.899   5.068  1.00  0.00     0.179 HD
BRANCH  16  18
HETATM   18  C   UNL     1      43.327 -15.954   5.082  1.00  0.00     0.042 A 
HETATM   19  C   UNL     1      43.332 -16.903   6.104  1.00  0.00     0.030 A 
HETATM   20  C   UNL     1      43.569 -18.247   5.802  1.00  0.00     0.009 A 
HETATM   21  C   UNL     1      43.801 -18.651   4.479  1.00  0.00    -0.058 A 
HETATM   22  C   UNL     1      43.798 -17.686   3.464  1.00  0.00     0.009 A 
HETATM   23  C   UNL     1      43.569 -16.343   3.766  1.00  0.00     0.030 A 
BRANCH  21  24
HETATM   24  C   UNL     1      44.010 -20.106   4.145  1.00  0.00     0.034 C 
HETATM   25  C   UNL     1      44.298 -20.936   5.387  1.00  0.00     0.010 C 
ENDBRANCH  21  24
ENDBRANCH  16  18
ENDBRANCH  13  16
ENDBRANCH   1  13
BRANCH   7  26
HETATM   26  C   UNL     1      40.425 -12.358  -2.253  1.00  0.00     0.257 C 
HETATM   27  N   UNL     1      40.210 -11.020  -2.041  1.00  0.00    -0.357 N 
HETATM   28  H   UNL     1      40.031 -10.705  -1.085  1.00  0.00     0.162 HD
HETATM   29  O   UNL     1      40.678 -12.829  -3.358  1.00  0.00    -0.267 OA
BRANCH  27  30
HETATM   30  C   UNL     1      40.272 -10.035  -3.100  1.00  0.00     0.125 C 
BRANCH  30  31
HETATM   31  C   UNL     1      38.902  -9.531  -3.540  1.00  0.00     0.046 C 
BRANCH  31  32
HETATM   32  C   UNL     1      37.854  -9.631  -2.437  1.00  0.00     0.168 C 
BRANCH  32  33
HETATM   33  O   UNL     1      37.184 -10.885  -2.572  1.00  0.00    -0.396 OA
HETATM   34  C   UNL     1      35.941 -10.748  -3.248  1.00  0.00     0.201 C 
ENDBRANCH  32  33
ENDBRANCH  31  32
ENDBRANCH  30  31
ENDBRANCH  27  30
ENDBRANCH   7  26
TORSDOF 9
ENDMDL
MODEL 10
REMARK VINA RESULT:      -7.3      4.567      8.597
REMARK  9 active torsions:
REMARK  status: ('A' for Active; 'I' for Inactive)
REMARK    1  A    between atoms: C_2  and  C_3 
REMARK    2  A    between atoms: C_6  and  N_7 
REMARK    3  A    between atoms: N_7  and  S_8 
REMARK    4  A    between atoms: S_8  and  C_9 
REMARK    5  A    between atoms: C_15  and  C_16 
REMARK       I    between atoms: C_16  and  N_17 
REMARK    6  A    between atoms: N_17  and  C_18 
REMARK    7  A    between atoms: C_18  and  C_19 
REMARK    8  A    between atoms: C_19  and  C_20 
REMARK    9  A    between atoms: C_20  and  O_21 
ROOT
HETATM    1  C   UNL     1      40.792 -12.097   4.846  1.00  0.00     0.081 A 
HETATM    2  C   UNL     1      41.753 -11.466   5.638  1.00  0.00     0.043 A 
HETATM    3  C   UNL     1      41.333 -10.648   6.692  1.00  0.00     0.043 A 
HETATM    4  C   UNL     1      39.966 -10.471   6.970  1.00  0.00     0.046 A 
HETATM    5  N   UNL     1      39.575  -9.613   8.004  1.00  0.00    -0.364 N 
HETATM    6  C   UNL     1      40.509  -9.015   8.812  1.00  0.00     0.109 A 
HETATM    7  C   UNL     1      41.841  -9.112   8.670  1.00  0.00     0.098 A 
HETATM    8  C   UNL     1      42.337  -9.956   7.545  1.00  0.00     0.201 A 
HETATM    9  O   UNL     1      43.538 -10.089   7.317  1.00  0.00    -0.286 OA
HETATM   10  C   UNL     1      39.020 -11.109   6.163  1.00  0.00     0.032 A 
HETATM   11  C   UNL     1      39.428 -11.932   5.108  1.00  0.00     0.027 A 
HETATM   12  H   UNL     1      38.604  -9.601   8.300  1.00  0.00     0.165 HD
ENDROOT
BRANCH   1  13
HETATM   13  S   UNL     1      41.325 -13.180   3.536  1.00  0.00     0.263 S 
HETATM   14  O   UNL     1      42.764 -13.081   3.436  1.00  0.00    -0.200 OA
HETATM   15  O   UNL     1      40.474 -12.914   2.395  1.00  0.00    -0.200 OA
BRANCH  13  16
HETATM   16  N   UNL     1      40.886 -14.703   4.111  1.00  0.00    -0.281 N 
HETATM   17  H   UNL     1      40.459 -14.669   5.035  1.00  0.00     0.179 HD
BRANCH  16  18
HETATM   18  C   UNL     1      41.685 -15.831   3.786  1.00  0.00     0.042 A 
HETATM   19  C   UNL     1      41.580 -16.417   2.526  1.00  0.00     0.030 A 
HETATM   20  C   UNL     1      42.369 -17.526   2.207  1.00  0.00     0.009 A 
HETATM   21  C   UNL     1      43.268 -18.054   3.145  1.00  0.00    -0.058 A 
HETATM   22  C   UNL     1      43.360 -17.459   4.409  1.00  0.00     0.009 A 
HETATM   23  C   UNL     1      42.566 -16.357   4.730  1.00  0.00     0.030 A 
BRANCH  21  24
HETATM   24  C   UNL     1      44.155 -19.220   2.787  1.00  0.00     0.034 C 
HETATM   25  C   UNL     1      43.410 -20.269   1.974  1.00  0.00     0.010 C 
ENDBRANCH  21  24
ENDBRANCH  16  18
ENDBRANCH  13  16
ENDBRANCH   1  13
BRANCH   7  26
HETATM   26  C   UNL     1      42.717  -8.387   9.634  1.00  0.00     0.257 C 
HETATM   27  N   UNL     1      42.770  -8.923  10.896  1.00  0.00    -0.357 N 
HETATM   28  H   UNL     1      42.243  -9.779  11.079  1.00  0.00     0.162 HD
HETATM   29  O   UNL     1      43.339  -7.380   9.307  1.00  0.00    -0.267 OA
BRANCH  27  30
HETATM   30  C   UNL     1      43.576  -8.359  11.957  1.00  0.00     0.125 C 
BRANCH  30  31
HETATM   31  C   UNL     1      42.811  -8.171  13.264  1.00  0.00     0.046 C 
BRANCH  31  32
HETATM   32  C   UNL     1      41.907  -9.352  13.593  1.00  0.00     0.168 C 
BRANCH  32  33
HETATM   33  O   UNL     1      40.678  -9.184  12.885  1.00  0.00    -0.396 OA
HETATM   34  C   UNL     1      39.864 -10.347  12.960  1.00  0.00     0.201 C 
ENDBRANCH  32  33
ENDBRANCH  31  32
ENDBRANCH  30  31
ENDBRANCH  27  30
ENDBRANCH   7  26
TORSDOF 9
ENDMDL
