MODEL 1
REMARK VINA RESULT:      -7.6      0.000      0.000
REMARK  2 active torsions:
REMARK  status: ('A' for Active; 'I' for Inactive)
REMARK    1  A    between atoms: C_5  and  C_6 
REMARK    2  A    between atoms: C_15  and  C_16 
ROOT
HETATM    1  C   UNL     1      46.503 -29.612  -1.990  1.00  0.00     0.190 A 
HETATM    2  N   UNL     1      46.546 -28.389  -2.750  1.00  0.00    -0.308 N 
HETATM    3  C   UNL     1      45.357 -28.139  -3.391  1.00  0.00     0.320 A 
HETATM    4  O   UNL     1      45.155 -27.220  -4.162  1.00  0.00    -0.247 OA
HETATM    5  N   UNL     1      44.427 -29.083  -3.025  1.00  0.00    -0.308 N 
HETATM    6  N   UNL     1      47.215 -30.619  -2.735  1.00  0.00    -0.308 N 
HETATM    7  C   UNL     1      46.374 -31.570  -3.259  1.00  0.00     0.320 A 
HETATM    8  O   UNL     1      46.720 -32.504  -3.960  1.00  0.00    -0.247 OA
HETATM    9  N   UNL     1      45.083 -31.311  -2.866  1.00  0.00    -0.308 N 
HETATM   10  C   UNL     1      44.979 -30.075  -2.137  1.00  0.00     0.190 A 
HETATM   11  H   UNL     1      47.380 -27.869  -2.969  1.00  0.00     0.167 HD
HETATM   12  H   UNL     1      43.509 -29.113  -3.437  1.00  0.00     0.167 HD
HETATM   13  H   UNL     1      48.198 -30.594  -2.962  1.00  0.00     0.167 HD
HETATM   14  H   UNL     1      44.306 -31.836  -3.236  1.00  0.00     0.167 HD
ENDROOT
BRANCH   1  15
HETATM   15  C   UNL     1      47.056 -29.439  -0.583  1.00  0.00    -0.005 A 
HETATM   16  C   UNL     1      46.998 -28.195   0.071  1.00  0.00     0.012 A 
HETATM   17  C   UNL     1      47.456 -28.046   1.384  1.00  0.00     0.007 A 
HETATM   18  C   UNL     1      47.989 -29.134   2.079  1.00  0.00    -0.062 A 
HETATM   19  C   UNL     1      48.446 -28.992   3.500  1.00  0.00     0.048 C 
HETATM   20  C   UNL     1      48.044 -30.378   1.446  1.00  0.00     0.007 A 
HETATM   21  C   UNL     1      47.583 -30.529   0.134  1.00  0.00     0.012 A 
ENDBRANCH   1  15
BRANCH  10  22
HETATM   22  C   UNL     1      44.161 -30.222  -0.861  1.00  0.00    -0.005 A 
HETATM   23  C   UNL     1      43.939 -31.482  -0.277  1.00  0.00     0.012 A 
HETATM   24  C   UNL     1      43.144 -31.622   0.864  1.00  0.00     0.007 A 
HETATM   25  C   UNL     1      42.544 -30.505   1.453  1.00  0.00    -0.062 A 
HETATM   26  C   UNL     1      41.670 -30.645   2.663  1.00  0.00     0.048 C 
HETATM   27  C   UNL     1      42.751 -29.247   0.879  1.00  0.00     0.007 A 
HETATM   28  C   UNL     1      43.547 -29.107  -0.260  1.00  0.00     0.012 A 
ENDBRANCH  10  22
TORSDOF 2
ENDMDL
MODEL 2
REMARK VINA RESULT:      -7.6      0.011      4.416
REMARK  2 active torsions:
REMARK  status: ('A' for Active; 'I' for Inactive)
REMARK    1  A    between atoms: C_5  and  C_6 
REMARK    2  A    between atoms: C_15  and  C_16 
ROOT
HETATM    1  C   UNL     1      44.972 -30.068  -2.133  1.00  0.00     0.190 A 
HETATM    2  N   UNL     1      45.070 -31.306  -2.863  1.00  0.00    -0.308 N 
HETATM    3  C   UNL     1      46.360 -31.571  -3.255  1.00  0.00     0.320 A 
HETATM    4  O   UNL     1      46.703 -32.505  -3.955  1.00  0.00    -0.247 OA
HETATM    5  N   UNL     1      47.206 -30.622  -2.733  1.00  0.00    -0.308 N 
HETATM    6  N   UNL     1      44.424 -29.074  -3.021  1.00  0.00    -0.308 N 
HETATM    7  C   UNL     1      45.357 -28.136  -3.389  1.00  0.00     0.320 A 
HETATM    8  O   UNL     1      45.159 -27.215  -4.161  1.00  0.00    -0.247 OA
HETATM    9  N   UNL     1      46.545 -28.390  -2.747  1.00  0.00    -0.308 N 
HETATM   10  C   UNL     1      46.497 -29.612  -1.988  1.00  0.00     0.190 A 
HETATM   11  H   UNL     1      44.292 -31.828  -3.231  1.00  0.00     0.167 HD
HETATM   12  H   UNL     1      48.187 -30.601  -2.959  1.00  0.00     0.167 HD
HETATM   13  H   UNL     1      43.504 -29.102  -3.435  1.00  0.00     0.167 HD
HETATM   14  H   UNL     1      47.382 -27.874  -2.968  1.00  0.00     0.167 HD
ENDROOT
BRANCH   1  15
HETATM   15  C   UNL     1      44.154 -30.213  -0.857  1.00  0.00    -0.005 A 
HETATM   16  C   UNL     1      43.540 -29.098  -0.258  1.00  0.00     0.012 A 
HETATM   17  C   UNL     1      42.744 -29.236   0.883  1.00  0.00     0.007 A 
HETATM   18  C   UNL     1      42.543 -30.491   1.461  1.00  0.00    -0.062 A 
HETATM   19  C   UNL     1      41.659 -30.655   2.661  1.00  0.00     0.048 C 
HETATM   20  C   UNL     1      43.137 -31.610   0.871  1.00  0.00     0.007 A 
HETATM   21  C   UNL     1      43.931 -31.473  -0.272  1.00  0.00     0.012 A 
ENDBRANCH   1  15
BRANCH  10  22
HETATM   22  C   UNL     1      47.052 -29.442  -0.581  1.00  0.00    -0.005 A 
HETATM   23  C   UNL     1      47.581 -30.533   0.133  1.00  0.00     0.012 A 
HETATM   24  C   UNL     1      48.041 -30.387   1.444  1.00  0.00     0.007 A 
HETATM   25  C   UNL     1      47.983 -29.145   2.083  1.00  0.00    -0.062 A 
HETATM   26  C   UNL     1      48.452 -28.980   3.497  1.00  0.00     0.048 C 
HETATM   27  C   UNL     1      47.455 -28.053   1.388  1.00  0.00     0.007 A 
HETATM   28  C   UNL     1      46.995 -28.199   0.077  1.00  0.00     0.012 A 
ENDBRANCH  10  22
TORSDOF 2
ENDMDL
MODEL 3
REMARK VINA RESULT:      -7.6     14.395     16.114
REMARK  2 active torsions:
REMARK  status: ('A' for Active; 'I' for Inactive)
REMARK    1  A    between atoms: C_5  and  C_6 
REMARK    2  A    between atoms: C_15  and  C_16 
ROOT
HETATM    1  C   UNL     1      42.365 -15.902   5.391  1.00  0.00     0.190 A 
HETATM    2  N   UNL     1      41.449 -16.439   6.364  1.00  0.00    -0.308 N 
HETATM    3  C   UNL     1      40.347 -15.636   6.532  1.00  0.00     0.320 A 
HETATM    4  O   UNL     1      39.466 -15.816   7.351  1.00  0.00    -0.247 OA
HETATM    5  N   UNL     1      40.388 -14.601   5.629  1.00  0.00    -0.308 N 
HETATM    6  N   UNL     1      43.469 -15.310   6.104  1.00  0.00    -0.308 N 
HETATM    7  C   UNL     1      43.459 -13.938   6.029  1.00  0.00     0.320 A 
HETATM    8  O   UNL     1      44.257 -13.200   6.576  1.00  0.00    -0.247 OA
HETATM    9  N   UNL     1      42.416 -13.526   5.235  1.00  0.00    -0.308 N 
HETATM   10  C   UNL     1      41.584 -14.627   4.825  1.00  0.00     0.190 A 
HETATM   11  H   UNL     1      41.653 -17.191   7.002  1.00  0.00     0.167 HD
HETATM   12  H   UNL     1      39.702 -13.863   5.634  1.00  0.00     0.167 HD
HETATM   13  H   UNL     1      44.119 -15.806   6.693  1.00  0.00     0.167 HD
HETATM   14  H   UNL     1      42.178 -12.551   5.144  1.00  0.00     0.167 HD
ENDROOT
BRANCH   1  15
HETATM   15  C   UNL     1      42.824 -16.951   4.388  1.00  0.00    -0.005 A 
HETATM   16  C   UNL     1      43.986 -17.711   4.614  1.00  0.00     0.012 A 
HETATM   17  C   UNL     1      44.380 -18.713   3.722  1.00  0.00     0.007 A 
HETATM   18  C   UNL     1      43.629 -18.979   2.575  1.00  0.00    -0.062 A 
HETATM   19  C   UNL     1      44.021 -20.078   1.634  1.00  0.00     0.048 C 
HETATM   20  C   UNL     1      42.467 -18.239   2.342  1.00  0.00     0.007 A 
HETATM   21  C   UNL     1      42.070 -17.239   3.236  1.00  0.00     0.012 A 
ENDBRANCH   1  15
BRANCH  10  22
HETATM   22  C   UNL     1      41.273 -14.594   3.335  1.00  0.00    -0.005 A 
HETATM   23  C   UNL     1      42.138 -13.963   2.422  1.00  0.00     0.012 A 
HETATM   24  C   UNL     1      41.826 -13.887   1.062  1.00  0.00     0.007 A 
HETATM   25  C   UNL     1      40.638 -14.437   0.574  1.00  0.00    -0.062 A 
HETATM   26  C   UNL     1      40.281 -14.342  -0.879  1.00  0.00     0.048 C 
HETATM   27  C   UNL     1      39.767 -15.063   1.470  1.00  0.00     0.007 A 
HETATM   28  C   UNL     1      40.079 -15.140   2.830  1.00  0.00     0.012 A 
ENDBRANCH  10  22
TORSDOF 2
ENDMDL
MODEL 4
REMARK VINA RESULT:      -7.6     15.442     17.295
REMARK  2 active torsions:
REMARK  status: ('A' for Active; 'I' for Inactive)
REMARK    1  A    between atoms: C_5  and  C_6 
REMARK    2  A    between atoms: C_15  and  C_16 
ROOT
HETATM    1  C   UNL     1      41.273 -12.961   3.428  1.00  0.00     0.190 A 
HETATM    2  N   UNL     1      42.111 -11.796   3.311  1.00  0.00    -0.308 N 
HETATM    3  C   UNL     1      43.236 -11.891   4.092  1.00  0.00     0.320 A 
HETATM    4  O   UNL     1      44.064 -11.012   4.241  1.00  0.00    -0.247 OA
HETATM    5  N   UNL     1      43.290 -13.133   4.677  1.00  0.00    -0.308 N 
HETATM    6  N   UNL     1      40.160 -12.621   4.278  1.00  0.00    -0.308 N 
HETATM    7  C   UNL     1      40.234 -13.238   5.503  1.00  0.00     0.320 A 
HETATM    8  O   UNL     1      39.441 -13.087   6.414  1.00  0.00    -0.247 OA
HETATM    9  N   UNL     1      41.335 -14.059   5.541  1.00  0.00    -0.308 N 
HETATM   10  C   UNL     1      42.138 -13.938   4.352  1.00  0.00     0.190 A 
HETATM   11  H   UNL     1      41.840 -10.926   2.883  1.00  0.00     0.167 HD
HETATM   12  H   UNL     1      44.006 -13.379   5.342  1.00  0.00     0.167 HD
HETATM   13  H   UNL     1      39.458 -11.926   4.073  1.00  0.00     0.167 HD
HETATM   14  H   UNL     1      41.620 -14.517   6.392  1.00  0.00     0.167 HD
ENDROOT
BRANCH   1  15
HETATM   15  C   UNL     1      40.822 -13.488   2.073  1.00  0.00    -0.005 A 
HETATM   16  C   UNL     1      40.068 -14.671   1.969  1.00  0.00     0.012 A 
HETATM   17  C   UNL     1      39.606 -15.128   0.730  1.00  0.00     0.007 A 
HETATM   18  C   UNL     1      39.889 -14.419  -0.439  1.00  0.00    -0.062 A 
HETATM   19  C   UNL     1      39.364 -14.879  -1.766  1.00  0.00     0.048 C 
HETATM   20  C   UNL     1      40.628 -13.236  -0.350  1.00  0.00     0.007 A 
HETATM   21  C   UNL     1      41.087 -12.777   0.888  1.00  0.00     0.012 A 
ENDBRANCH   1  15
BRANCH  10  22
HETATM   22  C   UNL     1      42.529 -15.292   3.777  1.00  0.00    -0.005 A 
HETATM   23  C   UNL     1      43.238 -15.394   2.566  1.00  0.00     0.012 A 
HETATM   24  C   UNL     1      43.550 -16.638   2.011  1.00  0.00     0.007 A 
HETATM   25  C   UNL     1      43.158 -17.818   2.649  1.00  0.00    -0.062 A 
HETATM   26  C   UNL     1      43.466 -19.158   2.052  1.00  0.00     0.048 C 
HETATM   27  C   UNL     1      42.448 -17.732   3.850  1.00  0.00     0.007 A 
HETATM   28  C   UNL     1      42.137 -16.489   4.405  1.00  0.00     0.012 A 
ENDBRANCH  10  22
TORSDOF 2
ENDMDL
MODEL 5
REMARK VINA RESULT:      -7.5     15.315     16.971
REMARK  2 active torsions:
REMARK  status: ('A' for Active; 'I' for Inactive)
REMARK    1  A    between atoms: C_5  and  C_6 
REMARK    2  A    between atoms: C_15  and  C_16 
ROOT
HETATM    1  C   UNL     1      42.193 -14.069   4.297  1.00  0.00     0.190 A 
HETATM    2  N   UNL     1      41.403 -14.165   5.497  1.00  0.00    -0.308 N 
HETATM    3  C   UNL     1      40.327 -13.312   5.474  1.00  0.00     0.320 A 
HETATM    4  O   UNL     1      39.551 -13.135   6.395  1.00  0.00    -0.247 OA
HETATM    5  N   UNL     1      40.256 -12.690   4.251  1.00  0.00    -0.308 N 
HETATM    6  N   UNL     1      43.373 -13.302   4.606  1.00  0.00    -0.308 N 
HETATM    7  C   UNL     1      43.351 -12.058   4.023  1.00  0.00     0.320 A 
HETATM    8  O   UNL     1      44.207 -11.204   4.160  1.00  0.00    -0.247 OA
HETATM    9  N   UNL     1      42.218 -11.928   3.257  1.00  0.00    -0.308 N 
HETATM   10  C   UNL     1      41.346 -13.065   3.386  1.00  0.00     0.190 A 
HETATM   11  H   UNL     1      41.684 -14.633   6.343  1.00  0.00     0.167 HD
HETATM   12  H   UNL     1      39.574 -11.975   4.055  1.00  0.00     0.167 HD
HETATM   13  H   UNL     1      44.091 -13.570   5.262  1.00  0.00     0.167 HD
HETATM   14  H   UNL     1      41.969 -11.048   2.834  1.00  0.00     0.167 HD
ENDROOT
BRANCH   1  15
HETATM   15  C   UNL     1      42.531 -15.435   3.717  1.00  0.00    -0.005 A 
HETATM   16  C   UNL     1      43.199 -15.555   2.485  1.00  0.00     0.012 A 
HETATM   17  C   UNL     1      43.560 -16.807   1.975  1.00  0.00     0.007 A 
HETATM   18  C   UNL     1      43.258 -17.974   2.679  1.00  0.00    -0.062 A 
HETATM   19  C   UNL     1      43.675 -19.317   2.161  1.00  0.00     0.048 C 
HETATM   20  C   UNL     1      42.603 -17.870   3.910  1.00  0.00     0.007 A 
HETATM   21  C   UNL     1      42.246 -16.619   4.421  1.00  0.00     0.012 A 
ENDBRANCH   1  15
BRANCH  10  22
HETATM   22  C   UNL     1      40.859 -13.578   2.038  1.00  0.00    -0.005 A 
HETATM   23  C   UNL     1      41.075 -12.845   0.856  1.00  0.00     0.012 A 
HETATM   24  C   UNL     1      40.581 -13.290  -0.373  1.00  0.00     0.007 A 
HETATM   25  C   UNL     1      39.852 -14.479  -0.457  1.00  0.00    -0.062 A 
HETATM   26  C   UNL     1      39.297 -14.955  -1.766  1.00  0.00     0.048 C 
HETATM   27  C   UNL     1      39.624 -15.215   0.710  1.00  0.00     0.007 A 
HETATM   28  C   UNL     1      40.119 -14.771   1.938  1.00  0.00     0.012 A 
ENDBRANCH  10  22
TORSDOF 2
ENDMDL
MODEL 6
REMARK VINA RESULT:      -7.4     16.371     17.881
REMARK  2 active torsions:
REMARK  status: ('A' for Active; 'I' for Inactive)
REMARK    1  A    between atoms: C_5  and  C_6 
REMARK    2  A    between atoms: C_15  and  C_16 
ROOT
HETATM    1  C   UNL     1      40.913 -11.681   2.056  1.00  0.00     0.190 A 
HETATM    2  N   UNL     1      39.584 -11.294   2.455  1.00  0.00    -0.308 N 
HETATM    3  C   UNL     1      38.619 -12.009   1.789  1.00  0.00     0.320 A 
HETATM    4  O   UNL     1      37.420 -11.821   1.877  1.00  0.00    -0.247 OA
HETATM    5  N   UNL     1      39.212 -12.973   1.010  1.00  0.00    -0.308 N 
HETATM    6  N   UNL     1      41.420 -10.667   1.167  1.00  0.00    -0.308 N 
HETATM    7  C   UNL     1      41.504 -11.109  -0.131  1.00  0.00     0.320 A 
HETATM    8  O   UNL     1      41.863 -10.436  -1.080  1.00  0.00    -0.247 OA
HETATM    9  N   UNL     1      41.129 -12.429  -0.194  1.00  0.00    -0.308 N 
HETATM   10  C   UNL     1      40.651 -12.915   1.074  1.00  0.00     0.190 A 
HETATM   11  H   UNL     1      39.354 -10.475   2.994  1.00  0.00     0.167 HD
HETATM   12  H   UNL     1      38.677 -13.561   0.391  1.00  0.00     0.167 HD
HETATM   13  H   UNL     1      41.589  -9.704   1.413  1.00  0.00     0.167 HD
HETATM   14  H   UNL     1      41.023 -12.904  -1.077  1.00  0.00     0.167 HD
ENDROOT
BRANCH   1  15
HETATM   15  C   UNL     1      41.831 -11.911   3.248  1.00  0.00    -0.005 A 
HETATM   16  C   UNL     1      43.162 -11.457   3.238  1.00  0.00     0.012 A 
HETATM   17  C   UNL     1      43.991 -11.618   4.352  1.00  0.00     0.007 A 
HETATM   18  C   UNL     1      43.515 -12.243   5.507  1.00  0.00    -0.062 A 
HETATM   19  C   UNL     1      44.383 -12.384   6.721  1.00  0.00     0.048 C 
HETATM   20  C   UNL     1      42.191 -12.689   5.537  1.00  0.00     0.007 A 
HETATM   21  C   UNL     1      41.361 -12.525   4.424  1.00  0.00     0.012 A 
ENDBRANCH   1  15
BRANCH  10  22
HETATM   22  C   UNL     1      41.263 -14.257   1.449  1.00  0.00    -0.005 A 
HETATM   23  C   UNL     1      40.481 -15.288   2.002  1.00  0.00     0.012 A 
HETATM   24  C   UNL     1      41.054 -16.501   2.395  1.00  0.00     0.007 A 
HETATM   25  C   UNL     1      42.427 -16.718   2.250  1.00  0.00    -0.062 A 
HETATM   26  C   UNL     1      43.056 -18.006   2.689  1.00  0.00     0.048 C 
HETATM   27  C   UNL     1      43.217 -15.701   1.706  1.00  0.00     0.007 A 
HETATM   28  C   UNL     1      42.645 -14.489   1.312  1.00  0.00     0.012 A 
ENDBRANCH  10  22
TORSDOF 2
ENDMDL
MODEL 7
REMARK VINA RESULT:      -7.4     23.231     24.949
REMARK  2 active torsions:
REMARK  status: ('A' for Active; 'I' for Inactive)
REMARK    1  A    between atoms: C_5  and  C_6 
REMARK    2  A    between atoms: C_15  and  C_16 
ROOT
HETATM    1  C   UNL     1      41.234  -8.971  12.233  1.00  0.00     0.190 A 
HETATM    2  N   UNL     1      41.058 -10.235  12.902  1.00  0.00    -0.308 N 
HETATM    3  C   UNL     1      39.742 -10.627  12.923  1.00  0.00     0.320 A 
HETATM    4  O   UNL     1      39.311 -11.610  13.497  1.00  0.00    -0.247 OA
HETATM    5  N   UNL     1      38.984  -9.743  12.193  1.00  0.00    -0.308 N 
HETATM    6  N   UNL     1      41.421  -7.960  13.242  1.00  0.00    -0.308 N 
HETATM    7  C   UNL     1      40.338  -7.121  13.344  1.00  0.00     0.320 A 
HETATM    8  O   UNL     1      40.228  -6.211  14.145  1.00  0.00    -0.247 OA
HETATM    9  N   UNL     1      39.400  -7.461  12.399  1.00  0.00    -0.308 N 
HETATM   10  C   UNL     1      39.770  -8.650  11.677  1.00  0.00     0.190 A 
HETATM   11  H   UNL     1      41.752 -10.696  13.467  1.00  0.00     0.167 HD
HETATM   12  H   UNL     1      37.981  -9.818  12.140  1.00  0.00     0.167 HD
HETATM   13  H   UNL     1      42.191  -7.917  13.893  1.00  0.00     0.167 HD
HETATM   14  H   UNL     1      38.490  -7.030  12.384  1.00  0.00     0.167 HD
ENDROOT
BRANCH   1  15
HETATM   15  C   UNL     1      42.379  -9.002  11.231  1.00  0.00    -0.005 A 
HETATM   16  C   UNL     1      42.793  -7.834  10.566  1.00  0.00     0.012 A 
HETATM   17  C   UNL     1      43.879  -7.849   9.685  1.00  0.00     0.007 A 
HETATM   18  C   UNL     1      44.579  -9.032   9.440  1.00  0.00    -0.062 A 
HETATM   19  C   UNL     1      45.770  -9.049   8.529  1.00  0.00     0.048 C 
HETATM   20  C   UNL     1      44.186 -10.199  10.101  1.00  0.00     0.007 A 
HETATM   21  C   UNL     1      43.102 -10.184  10.984  1.00  0.00     0.012 A 
ENDBRANCH   1  15
BRANCH  10  22
HETATM   22  C   UNL     1      39.607  -8.487  10.172  1.00  0.00    -0.005 A 
HETATM   23  C   UNL     1      39.339  -7.231   9.597  1.00  0.00     0.012 A 
HETATM   24  C   UNL     1      39.137  -7.091   8.222  1.00  0.00     0.007 A 
HETATM   25  C   UNL     1      39.194  -8.205   7.379  1.00  0.00    -0.062 A 
HETATM   26  C   UNL     1      38.956  -8.071   5.905  1.00  0.00     0.048 C 
HETATM   27  C   UNL     1      39.454  -9.460   7.936  1.00  0.00     0.007 A 
HETATM   28  C   UNL     1      39.657  -9.600   9.311  1.00  0.00     0.012 A 
ENDBRANCH  10  22
TORSDOF 2
ENDMDL
MODEL 8
REMARK VINA RESULT:      -7.4     16.470     18.171
REMARK  2 active torsions:
REMARK  status: ('A' for Active; 'I' for Inactive)
REMARK    1  A    between atoms: C_5  and  C_6 
REMARK    2  A    between atoms: C_15  and  C_16 
ROOT
HETATM    1  C   UNL     1      40.605 -12.805   1.151  1.00  0.00     0.190 A 
HETATM    2  N   UNL     1      41.093 -12.337  -0.120  1.00  0.00    -0.308 N 
HETATM    3  C   UNL     1      41.456 -11.013  -0.076  1.00  0.00     0.320 A 
HETATM    4  O   UNL     1      41.820 -10.353  -1.031  1.00  0.00    -0.247 OA
HETATM    5  N   UNL     1      41.352 -10.548   1.213  1.00  0.00    -0.308 N 
HETATM    6  N   UNL     1      39.168 -12.878   1.073  1.00  0.00    -0.308 N 
HETATM    7  C   UNL     1      38.557 -11.906   1.826  1.00  0.00     0.320 A 
HETATM    8  O   UNL     1      37.355 -11.727   1.899  1.00  0.00    -0.247 OA
HETATM    9  N   UNL     1      39.508 -11.171   2.492  1.00  0.00    -0.308 N 
HETATM   10  C   UNL     1      40.844 -11.552   2.114  1.00  0.00     0.190 A 
HETATM   11  H   UNL     1      41.003 -12.828  -0.995  1.00  0.00     0.167 HD
HETATM   12  H   UNL     1      41.510  -9.580   1.445  1.00  0.00     0.167 HD
HETATM   13  H   UNL     1      38.645 -13.482   0.457  1.00  0.00     0.167 HD
HETATM   14  H   UNL     1      39.264 -10.344   3.013  1.00  0.00     0.167 HD
ENDROOT
BRANCH   1  15
HETATM   15  C   UNL     1      41.227 -14.135   1.555  1.00  0.00    -0.005 A 
HETATM   16  C   UNL     1      40.435 -15.185   2.055  1.00  0.00     0.012 A 
HETATM   17  C   UNL     1      40.996 -16.425   2.375  1.00  0.00     0.007 A 
HETATM   18  C   UNL     1      42.364 -16.650   2.211  1.00  0.00    -0.062 A 
HETATM   19  C   UNL     1      42.967 -17.988   2.515  1.00  0.00     0.048 C 
HETATM   20  C   UNL     1      43.162 -15.619   1.707  1.00  0.00     0.007 A 
HETATM   21  C   UNL     1      42.602 -14.380   1.383  1.00  0.00     0.012 A 
ENDBRANCH   1  15
BRANCH  10  22
HETATM   22  C   UNL     1      41.752 -11.752   3.320  1.00  0.00    -0.005 A 
HETATM   23  C   UNL     1      43.104 -11.365   3.288  1.00  0.00     0.012 A 
HETATM   24  C   UNL     1      43.951 -11.597   4.376  1.00  0.00     0.007 A 
HETATM   25  C   UNL     1      43.470 -12.226   5.528  1.00  0.00    -0.062 A 
HETATM   26  C   UNL     1      44.373 -12.502   6.692  1.00  0.00     0.048 C 
HETATM   27  C   UNL     1      42.130 -12.621   5.572  1.00  0.00     0.007 A 
HETATM   28  C   UNL     1      41.284 -12.388   4.484  1.00  0.00     0.012 A 
ENDBRANCH  10  22
TORSDOF 2
ENDMDL
MODEL 9
REMARK VINA RESULT:      -7.3     23.875     25.683
REMARK  2 active torsions:
REMARK  status: ('A' for Active; 'I' for Inactive)
REMARK    1  A    between atoms: C_5  and  C_6 
REMARK    2  A    between atoms: C_15  and  C_16 
ROOT
HETATM    1  C   UNL     1      41.672  -9.515  11.431  1.00  0.00     0.190 A 
HETATM    2  N   UNL     1      42.773 -10.398  11.143  1.00  0.00    -0.308 N 
HETATM    3  C   UNL     1      43.243 -10.234   9.863  1.00  0.00     0.320 A 
HETATM    4  O   UNL     1      44.109 -10.911   9.341  1.00  0.00    -0.247 OA
HETATM    5  N   UNL     1      42.590  -9.185   9.262  1.00  0.00    -0.308 N 
HETATM    6  N   UNL     1      40.458 -10.290  11.371  1.00  0.00    -0.308 N 
HETATM    7  C   UNL     1      39.695  -9.976  10.273  1.00  0.00     0.320 A 
HETATM    8  O   UNL     1      38.645 -10.514   9.971  1.00  0.00    -0.247 OA
HETATM    9  N   UNL     1      40.294  -8.959   9.570  1.00  0.00    -0.308 N 
HETATM   10  C   UNL     1      41.580  -8.611  10.115  1.00  0.00     0.190 A 
HETATM   11  H   UNL     1      43.053 -11.182  11.709  1.00  0.00     0.167 HD
HETATM   12  H   UNL     1      42.745  -8.945   8.295  1.00  0.00     0.167 HD
HETATM   13  H   UNL     1      40.224 -11.058  11.981  1.00  0.00     0.167 HD
HETATM   14  H   UNL     1      39.941  -8.660   8.675  1.00  0.00     0.167 HD
ENDROOT
BRANCH   1  15
HETATM   15  C   UNL     1      41.835  -8.803  12.766  1.00  0.00    -0.005 A 
HETATM   16  C   UNL     1      43.007  -8.087  13.068  1.00  0.00     0.012 A 
HETATM   17  C   UNL     1      43.138  -7.387  14.272  1.00  0.00     0.007 A 
HETATM   18  C   UNL     1      42.103  -7.387  15.210  1.00  0.00    -0.062 A 
HETATM   19  C   UNL     1      42.219  -6.607  16.484  1.00  0.00     0.048 C 
HETATM   20  C   UNL     1      40.928  -8.085  14.919  1.00  0.00     0.007 A 
HETATM   21  C   UNL     1      40.796  -8.782  13.715  1.00  0.00     0.012 A 
ENDBRANCH   1  15
BRANCH  10  22
HETATM   22  C   UNL     1      41.754  -7.108  10.278  1.00  0.00    -0.005 A 
HETATM   23  C   UNL     1      42.964  -6.472   9.948  1.00  0.00     0.012 A 
HETATM   24  C   UNL     1      43.141  -5.100  10.148  1.00  0.00     0.007 A 
HETATM   25  C   UNL     1      42.112  -4.323  10.688  1.00  0.00    -0.062 A 
HETATM   26  C   UNL     1      42.297  -2.855  10.929  1.00  0.00     0.048 C 
HETATM   27  C   UNL     1      40.905  -4.943  11.026  1.00  0.00     0.007 A 
HETATM   28  C   UNL     1      40.729  -6.314  10.825  1.00  0.00     0.012 A 
ENDBRANCH  10  22
TORSDOF 2
ENDMDL
MODEL 10
REMARK VINA RESULT:      -7.3     23.881     25.644
REMARK  2 active torsions:
REMARK  status: ('A' for Active; 'I' for Inactive)
REMARK    1  A    between atoms: C_5  and  C_6 
REMARK    2  A    between atoms: C_15  and  C_16 
ROOT
HETATM    1  C   UNL     1      41.587  -8.629  10.149  1.00  0.00     0.190 A 
HETATM    2  N   UNL     1      40.302  -8.975   9.598  1.00  0.00    -0.308 N 
HETATM    3  C   UNL     1      39.696  -9.986  10.303  1.00  0.00     0.320 A 
HETATM    4  O   UNL     1      38.647 -10.522   9.999  1.00  0.00    -0.247 OA
HETATM    5  N   UNL     1      40.452 -10.299  11.407  1.00  0.00    -0.308 N 
HETATM    6  N   UNL     1      42.600  -9.209   9.305  1.00  0.00    -0.308 N 
HETATM    7  C   UNL     1      43.245 -10.258   9.914  1.00  0.00     0.320 A 
HETATM    8  O   UNL     1      44.112 -10.941   9.401  1.00  0.00    -0.247 OA
HETATM    9  N   UNL     1      42.768 -10.414  11.193  1.00  0.00    -0.308 N 
HETATM   10  C   UNL     1      41.668  -9.527  11.469  1.00  0.00     0.190 A 
HETATM   11  H   UNL     1      39.955  -8.678   8.701  1.00  0.00     0.167 HD
HETATM   12  H   UNL     1      40.212 -11.062  12.019  1.00  0.00     0.167 HD
HETATM   13  H   UNL     1      42.761  -8.975   8.338  1.00  0.00     0.167 HD
HETATM   14  H   UNL     1      43.041 -11.198  11.764  1.00  0.00     0.167 HD
ENDROOT
BRANCH   1  15
HETATM   15  C   UNL     1      41.762  -7.125  10.307  1.00  0.00    -0.005 A 
HETATM   16  C   UNL     1      40.746  -6.331  10.868  1.00  0.00     0.012 A 
HETATM   17  C   UNL     1      40.925  -4.958  11.064  1.00  0.00     0.007 A 
HETATM   18  C   UNL     1      42.123  -4.338  10.700  1.00  0.00    -0.062 A 
HETATM   19  C   UNL     1      42.339  -2.875  10.943  1.00  0.00     0.048 C 
HETATM   20  C   UNL     1      43.146  -5.116  10.152  1.00  0.00     0.007 A 
HETATM   21  C   UNL     1      42.969  -6.489   9.959  1.00  0.00     0.012 A 
ENDBRANCH   1  15
BRANCH  10  22
HETATM   22  C   UNL     1      41.824  -8.809  12.803  1.00  0.00    -0.005 A 
HETATM   23  C   UNL     1      40.781  -8.788  13.747  1.00  0.00     0.012 A 
HETATM   24  C   UNL     1      40.905  -8.084  14.948  1.00  0.00     0.007 A 
HETATM   25  C   UNL     1      42.075  -7.377  15.239  1.00  0.00    -0.062 A 
HETATM   26  C   UNL     1      42.211  -6.600  16.514  1.00  0.00     0.048 C 
HETATM   27  C   UNL     1      43.118  -7.385  14.308  1.00  0.00     0.007 A 
HETATM   28  C   UNL     1      42.994  -8.089  13.108  1.00  0.00     0.012 A 
ENDBRANCH  10  22
TORSDOF 2
ENDMDL
