MODEL 1
REMARK VINA RESULT:      -9.0      0.000      0.000
REMARK  7 active torsions:
REMARK  status: ('A' for Active; 'I' for Inactive)
REMARK    1  A    between atoms: C_3  and  C_4 
REMARK    2  A    between atoms: C_4  and  N_5 
REMARK       I    between atoms: N_5  and  C_6 
REMARK    3  A    between atoms: C_6  and  C_7 
REMARK    4  A    between atoms: C_7  and  N_8 
REMARK    5  A    between atoms: C_10  and  C_11 
REMARK    6  A    between atoms: C_11  and  N_12 
REMARK       I    between atoms: N_12  and  C_13 
REMARK       I    between atoms: C_13  and  N_14 
REMARK    7  A    between atoms: N_14  and  C_15 
ROOT
HETATM    1  N   UNL     1      40.222 -14.966   4.469  1.00  0.00    -0.057 N 
HETATM    2  H   UNL     1      39.211 -15.130   4.663  1.00  0.00     0.281 HD
HETATM    3  C   UNL     1      40.315 -13.469   4.190  1.00  0.00     0.206 C 
HETATM    4  C   UNL     1      39.443 -13.132   2.967  1.00  0.00     0.035 C 
HETATM    5  C   UNL     1      39.792 -13.989   1.756  1.00  0.00     0.004 C 
HETATM    6  C   UNL     1      39.712 -15.470   2.098  1.00  0.00     0.028 C 
HETATM    7  C   UNL     1      40.601 -15.811   3.283  1.00  0.00     0.236 C 
ENDROOT
BRANCH   1   8
HETATM    8  C   UNL     1      40.902 -15.463   5.748  1.00  0.00     0.337 C 
BRANCH   8   9
HETATM    9  C   UNL     1      42.390 -15.809   5.625  1.00  0.00     0.243 C 
HETATM   10  N   UNL     1      42.667 -17.152   5.705  1.00  0.00    -0.355 N 
HETATM   11  H   UNL     1      41.924 -17.842   5.679  1.00  0.00     0.162 HD
HETATM   12  O   UNL     1      43.257 -14.951   5.481  1.00  0.00    -0.272 OA
BRANCH  10  13
HETATM   13  C   UNL     1      44.006 -17.655   5.467  1.00  0.00     0.169 C 
BRANCH  13  14
HETATM   14  C   UNL     1      43.943 -18.784   4.482  1.00  0.00     0.006 A 
HETATM   15  C   UNL     1      43.696 -18.733   3.116  1.00  0.00    -0.047 A 
HETATM   16  C   UNL     1      43.429 -17.490   2.330  1.00  0.00     0.049 C 
HETATM   17  C   UNL     1      43.717 -20.045   2.537  1.00  0.00     0.015 A 
HETATM   18  C   UNL     1      43.958 -21.034   3.463  1.00  0.00     0.051 A 
HETATM   19  S   UNL     1      44.147 -20.402   5.033  1.00  0.00    -0.104 SA
ENDBRANCH  13  14
ENDBRANCH  10  13
ENDBRANCH   8   9
ENDBRANCH   1   8
BRANCH   3  20
HETATM   20  C   UNL     1      39.926 -12.582   5.409  1.00  0.00     0.157 C 
BRANCH  20  21
HETATM   21  N   UNL     1      40.930 -12.263   6.424  1.00  0.00    -0.341 N 
HETATM   22  C   UNL     1      42.078 -11.529   6.259  1.00  0.00     0.320 C 
HETATM   23  N   UNL     1      42.663 -11.212   7.457  1.00  0.00    -0.309 N 
HETATM   24  O   UNL     1      42.481 -11.209   5.145  1.00  0.00    -0.247 OA
HETATM   25  H   UNL     1      42.070 -11.235   8.275  1.00  0.00     0.170 HD
HETATM   26  H   UNL     1      40.712 -12.546   7.371  1.00  0.00     0.164 HD
BRANCH  23  27
HETATM   27  C   UNL     1      43.923 -10.603   7.640  1.00  0.00     0.036 A 
HETATM   28  C   UNL     1      43.949  -9.327   8.216  1.00  0.00     0.029 A 
HETATM   29  C   UNL     1      45.162  -8.670   8.434  1.00  0.00     0.002 A 
HETATM   30  C   UNL     1      46.361  -9.291   8.095  1.00  0.00     0.000 A 
HETATM   31  C   UNL     1      46.346 -10.568   7.539  1.00  0.00     0.002 A 
HETATM   32  C   UNL     1      45.131 -11.221   7.310  1.00  0.00     0.029 A 
ENDBRANCH  23  27
ENDBRANCH  20  21
ENDBRANCH   3  20
TORSDOF 7
ENDMDL
MODEL 2
REMARK VINA RESULT:      -8.5      1.427      1.914
REMARK  7 active torsions:
REMARK  status: ('A' for Active; 'I' for Inactive)
REMARK    1  A    between atoms: C_3  and  C_4 
REMARK    2  A    between atoms: C_4  and  N_5 
REMARK       I    between atoms: N_5  and  C_6 
REMARK    3  A    between atoms: C_6  and  C_7 
REMARK    4  A    between atoms: C_7  and  N_8 
REMARK    5  A    between atoms: C_10  and  C_11 
REMARK    6  A    between atoms: C_11  and  N_12 
REMARK       I    between atoms: N_12  and  C_13 
REMARK       I    between atoms: C_13  and  N_14 
REMARK    7  A    between atoms: N_14  and  C_15 
ROOT
HETATM    1  N   UNL     1      39.931 -14.599   2.095  1.00  0.00    -0.057 N 
HETATM    2  H   UNL     1      38.892 -14.519   2.109  1.00  0.00     0.281 HD
HETATM    3  C   UNL     1      40.421 -13.227   2.547  1.00  0.00     0.206 C 
HETATM    4  C   UNL     1      39.923 -12.163   1.553  1.00  0.00     0.035 C 
HETATM    5  C   UNL     1      40.308 -12.491   0.115  1.00  0.00     0.004 C 
HETATM    6  C   UNL     1      39.821 -13.880  -0.273  1.00  0.00     0.028 C 
HETATM    7  C   UNL     1      40.342 -14.936   0.688  1.00  0.00     0.236 C 
ENDROOT
BRANCH   1   8
HETATM    8  C   UNL     1      40.199 -15.766   3.050  1.00  0.00     0.337 C 
BRANCH   8   9
HETATM    9  C   UNL     1      41.673 -16.092   3.313  1.00  0.00     0.243 C 
HETATM   10  N   UNL     1      42.158 -17.150   2.582  1.00  0.00    -0.355 N 
HETATM   11  H   UNL     1      41.618 -17.552   1.824  1.00  0.00     0.162 HD
HETATM   12  O   UNL     1      42.353 -15.465   4.121  1.00  0.00    -0.272 OA
BRANCH  10  13
HETATM   13  C   UNL     1      43.567 -17.495   2.610  1.00  0.00     0.169 C 
BRANCH  13  14
HETATM   14  C   UNL     1      43.752 -18.750   3.408  1.00  0.00     0.006 A 
HETATM   15  C   UNL     1      43.715 -20.069   2.973  1.00  0.00    -0.047 A 
HETATM   16  C   UNL     1      43.467 -20.511   1.567  1.00  0.00     0.049 C 
HETATM   17  C   UNL     1      43.937 -20.979   4.061  1.00  0.00     0.015 A 
HETATM   18  C   UNL     1      44.116 -20.338   5.264  1.00  0.00     0.051 A 
HETATM   19  S   UNL     1      44.007 -18.646   5.107  1.00  0.00    -0.104 SA
ENDBRANCH  13  14
ENDBRANCH  10  13
ENDBRANCH   8   9
ENDBRANCH   1   8
BRANCH   3  20
HETATM   20  C   UNL     1      40.003 -12.865   4.002  1.00  0.00     0.157 C 
BRANCH  20  21
HETATM   21  N   UNL     1      41.011 -12.836   5.062  1.00  0.00    -0.341 N 
HETATM   22  C   UNL     1      41.930 -11.849   5.311  1.00  0.00     0.320 C 
HETATM   23  N   UNL     1      42.555 -12.019   6.519  1.00  0.00    -0.309 N 
HETATM   24  O   UNL     1      42.121 -10.933   4.517  1.00  0.00    -0.247 OA
HETATM   25  H   UNL     1      42.079 -12.591   7.203  1.00  0.00     0.170 HD
HETATM   26  H   UNL     1      40.972 -13.592   5.736  1.00  0.00     0.164 HD
BRANCH  23  27
HETATM   27  C   UNL     1      43.650 -11.276   7.010  1.00  0.00     0.036 A 
HETATM   28  C   UNL     1      43.370 -10.126   7.757  1.00  0.00     0.029 A 
HETATM   29  C   UNL     1      44.406  -9.348   8.279  1.00  0.00     0.002 A 
HETATM   30  C   UNL     1      45.731  -9.726   8.076  1.00  0.00     0.000 A 
HETATM   31  C   UNL     1      46.018 -10.879   7.350  1.00  0.00     0.002 A 
HETATM   32  C   UNL     1      44.982 -11.652   6.817  1.00  0.00     0.029 A 
ENDBRANCH  23  27
ENDBRANCH  20  21
ENDBRANCH   3  20
TORSDOF 7
ENDMDL
MODEL 3
REMARK VINA RESULT:      -8.5      3.638      7.634
REMARK  7 active torsions:
REMARK  status: ('A' for Active; 'I' for Inactive)
REMARK    1  A    between atoms: C_3  and  C_4 
REMARK    2  A    between atoms: C_4  and  N_5 
REMARK       I    between atoms: N_5  and  C_6 
REMARK    3  A    between atoms: C_6  and  C_7 
REMARK    4  A    between atoms: C_7  and  N_8 
REMARK    5  A    between atoms: C_10  and  C_11 
REMARK    6  A    between atoms: C_11  and  N_12 
REMARK       I    between atoms: N_12  and  C_13 
REMARK       I    between atoms: C_13  and  N_14 
REMARK    7  A    between atoms: N_14  and  C_15 
ROOT
HETATM    1  N   UNL     1      43.900 -18.355   4.243  1.00  0.00    -0.057 N 
HETATM    2  H   UNL     1      42.976 -18.474   4.710  1.00  0.00     0.281 HD
HETATM    3  C   UNL     1      43.559 -17.781   2.871  1.00  0.00     0.206 C 
HETATM    4  C   UNL     1      42.670 -18.783   2.115  1.00  0.00     0.035 C 
HETATM    5  C   UNL     1      43.296 -20.171   2.044  1.00  0.00     0.004 C 
HETATM    6  C   UNL     1      43.642 -20.682   3.435  1.00  0.00     0.028 C 
HETATM    7  C   UNL     1      44.551 -19.710   4.169  1.00  0.00     0.236 C 
ENDROOT
BRANCH   1   8
HETATM    8  C   UNL     1      44.652 -17.427   5.202  1.00  0.00     0.337 C 
BRANCH   8   9
HETATM    9  C   UNL     1      43.816 -16.800   6.322  1.00  0.00     0.243 C 
HETATM   10  N   UNL     1      43.895 -15.430   6.389  1.00  0.00    -0.355 N 
HETATM   11  H   UNL     1      44.338 -14.895   5.650  1.00  0.00     0.162 HD
HETATM   12  O   UNL     1      43.144 -17.473   7.100  1.00  0.00    -0.272 OA
BRANCH  10  13
HETATM   13  C   UNL     1      43.056 -14.676   7.301  1.00  0.00     0.169 C 
BRANCH  13  14
HETATM   14  C   UNL     1      41.997 -13.957   6.519  1.00  0.00     0.006 A 
HETATM   15  C   UNL     1      40.732 -14.402   6.156  1.00  0.00    -0.047 A 
HETATM   16  C   UNL     1      40.159 -15.743   6.484  1.00  0.00     0.049 C 
HETATM   17  C   UNL     1      40.029 -13.404   5.402  1.00  0.00     0.015 A 
HETATM   18  C   UNL     1      40.771 -12.262   5.206  1.00  0.00     0.051 A 
HETATM   19  S   UNL     1      42.318 -12.379   5.909  1.00  0.00    -0.104 SA
ENDBRANCH  13  14
ENDBRANCH  10  13
ENDBRANCH   8   9
ENDBRANCH   1   8
BRANCH   3  20
HETATM   20  C   UNL     1      42.886 -16.378   2.933  1.00  0.00     0.157 C 
BRANCH  20  21
HETATM   21  N   UNL     1      42.502 -15.702   1.694  1.00  0.00    -0.341 N 
HETATM   22  C   UNL     1      41.258 -15.236   1.350  1.00  0.00     0.320 C 
HETATM   23  N   UNL     1      41.296 -14.439   0.237  1.00  0.00    -0.309 N 
HETATM   24  O   UNL     1      40.262 -15.519   2.008  1.00  0.00    -0.247 OA
HETATM   25  H   UNL     1      42.185 -14.020   0.005  1.00  0.00     0.170 HD
HETATM   26  H   UNL     1      43.255 -15.481   1.054  1.00  0.00     0.164 HD
BRANCH  23  27
HETATM   27  C   UNL     1      40.184 -13.927  -0.467  1.00  0.00     0.036 A 
HETATM   28  C   UNL     1      39.677 -14.693  -1.523  1.00  0.00     0.029 A 
HETATM   29  C   UNL     1      38.574 -14.250  -2.256  1.00  0.00     0.002 A 
HETATM   30  C   UNL     1      37.956 -13.047  -1.927  1.00  0.00     0.000 A 
HETATM   31  C   UNL     1      38.442 -12.288  -0.865  1.00  0.00     0.002 A 
HETATM   32  C   UNL     1      39.553 -12.725  -0.138  1.00  0.00     0.029 A 
ENDBRANCH  23  27
ENDBRANCH  20  21
ENDBRANCH   3  20
TORSDOF 7
ENDMDL
MODEL 4
REMARK VINA RESULT:      -8.4      3.115      4.294
REMARK  7 active torsions:
REMARK  status: ('A' for Active; 'I' for Inactive)
REMARK    1  A    between atoms: C_3  and  C_4 
REMARK    2  A    between atoms: C_4  and  N_5 
REMARK       I    between atoms: N_5  and  C_6 
REMARK    3  A    between atoms: C_6  and  C_7 
REMARK    4  A    between atoms: C_7  and  N_8 
REMARK    5  A    between atoms: C_10  and  C_11 
REMARK    6  A    between atoms: C_11  and  N_12 
REMARK       I    between atoms: N_12  and  C_13 
REMARK       I    between atoms: C_13  and  N_14 
REMARK    7  A    between atoms: N_14  and  C_15 
ROOT
HETATM    1  N   UNL     1      42.485 -12.899   6.620  1.00  0.00    -0.057 N 
HETATM    2  H   UNL     1      42.111 -12.966   7.591  1.00  0.00     0.281 HD
HETATM    3  C   UNL     1      42.726 -11.407   6.410  1.00  0.00     0.206 C 
HETATM    4  C   UNL     1      41.389 -10.658   6.553  1.00  0.00     0.035 C 
HETATM    5  C   UNL     1      40.309 -11.224   5.639  1.00  0.00     0.004 C 
HETATM    6  C   UNL     1      40.131 -12.718   5.869  1.00  0.00     0.028 C 
HETATM    7  C   UNL     1      41.444 -13.463   5.692  1.00  0.00     0.236 C 
ENDROOT
BRANCH   1   8
HETATM    8  C   UNL     1      43.730 -13.789   6.669  1.00  0.00     0.337 C 
BRANCH   8   9
HETATM    9  C   UNL     1      43.476 -15.283   6.900  1.00  0.00     0.243 C 
HETATM   10  N   UNL     1      43.942 -16.097   5.896  1.00  0.00    -0.355 N 
HETATM   11  H   UNL     1      44.542 -15.734   5.164  1.00  0.00     0.162 HD
HETATM   12  O   UNL     1      42.893 -15.708   7.893  1.00  0.00    -0.272 OA
BRANCH  10  13
HETATM   13  C   UNL     1      43.907 -17.542   6.027  1.00  0.00     0.169 C 
BRANCH  13  14
HETATM   14  C   UNL     1      43.732 -18.158   4.672  1.00  0.00     0.006 A 
HETATM   15  C   UNL     1      43.952 -19.473   4.280  1.00  0.00    -0.047 A 
HETATM   16  C   UNL     1      44.432 -20.573   5.172  1.00  0.00     0.049 C 
HETATM   17  C   UNL     1      43.670 -19.651   2.885  1.00  0.00     0.015 A 
HETATM   18  C   UNL     1      43.268 -18.489   2.269  1.00  0.00     0.051 A 
HETATM   19  S   UNL     1      43.238 -17.173   3.349  1.00  0.00    -0.104 SA
ENDBRANCH  13  14
ENDBRANCH  10  13
ENDBRANCH   8   9
ENDBRANCH   1   8
BRANCH   3  20
HETATM   20  C   UNL     1      43.801 -10.810   7.364  1.00  0.00     0.157 C 
BRANCH  20  21
HETATM   21  N   UNL     1      43.613 -10.890   8.812  1.00  0.00    -0.341 N 
HETATM   22  C   UNL     1      43.184  -9.894   9.653  1.00  0.00     0.320 C 
HETATM   23  N   UNL     1      42.883 -10.369  10.902  1.00  0.00    -0.309 N 
HETATM   24  O   UNL     1      43.085  -8.731   9.273  1.00  0.00    -0.247 OA
HETATM   25  H   UNL     1      42.682 -11.356  10.979  1.00  0.00     0.170 HD
HETATM   26  H   UNL     1      43.736 -11.804   9.229  1.00  0.00     0.164 HD
BRANCH  23  27
HETATM   27  C   UNL     1      42.562  -9.596  12.039  1.00  0.00     0.036 A 
HETATM   28  C   UNL     1      41.410  -9.943  12.755  1.00  0.00     0.029 A 
HETATM   29  C   UNL     1      41.039  -9.226  13.894  1.00  0.00     0.002 A 
HETATM   30  C   UNL     1      41.826  -8.168  14.339  1.00  0.00     0.000 A 
HETATM   31  C   UNL     1      42.984  -7.827  13.644  1.00  0.00     0.002 A 
HETATM   32  C   UNL     1      43.351  -8.538  12.497  1.00  0.00     0.029 A 
ENDBRANCH  23  27
ENDBRANCH  20  21
ENDBRANCH   3  20
TORSDOF 7
ENDMDL
MODEL 5
REMARK VINA RESULT:      -8.3      3.320      7.733
REMARK  7 active torsions:
REMARK  status: ('A' for Active; 'I' for Inactive)
REMARK    1  A    between atoms: C_3  and  C_4 
REMARK    2  A    between atoms: C_4  and  N_5 
REMARK       I    between atoms: N_5  and  C_6 
REMARK    3  A    between atoms: C_6  and  C_7 
REMARK    4  A    between atoms: C_7  and  N_8 
REMARK    5  A    between atoms: C_10  and  C_11 
REMARK    6  A    between atoms: C_11  and  N_12 
REMARK       I    between atoms: N_12  and  C_13 
REMARK       I    between atoms: C_13  and  N_14 
REMARK    7  A    between atoms: N_14  and  C_15 
ROOT
HETATM    1  N   UNL     1      40.578 -12.424   4.311  1.00  0.00    -0.057 N 
HETATM    2  H   UNL     1      39.969 -12.310   5.148  1.00  0.00     0.281 HD
HETATM    3  C   UNL     1      41.992 -12.499   4.879  1.00  0.00     0.206 C 
HETATM    4  C   UNL     1      42.302 -11.191   5.627  1.00  0.00     0.035 C 
HETATM    5  C   UNL     1      42.071  -9.960   4.759  1.00  0.00     0.004 C 
HETATM    6  C   UNL     1      40.657  -9.951   4.195  1.00  0.00     0.028 C 
HETATM    7  C   UNL     1      40.363 -11.228   3.424  1.00  0.00     0.236 C 
ENDROOT
BRANCH   1   8
HETATM    8  C   UNL     1      40.036 -13.702   3.663  1.00  0.00     0.337 C 
BRANCH   8   9
HETATM    9  C   UNL     1      40.580 -14.029   2.269  1.00  0.00     0.243 C 
HETATM   10  N   UNL     1      39.610 -14.220   1.314  1.00  0.00    -0.355 N 
HETATM   11  H   UNL     1      38.639 -13.993   1.502  1.00  0.00     0.162 HD
HETATM   12  O   UNL     1      41.781 -14.126   2.034  1.00  0.00    -0.272 OA
BRANCH  10  13
HETATM   13  C   UNL     1      39.960 -14.397  -0.083  1.00  0.00     0.169 C 
BRANCH  13  14
HETATM   14  C   UNL     1      39.067 -13.540  -0.929  1.00  0.00     0.006 A 
HETATM   15  C   UNL     1      38.496 -13.832  -2.162  1.00  0.00    -0.047 A 
HETATM   16  C   UNL     1      38.674 -15.110  -2.917  1.00  0.00     0.049 C 
HETATM   17  C   UNL     1      37.708 -12.733  -2.641  1.00  0.00     0.015 A 
HETATM   18  C   UNL     1      37.717 -11.657  -1.784  1.00  0.00     0.051 A 
HETATM   19  S   UNL     1      38.678 -11.947  -0.408  1.00  0.00    -0.104 SA
ENDBRANCH  13  14
ENDBRANCH  10  13
ENDBRANCH   8   9
ENDBRANCH   1   8
BRANCH   3  20
HETATM   20  C   UNL     1      42.230 -13.733   5.797  1.00  0.00     0.157 C 
BRANCH  20  21
HETATM   21  N   UNL     1      43.104 -14.816   5.347  1.00  0.00    -0.341 N 
HETATM   22  C   UNL     1      42.732 -16.071   4.936  1.00  0.00     0.320 C 
HETATM   23  N   UNL     1      43.769 -16.750   4.349  1.00  0.00    -0.309 N 
HETATM   24  O   UNL     1      41.587 -16.483   5.086  1.00  0.00    -0.247 OA
HETATM   25  H   UNL     1      44.532 -16.194   3.988  1.00  0.00     0.170 HD
HETATM   26  H   UNL     1      44.086 -14.587   5.251  1.00  0.00     0.164 HD
BRANCH  23  27
HETATM   27  C   UNL     1      43.769 -18.106   3.958  1.00  0.00     0.036 A 
HETATM   28  C   UNL     1      44.075 -19.062   4.934  1.00  0.00     0.029 A 
HETATM   29  C   UNL     1      44.085 -20.422   4.618  1.00  0.00     0.002 A 
HETATM   30  C   UNL     1      43.771 -20.840   3.327  1.00  0.00     0.000 A 
HETATM   31  C   UNL     1      43.446 -19.896   2.355  1.00  0.00     0.002 A 
HETATM   32  C   UNL     1      43.447 -18.534   2.668  1.00  0.00     0.029 A 
ENDBRANCH  23  27
ENDBRANCH  20  21
ENDBRANCH   3  20
TORSDOF 7
ENDMDL
MODEL 6
REMARK VINA RESULT:      -8.2      3.165      8.166
REMARK  7 active torsions:
REMARK  status: ('A' for Active; 'I' for Inactive)
REMARK    1  A    between atoms: C_3  and  C_4 
REMARK    2  A    between atoms: C_4  and  N_5 
REMARK       I    between atoms: N_5  and  C_6 
REMARK    3  A    between atoms: C_6  and  C_7 
REMARK    4  A    between atoms: C_7  and  N_8 
REMARK    5  A    between atoms: C_10  and  C_11 
REMARK    6  A    between atoms: C_11  and  N_12 
REMARK       I    between atoms: N_12  and  C_13 
REMARK       I    between atoms: C_13  and  N_14 
REMARK    7  A    between atoms: N_14  and  C_15 
ROOT
HETATM    1  N   UNL     1      42.130 -15.258   6.049  1.00  0.00    -0.057 N 
HETATM    2  H   UNL     1      41.679 -15.964   6.669  1.00  0.00     0.281 HD
HETATM    3  C   UNL     1      42.130 -15.911   4.670  1.00  0.00     0.206 C 
HETATM    4  C   UNL     1      42.947 -17.213   4.731  1.00  0.00     0.035 C 
HETATM    5  C   UNL     1      44.349 -16.990   5.287  1.00  0.00     0.004 C 
HETATM    6  C   UNL     1      44.291 -16.312   6.648  1.00  0.00     0.028 C 
HETATM    7  C   UNL     1      43.515 -15.006   6.581  1.00  0.00     0.236 C 
ENDROOT
BRANCH   1   8
HETATM    8  C   UNL     1      41.235 -14.028   6.221  1.00  0.00     0.337 C 
BRANCH   8   9
HETATM    9  C   UNL     1      41.840 -12.692   5.775  1.00  0.00     0.243 C 
HETATM   10  N   UNL     1      41.875 -11.731   6.757  1.00  0.00    -0.355 N 
HETATM   11  H   UNL     1      41.671 -11.963   7.722  1.00  0.00     0.162 HD
HETATM   12  O   UNL     1      42.243 -12.499   4.631  1.00  0.00    -0.272 OA
BRANCH  10  13
HETATM   13  C   UNL     1      42.543 -10.462   6.537  1.00  0.00     0.169 C 
BRANCH  13  14
HETATM   14  C   UNL     1      43.636 -10.296   7.551  1.00  0.00     0.006 A 
HETATM   15  C   UNL     1      44.952 -10.735   7.490  1.00  0.00    -0.047 A 
HETATM   16  C   UNL     1      45.560 -11.495   6.354  1.00  0.00     0.049 C 
HETATM   17  C   UNL     1      45.674 -10.375   8.676  1.00  0.00     0.015 A 
HETATM   18  C   UNL     1      44.896  -9.703   9.590  1.00  0.00     0.051 A 
HETATM   19  S   UNL     1      43.295  -9.509   9.043  1.00  0.00    -0.104 SA
ENDBRANCH  13  14
ENDBRANCH  10  13
ENDBRANCH   8   9
ENDBRANCH   1   8
BRANCH   3  20
HETATM   20  C   UNL     1      40.704 -16.176   4.107  1.00  0.00     0.157 C 
BRANCH  20  21
HETATM   21  N   UNL     1      40.147 -15.286   3.090  1.00  0.00    -0.341 N 
HETATM   22  C   UNL     1      40.547 -15.159   1.783  1.00  0.00     0.320 C 
HETATM   23  N   UNL     1      39.660 -14.423   1.042  1.00  0.00    -0.309 N 
HETATM   24  O   UNL     1      41.580 -15.679   1.375  1.00  0.00    -0.247 OA
HETATM   25  H   UNL     1      38.717 -14.351   1.397  1.00  0.00     0.170 HD
HETATM   26  H   UNL     1      39.322 -14.763   3.357  1.00  0.00     0.164 HD
BRANCH  23  27
HETATM   27  C   UNL     1      39.842 -13.978  -0.286  1.00  0.00     0.036 A 
HETATM   28  C   UNL     1      40.590 -12.810  -0.481  1.00  0.00     0.029 A 
HETATM   29  C   UNL     1      40.816 -12.319  -1.768  1.00  0.00     0.002 A 
HETATM   30  C   UNL     1      40.314 -13.001  -2.873  1.00  0.00     0.000 A 
HETATM   31  C   UNL     1      39.586 -14.174  -2.689  1.00  0.00     0.002 A 
HETATM   32  C   UNL     1      39.349 -14.661  -1.400  1.00  0.00     0.029 A 
ENDBRANCH  23  27
ENDBRANCH  20  21
ENDBRANCH   3  20
TORSDOF 7
ENDMDL
MODEL 7
REMARK VINA RESULT:      -8.1      3.099      5.605
REMARK  7 active torsions:
REMARK  status: ('A' for Active; 'I' for Inactive)
REMARK    1  A    between atoms: C_3  and  C_4 
REMARK    2  A    between atoms: C_4  and  N_5 
REMARK       I    between atoms: N_5  and  C_6 
REMARK    3  A    between atoms: C_6  and  C_7 
REMARK    4  A    between atoms: C_7  and  N_8 
REMARK    5  A    between atoms: C_10  and  C_11 
REMARK    6  A    between atoms: C_11  and  N_12 
REMARK       I    between atoms: N_12  and  C_13 
REMARK       I    between atoms: C_13  and  N_14 
REMARK    7  A    between atoms: N_14  and  C_15 
ROOT
HETATM    1  N   UNL     1      41.503 -15.789   3.178  1.00  0.00    -0.057 N 
HETATM    2  H   UNL     1      42.145 -15.038   2.845  1.00  0.00     0.281 HD
HETATM    3  C   UNL     1      41.705 -15.816   4.690  1.00  0.00     0.206 C 
HETATM    4  C   UNL     1      43.174 -16.155   4.994  1.00  0.00     0.035 C 
HETATM    5  C   UNL     1      43.626 -17.439   4.307  1.00  0.00     0.004 C 
HETATM    6  C   UNL     1      43.375 -17.368   2.808  1.00  0.00     0.028 C 
HETATM    7  C   UNL     1      41.916 -17.070   2.505  1.00  0.00     0.236 C 
ENDROOT
BRANCH   1   8
HETATM    8  C   UNL     1      40.134 -15.314   2.681  1.00  0.00     0.337 C 
BRANCH   8   9
HETATM    9  C   UNL     1      40.127 -14.005   1.886  1.00  0.00     0.243 C 
HETATM   10  N   UNL     1      40.561 -14.128   0.588  1.00  0.00    -0.355 N 
HETATM   11  H   UNL     1      40.706 -15.040   0.170  1.00  0.00     0.162 HD
HETATM   12  O   UNL     1      39.775 -12.936   2.378  1.00  0.00    -0.272 OA
BRANCH  10  13
HETATM   13  C   UNL     1      40.481 -13.013  -0.336  1.00  0.00     0.169 C 
BRANCH  13  14
HETATM   14  C   UNL     1      39.358 -13.249  -1.301  1.00  0.00     0.006 A 
HETATM   15  C   UNL     1      38.116 -12.630  -1.357  1.00  0.00    -0.047 A 
HETATM   16  C   UNL     1      37.635 -11.566  -0.422  1.00  0.00     0.049 C 
HETATM   17  C   UNL     1      37.326 -13.151  -2.435  1.00  0.00     0.015 A 
HETATM   18  C   UNL     1      37.971 -14.140  -3.140  1.00  0.00     0.051 A 
HETATM   19  S   UNL     1      39.521 -14.463  -2.511  1.00  0.00    -0.104 SA
ENDBRANCH  13  14
ENDBRANCH  10  13
ENDBRANCH   8   9
ENDBRANCH   1   8
BRANCH   3  20
HETATM   20  C   UNL     1      41.281 -14.497   5.398  1.00  0.00     0.157 C 
BRANCH  20  21
HETATM   21  N   UNL     1      42.154 -13.903   6.411  1.00  0.00    -0.341 N 
HETATM   22  C   UNL     1      42.808 -12.699   6.345  1.00  0.00     0.320 C 
HETATM   23  N   UNL     1      43.338 -12.333   7.555  1.00  0.00    -0.309 N 
HETATM   24  O   UNL     1      42.867 -12.057   5.301  1.00  0.00    -0.247 OA
HETATM   25  H   UNL     1      42.936 -12.761   8.377  1.00  0.00     0.170 HD
HETATM   26  H   UNL     1      42.218 -14.399   7.292  1.00  0.00     0.164 HD
BRANCH  23  27
HETATM   27  C   UNL     1      44.194 -11.238   7.799  1.00  0.00     0.036 A 
HETATM   28  C   UNL     1      43.673 -10.158   8.524  1.00  0.00     0.029 A 
HETATM   29  C   UNL     1      44.467  -9.045   8.809  1.00  0.00     0.002 A 
HETATM   30  C   UNL     1      45.794  -9.010   8.389  1.00  0.00     0.000 A 
HETATM   31  C   UNL     1      46.325 -10.088   7.684  1.00  0.00     0.002 A 
HETATM   32  C   UNL     1      45.528 -11.197   7.389  1.00  0.00     0.029 A 
ENDBRANCH  23  27
ENDBRANCH  20  21
ENDBRANCH   3  20
TORSDOF 7
ENDMDL
MODEL 8
REMARK VINA RESULT:      -8.0      3.257      7.002
REMARK  7 active torsions:
REMARK  status: ('A' for Active; 'I' for Inactive)
REMARK    1  A    between atoms: C_3  and  C_4 
REMARK    2  A    between atoms: C_4  and  N_5 
REMARK       I    between atoms: N_5  and  C_6 
REMARK    3  A    between atoms: C_6  and  C_7 
REMARK    4  A    between atoms: C_7  and  N_8 
REMARK    5  A    between atoms: C_10  and  C_11 
REMARK    6  A    between atoms: C_11  and  N_12 
REMARK       I    between atoms: N_12  and  C_13 
REMARK       I    between atoms: C_13  and  N_14 
REMARK    7  A    between atoms: N_14  and  C_15 
ROOT
HETATM    1  N   UNL     1      40.592 -11.848  -0.070  1.00  0.00    -0.057 N 
HETATM    2  H   UNL     1      41.589 -12.151  -0.063  1.00  0.00     0.281 HD
HETATM    3  C   UNL     1      39.869 -12.945  -0.846  1.00  0.00     0.206 C 
HETATM    4  C   UNL     1      40.448 -13.016  -2.270  1.00  0.00     0.035 C 
HETATM    5  C   UNL     1      40.416 -11.665  -2.975  1.00  0.00     0.004 C 
HETATM    6  C   UNL     1      41.124 -10.604  -2.145  1.00  0.00     0.028 C 
HETATM    7  C   UNL     1      40.529 -10.507  -0.750  1.00  0.00     0.236 C 
ENDROOT
BRANCH   1   8
HETATM    8  C   UNL     1      40.256 -11.734   1.420  1.00  0.00     0.337 C 
BRANCH   8   9
HETATM    9  C   UNL     1      41.433 -11.421   2.349  1.00  0.00     0.243 C 
HETATM   10  N   UNL     1      41.260 -11.845   3.645  1.00  0.00    -0.355 N 
HETATM   11  H   UNL     1      40.490 -12.455   3.896  1.00  0.00     0.162 HD
HETATM   12  O   UNL     1      42.437 -10.827   1.966  1.00  0.00    -0.272 OA
BRANCH  10  13
HETATM   13  C   UNL     1      42.336 -11.751   4.613  1.00  0.00     0.169 C 
BRANCH  13  14
HETATM   14  C   UNL     1      42.283 -12.936   5.530  1.00  0.00     0.006 A 
HETATM   15  C   UNL     1      43.206 -13.336   6.487  1.00  0.00    -0.047 A 
HETATM   16  C   UNL     1      44.489 -12.634   6.800  1.00  0.00     0.049 C 
HETATM   17  C   UNL     1      42.779 -14.535   7.149  1.00  0.00     0.015 A 
HETATM   18  C   UNL     1      41.579 -15.009   6.672  1.00  0.00     0.051 A 
HETATM   19  S   UNL     1      40.960 -14.032   5.423  1.00  0.00    -0.104 SA
ENDBRANCH  13  14
ENDBRANCH  10  13
ENDBRANCH   8   9
ENDBRANCH   1   8
BRANCH   3  20
HETATM   20  C   UNL     1      39.925 -14.338  -0.154  1.00  0.00     0.157 C 
BRANCH  20  21
HETATM   21  N   UNL     1      41.181 -14.809   0.430  1.00  0.00    -0.341 N 
HETATM   22  C   UNL     1      41.338 -15.695   1.466  1.00  0.00     0.320 C 
HETATM   23  N   UNL     1      42.638 -16.107   1.599  1.00  0.00    -0.309 N 
HETATM   24  O   UNL     1      40.387 -16.054   2.153  1.00  0.00    -0.247 OA
HETATM   25  H   UNL     1      43.233 -16.011   0.789  1.00  0.00     0.170 HD
HETATM   26  H   UNL     1      42.030 -14.510  -0.035  1.00  0.00     0.164 HD
BRANCH  23  27
HETATM   27  C   UNL     1      43.166 -16.890   2.649  1.00  0.00     0.036 A 
HETATM   28  C   UNL     1      43.374 -18.252   2.399  1.00  0.00     0.029 A 
HETATM   29  C   UNL     1      43.902 -19.083   3.389  1.00  0.00     0.002 A 
HETATM   30  C   UNL     1      44.245 -18.556   4.631  1.00  0.00     0.000 A 
HETATM   31  C   UNL     1      44.059 -17.199   4.882  1.00  0.00     0.002 A 
HETATM   32  C   UNL     1      43.520 -16.368   3.895  1.00  0.00     0.029 A 
ENDBRANCH  23  27
ENDBRANCH  20  21
ENDBRANCH   3  20
TORSDOF 7
ENDMDL
MODEL 9
REMARK VINA RESULT:      -7.9      2.546      8.173
REMARK  7 active torsions:
REMARK  status: ('A' for Active; 'I' for Inactive)
REMARK    1  A    between atoms: C_3  and  C_4 
REMARK    2  A    between atoms: C_4  and  N_5 
REMARK       I    between atoms: N_5  and  C_6 
REMARK    3  A    between atoms: C_6  and  C_7 
REMARK    4  A    between atoms: C_7  and  N_8 
REMARK    5  A    between atoms: C_10  and  C_11 
REMARK    6  A    between atoms: C_11  and  N_12 
REMARK       I    between atoms: N_12  and  C_13 
REMARK       I    between atoms: C_13  and  N_14 
REMARK    7  A    between atoms: N_14  and  C_15 
ROOT
HETATM    1  N   UNL     1      40.093 -11.987   4.608  1.00  0.00    -0.057 N 
HETATM    2  H   UNL     1      40.853 -11.275   4.643  1.00  0.00     0.281 HD
HETATM    3  C   UNL     1      40.804 -13.281   4.222  1.00  0.00     0.206 C 
HETATM    4  C   UNL     1      41.469 -13.096   2.847  1.00  0.00     0.035 C 
HETATM    5  C   UNL     1      40.484 -12.617   1.787  1.00  0.00     0.004 C 
HETATM    6  C   UNL     1      39.783 -11.343   2.236  1.00  0.00     0.028 C 
HETATM    7  C   UNL     1      39.094 -11.534   3.577  1.00  0.00     0.236 C 
ENDROOT
BRANCH   1   8
HETATM    8  C   UNL     1      39.502 -11.930   6.020  1.00  0.00     0.337 C 
BRANCH   8   9
HETATM    9  C   UNL     1      39.842 -10.680   6.838  1.00  0.00     0.243 C 
HETATM   10  N   UNL     1      41.185 -10.502   7.069  1.00  0.00    -0.355 N 
HETATM   11  H   UNL     1      41.877 -11.067   6.589  1.00  0.00     0.162 HD
HETATM   12  O   UNL     1      38.981  -9.913   7.261  1.00  0.00    -0.272 OA
BRANCH  10  13
HETATM   13  C   UNL     1      41.682  -9.297   7.705  1.00  0.00     0.169 C 
BRANCH  13  14
HETATM   14  C   UNL     1      43.140  -9.464   8.011  1.00  0.00     0.006 A 
HETATM   15  C   UNL     1      44.015  -8.555   8.593  1.00  0.00    -0.047 A 
HETATM   16  C   UNL     1      43.658  -7.174   9.041  1.00  0.00     0.049 C 
HETATM   17  C   UNL     1      45.335  -9.107   8.705  1.00  0.00     0.015 A 
HETATM   18  C   UNL     1      45.424 -10.383   8.201  1.00  0.00     0.051 A 
HETATM   19  S   UNL     1      43.935 -10.927   7.578  1.00  0.00    -0.104 SA
ENDBRANCH  13  14
ENDBRANCH  10  13
ENDBRANCH   8   9
ENDBRANCH   1   8
BRANCH   3  20
HETATM   20  C   UNL     1      41.839 -13.761   5.280  1.00  0.00     0.157 C 
BRANCH  20  21
HETATM   21  N   UNL     1      42.793 -14.816   4.936  1.00  0.00    -0.341 N 
HETATM   22  C   UNL     1      42.531 -16.151   4.758  1.00  0.00     0.320 C 
HETATM   23  N   UNL     1      43.594 -16.815   4.203  1.00  0.00    -0.309 N 
HETATM   24  O   UNL     1      41.448 -16.639   5.064  1.00  0.00    -0.247 OA
HETATM   25  H   UNL     1      44.268 -16.257   3.699  1.00  0.00     0.170 HD
HETATM   26  H   UNL     1      43.737 -14.513   4.726  1.00  0.00     0.164 HD
BRANCH  23  27
HETATM   27  C   UNL     1      43.713 -18.211   4.031  1.00  0.00     0.036 A 
HETATM   28  C   UNL     1      43.520 -18.723   2.741  1.00  0.00     0.029 A 
HETATM   29  C   UNL     1      43.632 -20.093   2.497  1.00  0.00     0.002 A 
HETATM   30  C   UNL     1      43.956 -20.962   3.536  1.00  0.00     0.000 A 
HETATM   31  C   UNL     1      44.169 -20.459   4.818  1.00  0.00     0.002 A 
HETATM   32  C   UNL     1      44.047 -19.088   5.065  1.00  0.00     0.029 A 
ENDBRANCH  23  27
ENDBRANCH  20  21
ENDBRANCH   3  20
TORSDOF 7
ENDMDL
MODEL 10
REMARK VINA RESULT:      -7.7      4.067      9.564
REMARK  7 active torsions:
REMARK  status: ('A' for Active; 'I' for Inactive)
REMARK    1  A    between atoms: C_3  and  C_4 
REMARK    2  A    between atoms: C_4  and  N_5 
REMARK       I    between atoms: N_5  and  C_6 
REMARK    3  A    between atoms: C_6  and  C_7 
REMARK    4  A    between atoms: C_7  and  N_8 
REMARK    5  A    between atoms: C_10  and  C_11 
REMARK    6  A    between atoms: C_11  and  N_12 
REMARK       I    between atoms: N_12  and  C_13 
REMARK       I    between atoms: C_13  and  N_14 
REMARK    7  A    between atoms: N_14  and  C_15 
ROOT
HETATM    1  N   UNL     1      42.559 -10.405   7.498  1.00  0.00    -0.057 N 
HETATM    2  H   UNL     1      42.312 -11.021   8.301  1.00  0.00     0.281 HD
HETATM    3  C   UNL     1      43.010 -11.369   6.405  1.00  0.00     0.206 C 
HETATM    4  C   UNL     1      44.232 -12.158   6.907  1.00  0.00     0.035 C 
HETATM    5  C   UNL     1      45.349 -11.244   7.396  1.00  0.00     0.004 C 
HETATM    6  C   UNL     1      44.838 -10.285   8.461  1.00  0.00     0.028 C 
HETATM    7  C   UNL     1      43.653  -9.478   7.955  1.00  0.00     0.236 C 
ENDROOT
BRANCH   1   8
HETATM    8  C   UNL     1      41.256  -9.642   7.238  1.00  0.00     0.337 C 
BRANCH   8   9
HETATM    9  C   UNL     1      40.371  -9.392   8.463  1.00  0.00     0.243 C 
HETATM   10  N   UNL     1      40.999  -9.598   9.667  1.00  0.00    -0.355 N 
HETATM   11  H   UNL     1      42.002  -9.739   9.716  1.00  0.00     0.162 HD
HETATM   12  O   UNL     1      39.195  -9.050   8.370  1.00  0.00    -0.272 OA
BRANCH  10  13
HETATM   13  C   UNL     1      40.344  -9.270  10.919  1.00  0.00     0.169 C 
BRANCH  13  14
HETATM   14  C   UNL     1      41.299  -8.514  11.795  1.00  0.00     0.006 A 
HETATM   15  C   UNL     1      42.433  -8.980  12.448  1.00  0.00    -0.047 A 
HETATM   16  C   UNL     1      42.939 -10.386  12.408  1.00  0.00     0.049 C 
HETATM   17  C   UNL     1      43.068  -7.932  13.193  1.00  0.00     0.015 A 
HETATM   18  C   UNL     1      42.404  -6.731  13.097  1.00  0.00     0.051 A 
HETATM   19  S   UNL     1      41.008  -6.851  12.129  1.00  0.00    -0.104 SA
ENDBRANCH  13  14
ENDBRANCH  10  13
ENDBRANCH   8   9
ENDBRANCH   1   8
BRANCH   3  20
HETATM   20  C   UNL     1      41.887 -12.332   5.923  1.00  0.00     0.157 C 
BRANCH  20  21
HETATM   21  N   UNL     1      42.116 -13.777   5.931  1.00  0.00    -0.341 N 
HETATM   22  C   UNL     1      42.542 -14.559   4.887  1.00  0.00     0.320 C 
HETATM   23  N   UNL     1      42.889 -15.820   5.297  1.00  0.00    -0.309 N 
HETATM   24  O   UNL     1      42.601 -14.125   3.741  1.00  0.00    -0.247 OA
HETATM   25  H   UNL     1      43.117 -15.936   6.274  1.00  0.00     0.170 HD
HETATM   26  H   UNL     1      42.028 -14.238   6.829  1.00  0.00     0.164 HD
BRANCH  23  27
HETATM   27  C   UNL     1      43.219 -16.912   4.465  1.00  0.00     0.036 A 
HETATM   28  C   UNL     1      42.558 -17.011   3.234  1.00  0.00     0.029 A 
HETATM   29  C   UNL     1      42.843 -18.061   2.358  1.00  0.00     0.002 A 
HETATM   30  C   UNL     1      43.805 -19.009   2.696  1.00  0.00     0.000 A 
HETATM   31  C   UNL     1      44.481 -18.907   3.909  1.00  0.00     0.002 A 
HETATM   32  C   UNL     1      44.188 -17.862   4.792  1.00  0.00     0.029 A 
ENDBRANCH  23  27
ENDBRANCH  20  21
ENDBRANCH   3  20
TORSDOF 7
ENDMDL
