MODEL 1
REMARK VINA RESULT:      -8.3      0.000      0.000
REMARK  10 active torsions:
REMARK  status: ('A' for Active; 'I' for Inactive)
REMARK    1  A    between atoms: C_2  and  C_3 
REMARK    2  A    between atoms: C_3  and  C_4 
REMARK    3  A    between atoms: C_4  and  O_5 
REMARK    4  A    between atoms: O_5  and  C_6 
REMARK    5  A    between atoms: C_9  and  C_10 
REMARK       I    between atoms: C_10  and  N_11 
REMARK    6  A    between atoms: N_11  and  C_12 
REMARK    7  A    between atoms: C_12  and  N_13 
REMARK    8  A    between atoms: N_13  and  C_14 
REMARK    9  A    between atoms: C_16  and  C_17 
REMARK   10  A    between atoms: C_26  and  O_27 
ROOT
HETATM    1  N   UNL     1      38.667 -12.282   1.652  1.00  0.00    -0.333 N 
HETATM    2  H   UNL     1      37.661 -12.380   1.547  1.00  0.00     0.168 HD
ENDROOT
BRANCH   1   3
HETATM    3  C   UNL     1      39.237 -11.487   0.689  1.00  0.00     0.179 C 
HETATM    4  S   UNL     1      39.170 -12.031  -0.891  1.00  0.00    -0.040 SA
BRANCH   3   5
HETATM    5  N   UNL     1      39.909 -10.374   1.149  1.00  0.00    -0.299 N 
HETATM    6  C   UNL     1      41.287 -10.334   1.276  1.00  0.00     0.257 C 
HETATM    7  O   UNL     1      42.028 -10.070   0.334  1.00  0.00    -0.267 OA
HETATM    8  H   UNL     1      39.407  -9.968   1.928  1.00  0.00     0.171 HD
BRANCH   6   9
HETATM    9  C   UNL     1      41.849 -10.577   2.643  1.00  0.00     0.032 A 
HETATM   10  C   UNL     1      42.804 -11.572   2.904  1.00  0.00     0.020 A 
HETATM   11  C   UNL     1      43.373 -11.682   4.175  1.00  0.00     0.038 A 
HETATM   12  C   UNL     1      43.022 -10.785   5.181  1.00  0.00     0.068 A 
HETATM   13  C   UNL     1      42.042  -9.822   4.948  1.00  0.00     0.038 A 
HETATM   14  C   UNL     1      41.462  -9.714   3.680  1.00  0.00     0.020 A 
BRANCH  12  15
HETATM   15  O   UNL     1      43.672 -10.929   6.375  1.00  0.00    -0.351 OA
BRANCH  15  16
HETATM   16  C   UNL     1      44.803 -11.807   6.299  1.00  0.00     0.175 C 
BRANCH  16  17
HETATM   17  C   UNL     1      45.998 -11.083   6.915  1.00  0.00     0.026 C 
BRANCH  17  18
HETATM   18  C   UNL     1      45.673 -10.538   8.302  1.00  0.00    -0.002 C 
HETATM   19  C   UNL     1      45.897  -9.036   8.378  1.00  0.00     0.005 C 
ENDBRANCH  17  18
ENDBRANCH  16  17
ENDBRANCH  15  16
ENDBRANCH  12  15
ENDBRANCH   6   9
ENDBRANCH   3   5
ENDBRANCH   1   3
BRANCH   1  20
HETATM   20  C   UNL     1      39.212 -12.820   2.835  1.00  0.00     0.035 A 
HETATM   21  C   UNL     1      40.028 -13.953   2.858  1.00  0.00     0.048 A 
HETATM   22  C   UNL     1      40.644 -14.374   4.050  1.00  0.00     0.053 A 
HETATM   23  C   UNL     1      40.398 -13.647   5.229  1.00  0.00     0.086 A 
HETATM   24  C   UNL     1      39.551 -12.532   5.231  1.00  0.00    -0.026 A 
HETATM   25  C   UNL     1      39.297 -11.742   6.484  1.00  0.00     0.051 C 
HETATM   26  C   UNL     1      38.992 -12.107   4.018  1.00  0.00     0.039 A 
BRANCH  22  27
HETATM   27  C   UNL     1      41.569 -15.504   4.052  1.00  0.00     0.183 A 
HETATM   28  O   UNL     1      41.580 -16.308   2.943  1.00  0.00    -0.289 OA
HETATM   29  C   UNL     1      42.550 -17.228   3.216  1.00  0.00     0.106 A 
HETATM   30  C   UNL     1      43.069 -16.939   4.468  1.00  0.00     0.093 A 
HETATM   31  C   UNL     1      42.973 -18.271   2.403  1.00  0.00     0.040 A 
HETATM   32  N   UNL     1      42.416 -15.857   5.005  1.00  0.00    -0.221 NA
HETATM   33  C   UNL     1      44.111 -17.730   4.968  1.00  0.00     0.034 A 
HETATM   34  C   UNL     1      44.577 -18.788   4.173  1.00  0.00     0.002 A 
HETATM   35  C   UNL     1      44.014 -19.055   2.917  1.00  0.00     0.003 A 
ENDBRANCH  22  27
BRANCH  23  36
HETATM   36  O   UNL     1      40.989 -13.983   6.424  1.00  0.00    -0.359 OA
HETATM   37  H   UNL     1      40.325 -14.424   6.994  1.00  0.00     0.218 HD
ENDBRANCH  23  36
ENDBRANCH   1  20
TORSDOF 10
ENDMDL
MODEL 2
REMARK VINA RESULT:      -8.3      1.939      6.468
REMARK  10 active torsions:
REMARK  status: ('A' for Active; 'I' for Inactive)
REMARK    1  A    between atoms: C_2  and  C_3 
REMARK    2  A    between atoms: C_3  and  C_4 
REMARK    3  A    between atoms: C_4  and  O_5 
REMARK    4  A    between atoms: O_5  and  C_6 
REMARK    5  A    between atoms: C_9  and  C_10 
REMARK       I    between atoms: C_10  and  N_11 
REMARK    6  A    between atoms: N_11  and  C_12 
REMARK    7  A    between atoms: C_12  and  N_13 
REMARK    8  A    between atoms: N_13  and  C_14 
REMARK    9  A    between atoms: C_16  and  C_17 
REMARK   10  A    between atoms: C_26  and  O_27 
ROOT
HETATM    1  N   UNL     1      39.143 -11.894   3.347  1.00  0.00    -0.333 N 
HETATM    2  H   UNL     1      38.313 -11.498   3.779  1.00  0.00     0.168 HD
ENDROOT
BRANCH   1   3
HETATM    3  C   UNL     1      39.227 -11.639   2.002  1.00  0.00     0.179 C 
HETATM    4  S   UNL     1      37.822 -11.176   1.221  1.00  0.00    -0.040 SA
BRANCH   3   5
HETATM    5  N   UNL     1      40.445 -11.908   1.414  1.00  0.00    -0.299 N 
HETATM    6  C   UNL     1      40.684 -13.062   0.686  1.00  0.00     0.257 C 
HETATM    7  O   UNL     1      40.383 -13.169  -0.497  1.00  0.00    -0.267 OA
HETATM    8  H   UNL     1      41.194 -11.649   2.042  1.00  0.00     0.171 HD
BRANCH   6   9
HETATM    9  C   UNL     1      41.385 -14.178   1.399  1.00  0.00     0.032 A 
HETATM   10  C   UNL     1      42.648 -14.025   1.991  1.00  0.00     0.020 A 
HETATM   11  C   UNL     1      43.205 -15.067   2.736  1.00  0.00     0.038 A 
HETATM   12  C   UNL     1      42.498 -16.251   2.923  1.00  0.00     0.068 A 
HETATM   13  C   UNL     1      41.263 -16.434   2.303  1.00  0.00     0.038 A 
HETATM   14  C   UNL     1      40.706 -15.397   1.549  1.00  0.00     0.020 A 
BRANCH  12  15
HETATM   15  O   UNL     1      43.093 -17.194   3.716  1.00  0.00    -0.351 OA
BRANCH  15  16
HETATM   16  C   UNL     1      43.755 -18.223   2.968  1.00  0.00     0.175 C 
BRANCH  16  17
HETATM   17  C   UNL     1      44.052 -19.377   3.922  1.00  0.00     0.026 C 
BRANCH  17  18
HETATM   18  C   UNL     1      43.846 -20.731   3.250  1.00  0.00    -0.002 C 
HETATM   19  C   UNL     1      43.622 -20.583   1.753  1.00  0.00     0.005 C 
ENDBRANCH  17  18
ENDBRANCH  16  17
ENDBRANCH  15  16
ENDBRANCH  12  15
ENDBRANCH   6   9
ENDBRANCH   3   5
ENDBRANCH   1   3
BRANCH   1  20
HETATM   20  C   UNL     1      40.089 -12.443   4.236  1.00  0.00     0.035 A 
HETATM   21  C   UNL     1      41.147 -11.712   4.778  1.00  0.00     0.048 A 
HETATM   22  C   UNL     1      41.989 -12.275   5.755  1.00  0.00     0.053 A 
HETATM   23  C   UNL     1      41.761 -13.605   6.154  1.00  0.00     0.086 A 
HETATM   24  C   UNL     1      40.728 -14.366   5.591  1.00  0.00    -0.026 A 
HETATM   25  C   UNL     1      40.470 -15.781   6.025  1.00  0.00     0.051 C 
HETATM   26  C   UNL     1      39.876 -13.759   4.658  1.00  0.00     0.039 A 
BRANCH  22  27
HETATM   27  C   UNL     1      43.036 -11.478   6.386  1.00  0.00     0.183 A 
HETATM   28  O   UNL     1      42.644 -10.369   7.089  1.00  0.00    -0.289 OA
HETATM   29  C   UNL     1      43.811  -9.866   7.584  1.00  0.00     0.106 A 
HETATM   30  C   UNL     1      44.843 -10.688   7.157  1.00  0.00     0.093 A 
HETATM   31  C   UNL     1      43.971  -8.744   8.386  1.00  0.00     0.040 A 
HETATM   32  N   UNL     1      44.342 -11.694   6.369  1.00  0.00    -0.221 NA
HETATM   33  C   UNL     1      46.151 -10.398   7.563  1.00  0.00     0.034 A 
HETATM   34  C   UNL     1      46.356  -9.278   8.384  1.00  0.00     0.002 A 
HETATM   35  C   UNL     1      45.286  -8.466   8.782  1.00  0.00     0.003 A 
ENDBRANCH  22  27
BRANCH  23  36
HETATM   36  O   UNL     1      42.524 -14.211   7.124  1.00  0.00    -0.359 OA
HETATM   37  H   UNL     1      43.430 -13.837   7.094  1.00  0.00     0.218 HD
ENDBRANCH  23  36
ENDBRANCH   1  20
TORSDOF 10
ENDMDL
MODEL 3
REMARK VINA RESULT:      -8.1      2.702      7.409
REMARK  10 active torsions:
REMARK  status: ('A' for Active; 'I' for Inactive)
REMARK    1  A    between atoms: C_2  and  C_3 
REMARK    2  A    between atoms: C_3  and  C_4 
REMARK    3  A    between atoms: C_4  and  O_5 
REMARK    4  A    between atoms: O_5  and  C_6 
REMARK    5  A    between atoms: C_9  and  C_10 
REMARK       I    between atoms: C_10  and  N_11 
REMARK    6  A    between atoms: N_11  and  C_12 
REMARK    7  A    between atoms: C_12  and  N_13 
REMARK    8  A    between atoms: N_13  and  C_14 
REMARK    9  A    between atoms: C_16  and  C_17 
REMARK   10  A    between atoms: C_26  and  O_27 
ROOT
HETATM    1  N   UNL     1      39.404 -12.712   4.564  1.00  0.00    -0.333 N 
HETATM    2  H   UNL     1      38.606 -13.219   4.935  1.00  0.00     0.168 HD
ENDROOT
BRANCH   1   3
HETATM    3  C   UNL     1      40.137 -12.073   5.532  1.00  0.00     0.179 C 
HETATM    4  S   UNL     1      39.789 -10.462   5.818  1.00  0.00    -0.040 SA
BRANCH   3   5
HETATM    5  N   UNL     1      41.167 -12.803   6.085  1.00  0.00    -0.299 N 
HETATM    6  C   UNL     1      42.420 -12.891   5.499  1.00  0.00     0.257 C 
HETATM    7  O   UNL     1      43.284 -12.036   5.662  1.00  0.00    -0.267 OA
HETATM    8  H   UNL     1      40.813 -13.680   6.443  1.00  0.00     0.171 HD
BRANCH   6   9
HETATM    9  C   UNL     1      42.702 -14.116   4.685  1.00  0.00     0.032 A 
HETATM   10  C   UNL     1      42.444 -15.413   5.153  1.00  0.00     0.020 A 
HETATM   11  C   UNL     1      42.625 -16.513   4.310  1.00  0.00     0.038 A 
HETATM   12  C   UNL     1      43.029 -16.326   2.991  1.00  0.00     0.068 A 
HETATM   13  C   UNL     1      43.332 -15.047   2.527  1.00  0.00     0.038 A 
HETATM   14  C   UNL     1      43.162 -13.945   3.370  1.00  0.00     0.020 A 
BRANCH  12  15
HETATM   15  O   UNL     1      43.122 -17.452   2.220  1.00  0.00    -0.351 OA
BRANCH  15  16
HETATM   16  C   UNL     1      43.915 -18.483   2.823  1.00  0.00     0.175 C 
BRANCH  16  17
HETATM   17  C   UNL     1      43.281 -19.827   2.470  1.00  0.00     0.026 C 
BRANCH  17  18
HETATM   18  C   UNL     1      43.943 -20.977   3.222  1.00  0.00    -0.002 C 
HETATM   19  C   UNL     1      43.970 -20.722   4.720  1.00  0.00     0.005 C 
ENDBRANCH  17  18
ENDBRANCH  16  17
ENDBRANCH  15  16
ENDBRANCH  12  15
ENDBRANCH   6   9
ENDBRANCH   3   5
ENDBRANCH   1   3
BRANCH   1  20
HETATM   20  C   UNL     1      39.677 -12.923   3.198  1.00  0.00     0.035 A 
HETATM   21  C   UNL     1      40.069 -11.903   2.328  1.00  0.00     0.048 A 
HETATM   22  C   UNL     1      40.448 -12.190   1.004  1.00  0.00     0.053 A 
HETATM   23  C   UNL     1      40.396 -13.525   0.562  1.00  0.00     0.086 A 
HETATM   24  C   UNL     1      39.967 -14.554   1.410  1.00  0.00    -0.026 A 
HETATM   25  C   UNL     1      39.925 -15.984   0.950  1.00  0.00     0.051 C 
HETATM   26  C   UNL     1      39.645 -14.243   2.739  1.00  0.00     0.039 A 
BRANCH  22  27
HETATM   27  C   UNL     1      40.945 -11.135   0.125  1.00  0.00     0.183 A 
HETATM   28  O   UNL     1      40.469 -11.112  -1.159  1.00  0.00    -0.289 OA
HETATM   29  C   UNL     1      41.068 -10.018  -1.711  1.00  0.00     0.106 A 
HETATM   30  C   UNL     1      41.874  -9.441  -0.741  1.00  0.00     0.093 A 
HETATM   31  C   UNL     1      40.913  -9.534  -3.003  1.00  0.00     0.040 A 
HETATM   32  N   UNL     1      41.811 -10.178   0.416  1.00  0.00    -0.221 NA
HETATM   33  C   UNL     1      42.579  -8.273  -1.054  1.00  0.00     0.034 A 
HETATM   34  C   UNL     1      42.441  -7.743  -2.347  1.00  0.00     0.002 A 
HETATM   35  C   UNL     1      41.627  -8.366  -3.302  1.00  0.00     0.003 A 
ENDBRANCH  22  27
BRANCH  23  36
HETATM   36  O   UNL     1      40.780 -13.884  -0.708  1.00  0.00    -0.359 OA
HETATM   37  H   UNL     1      41.309 -13.156  -1.097  1.00  0.00     0.218 HD
ENDBRANCH  23  36
ENDBRANCH   1  20
TORSDOF 10
ENDMDL
MODEL 4
REMARK VINA RESULT:      -7.9      3.953      8.488
REMARK  10 active torsions:
REMARK  status: ('A' for Active; 'I' for Inactive)
REMARK    1  A    between atoms: C_2  and  C_3 
REMARK    2  A    between atoms: C_3  and  C_4 
REMARK    3  A    between atoms: C_4  and  O_5 
REMARK    4  A    between atoms: O_5  and  C_6 
REMARK    5  A    between atoms: C_9  and  C_10 
REMARK       I    between atoms: C_10  and  N_11 
REMARK    6  A    between atoms: N_11  and  C_12 
REMARK    7  A    between atoms: C_12  and  N_13 
REMARK    8  A    between atoms: N_13  and  C_14 
REMARK    9  A    between atoms: C_16  and  C_17 
REMARK   10  A    between atoms: C_26  and  O_27 
ROOT
HETATM    1  N   UNL     1      41.305 -10.369   5.832  1.00  0.00    -0.333 N 
HETATM    2  H   UNL     1      40.540  -9.705   5.906  1.00  0.00     0.168 HD
ENDROOT
BRANCH   1   3
HETATM    3  C   UNL     1      41.270 -11.109   4.676  1.00  0.00     0.179 C 
HETATM    4  S   UNL     1      41.953 -10.428   3.310  1.00  0.00    -0.040 SA
BRANCH   3   5
HETATM    5  N   UNL     1      40.566 -12.293   4.742  1.00  0.00    -0.299 N 
HETATM    6  C   UNL     1      40.349 -12.967   5.932  1.00  0.00     0.257 C 
HETATM    7  O   UNL     1      39.431 -12.681   6.694  1.00  0.00    -0.267 OA
HETATM    8  H   UNL     1      40.822 -12.888   3.966  1.00  0.00     0.171 HD
BRANCH   6   9
HETATM    9  C   UNL     1      41.262 -14.115   6.235  1.00  0.00     0.032 A 
HETATM   10  C   UNL     1      40.824 -15.448   6.257  1.00  0.00     0.020 A 
HETATM   11  C   UNL     1      41.742 -16.486   6.438  1.00  0.00     0.038 A 
HETATM   12  C   UNL     1      43.100 -16.207   6.564  1.00  0.00     0.068 A 
HETATM   13  C   UNL     1      43.543 -14.885   6.590  1.00  0.00     0.038 A 
HETATM   14  C   UNL     1      42.627 -13.843   6.419  1.00  0.00     0.020 A 
BRANCH  12  15
HETATM   15  O   UNL     1      43.932 -17.286   6.677  1.00  0.00    -0.351 OA
BRANCH  15  16
HETATM   16  C   UNL     1      43.595 -18.354   5.781  1.00  0.00     0.175 C 
BRANCH  16  17
HETATM   17  C   UNL     1      44.364 -18.134   4.481  1.00  0.00     0.026 C 
BRANCH  17  18
HETATM   18  C   UNL     1      43.427 -18.035   3.281  1.00  0.00    -0.002 C 
HETATM   19  C   UNL     1      43.201 -16.590   2.867  1.00  0.00     0.005 C 
ENDBRANCH  17  18
ENDBRANCH  16  17
ENDBRANCH  15  16
ENDBRANCH  12  15
ENDBRANCH   6   9
ENDBRANCH   3   5
ENDBRANCH   1   3
BRANCH   1  20
HETATM   20  C   UNL     1      42.306 -10.258   6.817  1.00  0.00     0.035 A 
HETATM   21  C   UNL     1      42.053  -9.833   8.123  1.00  0.00     0.048 A 
HETATM   22  C   UNL     1      43.065  -9.858   9.099  1.00  0.00     0.053 A 
HETATM   23  C   UNL     1      44.350 -10.294   8.727  1.00  0.00     0.086 A 
HETATM   24  C   UNL     1      44.631 -10.686   7.411  1.00  0.00    -0.026 A 
HETATM   25  C   UNL     1      45.996 -11.168   7.011  1.00  0.00     0.051 C 
HETATM   26  C   UNL     1      43.588 -10.698   6.475  1.00  0.00     0.039 A 
BRANCH  22  27
HETATM   27  C   UNL     1      42.775  -9.500  10.484  1.00  0.00     0.183 A 
HETATM   28  O   UNL     1      43.551  -8.527  11.057  1.00  0.00    -0.289 OA
HETATM   29  C   UNL     1      43.027  -8.385  12.309  1.00  0.00     0.106 A 
HETATM   30  C   UNL     1      41.971  -9.275  12.430  1.00  0.00     0.093 A 
HETATM   31  C   UNL     1      43.444  -7.509  13.302  1.00  0.00     0.040 A 
HETATM   32  N   UNL     1      41.838 -10.002  11.273  1.00  0.00    -0.221 NA
HETATM   33  C   UNL     1      41.241  -9.301  13.625  1.00  0.00     0.034 A 
HETATM   34  C   UNL     1      41.622  -8.422  14.651  1.00  0.00     0.002 A 
HETATM   35  C   UNL     1      42.706  -7.547  14.492  1.00  0.00     0.003 A 
ENDBRANCH  22  27
BRANCH  23  36
HETATM   36  O   UNL     1      45.380 -10.373   9.633  1.00  0.00    -0.359 OA
HETATM   37  H   UNL     1      46.226 -10.194   9.170  1.00  0.00     0.218 HD
ENDBRANCH  23  36
ENDBRANCH   1  20
TORSDOF 10
ENDMDL
MODEL 5
REMARK VINA RESULT:      -7.9      4.320      5.981
REMARK  10 active torsions:
REMARK  status: ('A' for Active; 'I' for Inactive)
REMARK    1  A    between atoms: C_2  and  C_3 
REMARK    2  A    between atoms: C_3  and  C_4 
REMARK    3  A    between atoms: C_4  and  O_5 
REMARK    4  A    between atoms: O_5  and  C_6 
REMARK    5  A    between atoms: C_9  and  C_10 
REMARK       I    between atoms: C_10  and  N_11 
REMARK    6  A    between atoms: N_11  and  C_12 
REMARK    7  A    between atoms: C_12  and  N_13 
REMARK    8  A    between atoms: N_13  and  C_14 
REMARK    9  A    between atoms: C_16  and  C_17 
REMARK   10  A    between atoms: C_26  and  O_27 
ROOT
HETATM    1  N   UNL     1      43.377 -11.975   7.177  1.00  0.00    -0.333 N 
HETATM    2  H   UNL     1      43.409 -12.408   8.096  1.00  0.00     0.168 HD
ENDROOT
BRANCH   1   3
HETATM    3  C   UNL     1      44.193 -10.877   7.068  1.00  0.00     0.179 C 
HETATM    4  S   UNL     1      45.797 -11.151   6.682  1.00  0.00    -0.040 SA
BRANCH   3   5
HETATM    5  N   UNL     1      43.622  -9.668   7.405  1.00  0.00    -0.299 N 
HETATM    6  C   UNL     1      44.086  -8.889   8.452  1.00  0.00     0.257 C 
HETATM    7  O   UNL     1      45.029  -8.115   8.330  1.00  0.00    -0.267 OA
HETATM    8  H   UNL     1      42.615  -9.737   7.352  1.00  0.00     0.171 HD
BRANCH   6   9
HETATM    9  C   UNL     1      43.347  -8.992   9.751  1.00  0.00     0.032 A 
HETATM   10  C   UNL     1      41.957  -9.178   9.820  1.00  0.00     0.020 A 
HETATM   11  C   UNL     1      41.337  -9.376  11.056  1.00  0.00     0.038 A 
HETATM   12  C   UNL     1      42.095  -9.424  12.222  1.00  0.00     0.068 A 
HETATM   13  C   UNL     1      43.469  -9.196  12.172  1.00  0.00     0.038 A 
HETATM   14  C   UNL     1      44.094  -8.988  10.939  1.00  0.00     0.020 A 
BRANCH  12  15
HETATM   15  O   UNL     1      41.412  -9.683  13.379  1.00  0.00    -0.351 OA
BRANCH  15  16
HETATM   16  C   UNL     1      40.777  -8.521  13.930  1.00  0.00     0.175 C 
BRANCH  16  17
HETATM   17  C   UNL     1      41.482  -8.180  15.240  1.00  0.00     0.026 C 
BRANCH  17  18
HETATM   18  C   UNL     1      42.610  -7.175  15.028  1.00  0.00    -0.002 C 
HETATM   19  C   UNL     1      42.249  -6.145  13.970  1.00  0.00     0.005 C 
ENDBRANCH  17  18
ENDBRANCH  16  17
ENDBRANCH  15  16
ENDBRANCH  12  15
ENDBRANCH   6   9
ENDBRANCH   3   5
ENDBRANCH   1   3
BRANCH   1  20
HETATM   20  C   UNL     1      42.662 -12.686   6.193  1.00  0.00     0.035 A 
HETATM   21  C   UNL     1      43.088 -13.909   5.669  1.00  0.00     0.048 A 
HETATM   22  C   UNL     1      42.275 -14.635   4.780  1.00  0.00     0.053 A 
HETATM   23  C   UNL     1      41.034 -14.090   4.403  1.00  0.00     0.086 A 
HETATM   24  C   UNL     1      40.609 -12.846   4.888  1.00  0.00    -0.026 A 
HETATM   25  C   UNL     1      39.278 -12.266   4.503  1.00  0.00     0.051 C 
HETATM   26  C   UNL     1      41.419 -12.171   5.812  1.00  0.00     0.039 A 
BRANCH  22  27
HETATM   27  C   UNL     1      42.682 -15.954   4.306  1.00  0.00     0.183 A 
HETATM   28  O   UNL     1      43.280 -16.790   5.213  1.00  0.00    -0.289 OA
HETATM   29  C   UNL     1      43.503 -17.934   4.505  1.00  0.00     0.106 A 
HETATM   30  C   UNL     1      43.037 -17.734   3.216  1.00  0.00     0.093 A 
HETATM   31  C   UNL     1      44.081 -19.110   4.966  1.00  0.00     0.040 A 
HETATM   32  N   UNL     1      42.542 -16.459   3.091  1.00  0.00    -0.221 NA
HETATM   33  C   UNL     1      43.124 -18.784   2.293  1.00  0.00     0.034 A 
HETATM   34  C   UNL     1      43.690 -19.995   2.722  1.00  0.00     0.002 A 
HETATM   35  C   UNL     1      44.164 -20.151   4.032  1.00  0.00     0.003 A 
ENDBRANCH  22  27
BRANCH  23  36
HETATM   36  O   UNL     1      40.175 -14.756   3.562  1.00  0.00    -0.359 OA
HETATM   37  H   UNL     1      39.513 -15.239   4.101  1.00  0.00     0.218 HD
ENDBRANCH  23  36
ENDBRANCH   1  20
TORSDOF 10
ENDMDL
MODEL 6
REMARK VINA RESULT:      -7.7      3.750      5.620
REMARK  10 active torsions:
REMARK  status: ('A' for Active; 'I' for Inactive)
REMARK    1  A    between atoms: C_2  and  C_3 
REMARK    2  A    between atoms: C_3  and  C_4 
REMARK    3  A    between atoms: C_4  and  O_5 
REMARK    4  A    between atoms: O_5  and  C_6 
REMARK    5  A    between atoms: C_9  and  C_10 
REMARK       I    between atoms: C_10  and  N_11 
REMARK    6  A    between atoms: N_11  and  C_12 
REMARK    7  A    between atoms: C_12  and  N_13 
REMARK    8  A    between atoms: N_13  and  C_14 
REMARK    9  A    between atoms: C_16  and  C_17 
REMARK   10  A    between atoms: C_26  and  O_27 
ROOT
HETATM    1  N   UNL     1      41.732 -11.893   6.418  1.00  0.00    -0.333 N 
HETATM    2  H   UNL     1      41.546 -12.497   7.213  1.00  0.00     0.168 HD
ENDROOT
BRANCH   1   3
HETATM    3  C   UNL     1      41.771 -10.562   6.746  1.00  0.00     0.179 C 
HETATM    4  S   UNL     1      40.374  -9.673   6.508  1.00  0.00    -0.040 SA
BRANCH   3   5
HETATM    5  N   UNL     1      43.002 -10.074   7.130  1.00  0.00    -0.299 N 
HETATM    6  C   UNL     1      43.739 -10.634   8.160  1.00  0.00     0.257 C 
HETATM    7  O   UNL     1      44.466 -11.608   7.996  1.00  0.00    -0.267 OA
HETATM    8  H   UNL     1      42.985  -9.063   7.132  1.00  0.00     0.171 HD
BRANCH   6   9
HETATM    9  C   UNL     1      43.654  -9.963   9.497  1.00  0.00     0.032 A 
HETATM   10  C   UNL     1      43.384  -8.594   9.642  1.00  0.00     0.020 A 
HETATM   11  C   UNL     1      43.208  -8.044  10.914  1.00  0.00     0.038 A 
HETATM   12  C   UNL     1      43.265  -8.856  12.043  1.00  0.00     0.068 A 
HETATM   13  C   UNL     1      43.578 -10.209  11.916  1.00  0.00     0.038 A 
HETATM   14  C   UNL     1      43.765 -10.761  10.646  1.00  0.00     0.020 A 
BRANCH  12  15
HETATM   15  O   UNL     1      43.022  -8.245  13.242  1.00  0.00    -0.351 OA
BRANCH  15  16
HETATM   16  C   UNL     1      42.120  -8.983  14.078  1.00  0.00     0.175 C 
BRANCH  16  17
HETATM   17  C   UNL     1      40.698  -8.688  13.605  1.00  0.00     0.026 C 
BRANCH  17  18
HETATM   18  C   UNL     1      39.978  -9.957  13.159  1.00  0.00    -0.002 C 
HETATM   19  C   UNL     1      39.839 -10.018  11.646  1.00  0.00     0.005 C 
ENDBRANCH  17  18
ENDBRANCH  16  17
ENDBRANCH  15  16
ENDBRANCH  12  15
ENDBRANCH   6   9
ENDBRANCH   3   5
ENDBRANCH   1   3
BRANCH   1  20
HETATM   20  C   UNL     1      42.079 -12.552   5.221  1.00  0.00     0.035 A 
HETATM   21  C   UNL     1      42.468 -13.892   5.168  1.00  0.00     0.048 A 
HETATM   22  C   UNL     1      42.685 -14.532   3.934  1.00  0.00     0.053 A 
HETATM   23  C   UNL     1      42.531 -13.785   2.751  1.00  0.00     0.086 A 
HETATM   24  C   UNL     1      42.180 -12.429   2.789  1.00  0.00    -0.026 A 
HETATM   25  C   UNL     1      41.999 -11.631   1.529  1.00  0.00     0.051 C 
HETATM   26  C   UNL     1      41.922 -11.834   4.032  1.00  0.00     0.039 A 
BRANCH  22  27
HETATM   27  C   UNL     1      43.001 -15.956   3.878  1.00  0.00     0.183 A 
HETATM   28  O   UNL     1      42.645 -16.634   2.742  1.00  0.00    -0.289 OA
HETATM   29  C   UNL     1      43.096 -17.903   2.963  1.00  0.00     0.106 A 
HETATM   30  C   UNL     1      43.694 -17.928   4.213  1.00  0.00     0.093 A 
HETATM   31  C   UNL     1      43.001 -18.991   2.107  1.00  0.00     0.040 A 
HETATM   32  N   UNL     1      43.601 -16.690   4.801  1.00  0.00    -0.221 NA
HETATM   33  C   UNL     1      44.270 -19.122   4.664  1.00  0.00     0.034 A 
HETATM   34  C   UNL     1      44.206 -20.245   3.824  1.00  0.00     0.002 A 
HETATM   35  C   UNL     1      43.579 -20.180   2.572  1.00  0.00     0.003 A 
ENDBRANCH  22  27
BRANCH  23  36
HETATM   36  O   UNL     1      42.698 -14.351   1.510  1.00  0.00    -0.359 OA
HETATM   37  H   UNL     1      42.372 -15.276   1.537  1.00  0.00     0.218 HD
ENDBRANCH  23  36
ENDBRANCH   1  20
TORSDOF 10
ENDMDL
MODEL 7
REMARK VINA RESULT:      -7.6      4.404      6.584
REMARK  10 active torsions:
REMARK  status: ('A' for Active; 'I' for Inactive)
REMARK    1  A    between atoms: C_2  and  C_3 
REMARK    2  A    between atoms: C_3  and  C_4 
REMARK    3  A    between atoms: C_4  and  O_5 
REMARK    4  A    between atoms: O_5  and  C_6 
REMARK    5  A    between atoms: C_9  and  C_10 
REMARK       I    between atoms: C_10  and  N_11 
REMARK    6  A    between atoms: N_11  and  C_12 
REMARK    7  A    between atoms: C_12  and  N_13 
REMARK    8  A    between atoms: N_13  and  C_14 
REMARK    9  A    between atoms: C_16  and  C_17 
REMARK   10  A    between atoms: C_26  and  O_27 
ROOT
HETATM    1  N   UNL     1      43.953 -11.554   8.211  1.00  0.00    -0.333 N 
HETATM    2  H   UNL     1      43.538 -11.840   9.093  1.00  0.00     0.168 HD
ENDROOT
BRANCH   1   3
HETATM    3  C   UNL     1      45.109 -10.831   8.365  1.00  0.00     0.179 C 
HETATM    4  S   UNL     1      46.133 -10.733   7.046  1.00  0.00    -0.040 SA
BRANCH   3   5
HETATM    5  N   UNL     1      45.357 -10.359   9.637  1.00  0.00    -0.299 N 
HETATM    6  C   UNL     1      44.385 -10.327  10.624  1.00  0.00     0.257 C 
HETATM    7  O   UNL     1      44.120 -11.302  11.319  1.00  0.00    -0.267 OA
HETATM    8  H   UNL     1      45.929  -9.526   9.588  1.00  0.00     0.171 HD
BRANCH   6   9
HETATM    9  C   UNL     1      43.694  -9.018  10.851  1.00  0.00     0.032 A 
HETATM   10  C   UNL     1      43.110  -8.279   9.811  1.00  0.00     0.020 A 
HETATM   11  C   UNL     1      42.384  -7.119  10.097  1.00  0.00     0.038 A 
HETATM   12  C   UNL     1      42.207  -6.709  11.415  1.00  0.00     0.068 A 
HETATM   13  C   UNL     1      42.819  -7.409  12.453  1.00  0.00     0.038 A 
HETATM   14  C   UNL     1      43.555  -8.564  12.172  1.00  0.00     0.020 A 
BRANCH  12  15
HETATM   15  O   UNL     1      41.432  -5.598  11.605  1.00  0.00    -0.351 OA
BRANCH  15  16
HETATM   16  C   UNL     1      40.310  -5.834  12.467  1.00  0.00     0.175 C 
BRANCH  16  17
HETATM   17  C   UNL     1      39.399  -6.849  11.782  1.00  0.00     0.026 C 
BRANCH  17  18
HETATM   18  C   UNL     1      39.075  -8.024  12.698  1.00  0.00    -0.002 C 
HETATM   19  C   UNL     1      39.659  -9.324  12.166  1.00  0.00     0.005 C 
ENDBRANCH  17  18
ENDBRANCH  16  17
ENDBRANCH  15  16
ENDBRANCH  12  15
ENDBRANCH   6   9
ENDBRANCH   3   5
ENDBRANCH   1   3
BRANCH   1  20
HETATM   20  C   UNL     1      43.364 -12.103   7.054  1.00  0.00     0.035 A 
HETATM   21  C   UNL     1      43.642 -13.391   6.590  1.00  0.00     0.048 A 
HETATM   22  C   UNL     1      42.935 -13.934   5.502  1.00  0.00     0.053 A 
HETATM   23  C   UNL     1      41.960 -13.141   4.869  1.00  0.00     0.086 A 
HETATM   24  C   UNL     1      41.697 -11.833   5.297  1.00  0.00    -0.026 A 
HETATM   25  C   UNL     1      40.647 -10.988   4.635  1.00  0.00     0.051 C 
HETATM   26  C   UNL     1      42.383 -11.340   6.415  1.00  0.00     0.039 A 
BRANCH  22  27
HETATM   27  C   UNL     1      43.162 -15.312   5.078  1.00  0.00     0.183 A 
HETATM   28  O   UNL     1      43.086 -15.577   3.736  1.00  0.00    -0.289 OA
HETATM   29  C   UNL     1      43.378 -16.906   3.647  1.00  0.00     0.106 A 
HETATM   30  C   UNL     1      43.611 -17.376   4.930  1.00  0.00     0.093 A 
HETATM   31  C   UNL     1      43.450 -17.678   2.495  1.00  0.00     0.040 A 
HETATM   32  N   UNL     1      43.441 -16.359   5.838  1.00  0.00    -0.221 NA
HETATM   33  C   UNL     1      43.964 -18.719   5.106  1.00  0.00     0.034 A 
HETATM   34  C   UNL     1      44.060 -19.532   3.965  1.00  0.00     0.002 A 
HETATM   35  C   UNL     1      43.803 -19.020   2.686  1.00  0.00     0.003 A 
ENDBRANCH  22  27
BRANCH  23  36
HETATM   36  O   UNL     1      41.210 -13.616   3.819  1.00  0.00    -0.359 OA
HETATM   37  H   UNL     1      41.129 -14.590   3.901  1.00  0.00     0.218 HD
ENDBRANCH  23  36
ENDBRANCH   1  20
TORSDOF 10
ENDMDL
MODEL 8
REMARK VINA RESULT:      -7.4      3.001      7.704
REMARK  10 active torsions:
REMARK  status: ('A' for Active; 'I' for Inactive)
REMARK    1  A    between atoms: C_2  and  C_3 
REMARK    2  A    between atoms: C_3  and  C_4 
REMARK    3  A    between atoms: C_4  and  O_5 
REMARK    4  A    between atoms: O_5  and  C_6 
REMARK    5  A    between atoms: C_9  and  C_10 
REMARK       I    between atoms: C_10  and  N_11 
REMARK    6  A    between atoms: N_11  and  C_12 
REMARK    7  A    between atoms: C_12  and  N_13 
REMARK    8  A    between atoms: N_13  and  C_14 
REMARK    9  A    between atoms: C_16  and  C_17 
REMARK   10  A    between atoms: C_26  and  O_27 
ROOT
HETATM    1  N   UNL     1      42.387 -15.308   7.023  1.00  0.00    -0.333 N 
HETATM    2  H   UNL     1      41.595 -15.244   7.655  1.00  0.00     0.168 HD
ENDROOT
BRANCH   1   3
HETATM    3  C   UNL     1      42.890 -16.580   6.912  1.00  0.00     0.179 C 
HETATM    4  S   UNL     1      44.115 -17.014   7.966  1.00  0.00    -0.040 SA
BRANCH   3   5
HETATM    5  N   UNL     1      42.407 -17.328   5.860  1.00  0.00    -0.299 N 
HETATM    6  C   UNL     1      43.061 -17.412   4.641  1.00  0.00     0.257 C 
HETATM    7  O   UNL     1      43.980 -18.199   4.439  1.00  0.00    -0.267 OA
HETATM    8  H   UNL     1      41.405 -17.212   5.788  1.00  0.00     0.171 HD
BRANCH   6   9
HETATM    9  C   UNL     1      42.561 -16.525   3.543  1.00  0.00     0.032 A 
HETATM   10  C   UNL     1      43.419 -15.786   2.714  1.00  0.00     0.020 A 
HETATM   11  C   UNL     1      42.903 -15.062   1.637  1.00  0.00     0.038 A 
HETATM   12  C   UNL     1      41.539 -15.095   1.358  1.00  0.00     0.068 A 
HETATM   13  C   UNL     1      40.670 -15.788   2.200  1.00  0.00     0.038 A 
HETATM   14  C   UNL     1      41.181 -16.506   3.285  1.00  0.00     0.020 A 
BRANCH  12  15
HETATM   15  O   UNL     1      41.131 -14.406   0.250  1.00  0.00    -0.351 OA
BRANCH  15  16
HETATM   16  C   UNL     1      39.783 -14.709  -0.137  1.00  0.00     0.175 C 
BRANCH  16  17
HETATM   17  C   UNL     1      39.439 -13.843  -1.347  1.00  0.00     0.026 C 
BRANCH  17  18
HETATM   18  C   UNL     1      39.469 -14.647  -2.643  1.00  0.00    -0.002 C 
HETATM   19  C   UNL     1      38.181 -14.482  -3.433  1.00  0.00     0.005 C 
ENDBRANCH  17  18
ENDBRANCH  16  17
ENDBRANCH  15  16
ENDBRANCH  12  15
ENDBRANCH   6   9
ENDBRANCH   3   5
ENDBRANCH   1   3
BRANCH   1  20
HETATM   20  C   UNL     1      42.670 -14.145   6.281  1.00  0.00     0.035 A 
HETATM   21  C   UNL     1      41.934 -13.751   5.161  1.00  0.00     0.048 A 
HETATM   22  C   UNL     1      42.181 -12.517   4.532  1.00  0.00     0.053 A 
HETATM   23  C   UNL     1      43.208 -11.698   5.035  1.00  0.00     0.086 A 
HETATM   24  C   UNL     1      43.982 -12.096   6.134  1.00  0.00    -0.026 A 
HETATM   25  C   UNL     1      45.069 -11.218   6.686  1.00  0.00     0.051 C 
HETATM   26  C   UNL     1      43.677 -13.307   6.770  1.00  0.00     0.039 A 
BRANCH  22  27
HETATM   27  C   UNL     1      41.350 -12.068   3.419  1.00  0.00     0.183 A 
HETATM   28  O   UNL     1      40.026 -12.418   3.444  1.00  0.00    -0.289 OA
HETATM   29  C   UNL     1      39.512 -11.835   2.322  1.00  0.00     0.106 A 
HETATM   30  C   UNL     1      40.544 -11.170   1.679  1.00  0.00     0.093 A 
HETATM   31  C   UNL     1      38.196 -11.871   1.882  1.00  0.00     0.040 A 
HETATM   32  N   UNL     1      41.717 -11.350   2.370  1.00  0.00    -0.221 NA
HETATM   33  C   UNL     1      40.264 -10.458   0.507  1.00  0.00     0.034 A 
HETATM   34  C   UNL     1      38.942 -10.458   0.033  1.00  0.00     0.002 A 
HETATM   35  C   UNL     1      37.931 -11.156   0.706  1.00  0.00     0.003 A 
ENDBRANCH  22  27
BRANCH  23  36
HETATM   36  O   UNL     1      43.487 -10.467   4.490  1.00  0.00    -0.359 OA
HETATM   37  H   UNL     1      43.993  -9.938   5.142  1.00  0.00     0.218 HD
ENDBRANCH  23  36
ENDBRANCH   1  20
TORSDOF 10
ENDMDL
MODEL 9
REMARK VINA RESULT:      -7.3      3.724      5.067
REMARK  10 active torsions:
REMARK  status: ('A' for Active; 'I' for Inactive)
REMARK    1  A    between atoms: C_2  and  C_3 
REMARK    2  A    between atoms: C_3  and  C_4 
REMARK    3  A    between atoms: C_4  and  O_5 
REMARK    4  A    between atoms: O_5  and  C_6 
REMARK    5  A    between atoms: C_9  and  C_10 
REMARK       I    between atoms: C_10  and  N_11 
REMARK    6  A    between atoms: N_11  and  C_12 
REMARK    7  A    between atoms: C_12  and  N_13 
REMARK    8  A    between atoms: N_13  and  C_14 
REMARK    9  A    between atoms: C_16  and  C_17 
REMARK   10  A    between atoms: C_26  and  O_27 
ROOT
HETATM    1  N   UNL     1      43.225 -11.370   4.878  1.00  0.00    -0.333 N 
HETATM    2  H   UNL     1      43.404 -10.521   4.349  1.00  0.00     0.168 HD
ENDROOT
BRANCH   1   3
HETATM    3  C   UNL     1      43.498 -11.241   6.217  1.00  0.00     0.179 C 
HETATM    4  S   UNL     1      45.099 -11.357   6.686  1.00  0.00    -0.040 SA
BRANCH   3   5
HETATM    5  N   UNL     1      42.402 -11.147   7.047  1.00  0.00    -0.299 N 
HETATM    6  C   UNL     1      41.651  -9.988   7.164  1.00  0.00     0.257 C 
HETATM    7  O   UNL     1      40.755  -9.701   6.378  1.00  0.00    -0.267 OA
HETATM    8  H   UNL     1      42.596 -11.608   7.925  1.00  0.00     0.171 HD
BRANCH   6   9
HETATM    9  C   UNL     1      41.946  -9.107   8.339  1.00  0.00     0.032 A 
HETATM   10  C   UNL     1      43.227  -8.598   8.603  1.00  0.00     0.020 A 
HETATM   11  C   UNL     1      43.420  -7.694   9.650  1.00  0.00     0.038 A 
HETATM   12  C   UNL     1      42.340  -7.266  10.417  1.00  0.00     0.068 A 
HETATM   13  C   UNL     1      41.071  -7.799  10.195  1.00  0.00     0.038 A 
HETATM   14  C   UNL     1      40.874  -8.712   9.154  1.00  0.00     0.020 A 
BRANCH  12  15
HETATM   15  O   UNL     1      42.612  -6.335  11.381  1.00  0.00    -0.351 OA
BRANCH  15  16
HETATM   16  C   UNL     1      42.071  -6.678  12.664  1.00  0.00     0.175 C 
BRANCH  16  17
HETATM   17  C   UNL     1      43.046  -7.638  13.340  1.00  0.00     0.026 C 
BRANCH  17  18
HETATM   18  C   UNL     1      42.360  -8.935  13.760  1.00  0.00    -0.002 C 
HETATM   19  C   UNL     1      42.565 -10.034  12.730  1.00  0.00     0.005 C 
ENDBRANCH  17  18
ENDBRANCH  16  17
ENDBRANCH  15  16
ENDBRANCH  12  15
ENDBRANCH   6   9
ENDBRANCH   3   5
ENDBRANCH   1   3
BRANCH   1  20
HETATM   20  C   UNL     1      42.580 -12.403   4.170  1.00  0.00     0.035 A 
HETATM   21  C   UNL     1      43.028 -13.726   4.166  1.00  0.00     0.048 A 
HETATM   22  C   UNL     1      42.278 -14.740   3.544  1.00  0.00     0.053 A 
HETATM   23  C   UNL     1      41.078 -14.391   2.898  1.00  0.00     0.086 A 
HETATM   24  C   UNL     1      40.634 -13.062   2.859  1.00  0.00    -0.026 A 
HETATM   25  C   UNL     1      39.345 -12.686   2.184  1.00  0.00     0.051 C 
HETATM   26  C   UNL     1      41.378 -12.083   3.531  1.00  0.00     0.039 A 
BRANCH  22  27
HETATM   27  C   UNL     1      42.702 -16.135   3.620  1.00  0.00     0.183 A 
HETATM   28  O   UNL     1      42.479 -16.920   2.520  1.00  0.00    -0.289 OA
HETATM   29  C   UNL     1      43.006 -18.129   2.869  1.00  0.00     0.106 A 
HETATM   30  C   UNL     1      43.514 -18.016   4.153  1.00  0.00     0.093 A 
HETATM   31  C   UNL     1      43.053 -19.282   2.096  1.00  0.00     0.040 A 
HETATM   32  N   UNL     1      43.288 -16.750   4.635  1.00  0.00    -0.221 NA
HETATM   33  C   UNL     1      44.143 -19.125   4.732  1.00  0.00     0.034 A 
HETATM   34  C   UNL     1      44.223 -20.307   3.980  1.00  0.00     0.002 A 
HETATM   35  C   UNL     1      43.683 -20.383   2.689  1.00  0.00     0.003 A 
ENDBRANCH  22  27
BRANCH  23  36
HETATM   36  O   UNL     1      40.278 -15.333   2.295  1.00  0.00    -0.359 OA
HETATM   37  H   UNL     1      39.997 -14.996   1.418  1.00  0.00     0.218 HD
ENDBRANCH  23  36
ENDBRANCH   1  20
TORSDOF 10
ENDMDL
MODEL 10
REMARK VINA RESULT:      -7.2      3.024      7.479
REMARK  10 active torsions:
REMARK  status: ('A' for Active; 'I' for Inactive)
REMARK    1  A    between atoms: C_2  and  C_3 
REMARK    2  A    between atoms: C_3  and  C_4 
REMARK    3  A    between atoms: C_4  and  O_5 
REMARK    4  A    between atoms: O_5  and  C_6 
REMARK    5  A    between atoms: C_9  and  C_10 
REMARK       I    between atoms: C_10  and  N_11 
REMARK    6  A    between atoms: N_11  and  C_12 
REMARK    7  A    between atoms: C_12  and  N_13 
REMARK    8  A    between atoms: N_13  and  C_14 
REMARK    9  A    between atoms: C_16  and  C_17 
REMARK   10  A    between atoms: C_26  and  O_27 
ROOT
HETATM    1  N   UNL     1      41.103 -16.064   5.851  1.00  0.00    -0.333 N 
HETATM    2  H   UNL     1      40.243 -16.502   6.169  1.00  0.00     0.168 HD
ENDROOT
BRANCH   1   3
HETATM    3  C   UNL     1      42.074 -16.969   5.503  1.00  0.00     0.179 C 
HETATM    4  S   UNL     1      43.243 -17.317   6.649  1.00  0.00    -0.040 SA
BRANCH   3   5
HETATM    5  N   UNL     1      42.047 -17.408   4.196  1.00  0.00    -0.299 N 
HETATM    6  C   UNL     1      42.902 -16.914   3.225  1.00  0.00     0.257 C 
HETATM    7  O   UNL     1      44.041 -17.341   3.071  1.00  0.00    -0.267 OA
HETATM    8  H   UNL     1      41.089 -17.518   3.891  1.00  0.00     0.171 HD
BRANCH   6   9
HETATM    9  C   UNL     1      42.356 -15.854   2.318  1.00  0.00     0.032 A 
HETATM   10  C   UNL     1      41.186 -16.031   1.563  1.00  0.00     0.020 A 
HETATM   11  C   UNL     1      40.664 -14.970   0.819  1.00  0.00     0.038 A 
HETATM   12  C   UNL     1      41.281 -13.722   0.848  1.00  0.00     0.068 A 
HETATM   13  C   UNL     1      42.468 -13.545   1.558  1.00  0.00     0.038 A 
HETATM   14  C   UNL     1      42.999 -14.607   2.296  1.00  0.00     0.020 A 
BRANCH  12  15
HETATM   15  O   UNL     1      40.668 -12.726   0.139  1.00  0.00    -0.351 OA
BRANCH  15  16
HETATM   16  C   UNL     1      39.355 -13.083  -0.314  1.00  0.00     0.175 C 
BRANCH  16  17
HETATM   17  C   UNL     1      39.139 -12.434  -1.679  1.00  0.00     0.026 C 
BRANCH  17  18
HETATM   18  C   UNL     1      39.592 -13.347  -2.814  1.00  0.00    -0.002 C 
HETATM   19  C   UNL     1      39.081 -14.767  -2.626  1.00  0.00     0.005 C 
ENDBRANCH  17  18
ENDBRANCH  16  17
ENDBRANCH  15  16
ENDBRANCH  12  15
ENDBRANCH   6   9
ENDBRANCH   3   5
ENDBRANCH   1   3
BRANCH   1  20
HETATM   20  C   UNL     1      41.045 -14.668   5.668  1.00  0.00     0.035 A 
HETATM   21  C   UNL     1      41.874 -13.771   6.344  1.00  0.00     0.048 A 
HETATM   22  C   UNL     1      41.858 -12.399   6.033  1.00  0.00     0.053 A 
HETATM   23  C   UNL     1      40.966 -11.942   5.046  1.00  0.00     0.086 A 
HETATM   24  C   UNL     1      40.099 -12.823   4.386  1.00  0.00    -0.026 A 
HETATM   25  C   UNL     1      39.156 -12.344   3.320  1.00  0.00     0.051 C 
HETATM   26  C   UNL     1      40.175 -14.191   4.683  1.00  0.00     0.039 A 
BRANCH  22  27
HETATM   27  C   UNL     1      42.790 -11.478   6.676  1.00  0.00     0.183 A 
HETATM   28  O   UNL     1      44.123 -11.795   6.623  1.00  0.00    -0.289 OA
HETATM   29  C   UNL     1      44.732 -10.752   7.258  1.00  0.00     0.106 A 
HETATM   30  C   UNL     1      43.746  -9.867   7.663  1.00  0.00     0.093 A 
HETATM   31  C   UNL     1      46.093 -10.574   7.467  1.00  0.00     0.040 A 
HETATM   32  N   UNL     1      42.510 -10.353   7.314  1.00  0.00    -0.221 NA
HETATM   33  C   UNL     1      44.122  -8.687   8.317  1.00  0.00     0.034 A 
HETATM   34  C   UNL     1      45.490  -8.461   8.538  1.00  0.00     0.002 A 
HETATM   35  C   UNL     1      46.455  -9.390   8.124  1.00  0.00     0.003 A 
ENDBRANCH  22  27
BRANCH  23  36
HETATM   36  O   UNL     1      40.916 -10.621   4.669  1.00  0.00    -0.359 OA
HETATM   37  H   UNL     1      41.057 -10.060   5.461  1.00  0.00     0.218 HD
ENDBRANCH  23  36
ENDBRANCH   1  20
TORSDOF 10
ENDMDL
