MODEL 1
REMARK VINA RESULT:      -9.2      0.000      0.000
REMARK  6 active torsions:
REMARK  status: ('A' for Active; 'I' for Inactive)
REMARK    1  A    between atoms: C_9  and  N_10 
REMARK       I    between atoms: N_10  and  C_11 
REMARK    2  A    between atoms: C_11  and  C_12 
REMARK    3  A    between atoms: C_12  and  N_13 
REMARK    4  A    between atoms: C_12  and  C_21 
REMARK       I    between atoms: N_13  and  C_14 
REMARK    5  A    between atoms: C_14  and  C_15 
REMARK    6  A    between atoms: C_21  and  C_22 
ROOT
HETATM    1  C   UNL     1      41.922 -15.875   2.788  1.00  0.00     0.181 C 
ENDROOT
BRANCH   1   2
HETATM    2  C   UNL     1      40.682 -15.317   2.025  1.00  0.00     0.245 C 
HETATM    3  N   UNL     1      40.983 -14.521   0.929  1.00  0.00    -0.325 N 
HETATM    4  H   UNL     1      41.941 -14.234   0.804  1.00  0.00     0.169 HD
HETATM    5  O   UNL     1      39.547 -15.689   2.326  1.00  0.00    -0.271 OA
BRANCH   3   6
HETATM    6  C   UNL     1      40.089 -14.033  -0.055  1.00  0.00     0.037 A 
HETATM    7  C   UNL     1      39.498 -12.764  -0.014  1.00  0.00     0.063 A 
HETATM    8  C   UNL     1      38.586 -12.401  -1.020  1.00  0.00     0.087 A 
HETATM    9  N   UNL     1      37.867 -11.240  -1.177  1.00  0.00    -0.234 NA
HETATM   10  C   UNL     1      38.301 -13.298  -2.041  1.00  0.00     0.062 A 
HETATM   11  C   UNL     1      37.152 -11.406  -2.270  1.00  0.00     0.101 A 
HETATM   12  C   UNL     1      36.197 -10.441  -2.861  1.00  0.00     0.091 C 
HETATM   13  N   UNL     1      37.394 -12.636  -2.829  1.00  0.00    -0.343 N 
HETATM   14  H   UNL     1      36.967 -12.995  -3.671  1.00  0.00     0.167 HD
HETATM   15  C   UNL     1      38.876 -14.562  -2.128  1.00  0.00     0.034 A 
HETATM   16  C   UNL     1      39.773 -14.911  -1.107  1.00  0.00     0.032 A 
ENDBRANCH   3   6
ENDBRANCH   1   2
BRANCH   1  17
HETATM   17  N   UNL     1      42.585 -14.785   3.510  1.00  0.00    -0.343 N 
HETATM   18  C   UNL     1      42.437 -14.572   4.863  1.00  0.00     0.259 C 
HETATM   19  O   UNL     1      41.694 -15.271   5.548  1.00  0.00    -0.267 OA
HETATM   20  H   UNL     1      43.334 -14.288   3.047  1.00  0.00     0.163 HD
BRANCH  18  21
HETATM   21  C   UNL     1      43.181 -13.447   5.416  1.00  0.00     0.072 A 
HETATM   22  S   UNL     1      43.316 -11.943   4.602  1.00  0.00    -0.097 SA
HETATM   23  C   UNL     1      44.213 -11.249   5.881  1.00  0.00     0.050 A 
HETATM   24  C   UNL     1      44.423 -12.141   6.908  1.00  0.00     0.009 A 
HETATM   25  C   UNL     1      43.829 -13.407   6.638  1.00  0.00     0.025 A 
ENDBRANCH  18  21
ENDBRANCH   1  17
BRANCH   1  26
HETATM   26  C   UNL     1      42.902 -16.744   1.971  1.00  0.00     0.073 C 
BRANCH  26  27
HETATM   27  C   UNL     1      43.269 -18.024   2.695  1.00  0.00    -0.056 A 
HETATM   28  C   UNL     1      43.770 -17.982   4.005  1.00  0.00     0.007 A 
HETATM   29  C   UNL     1      44.160 -19.157   4.650  1.00  0.00     0.001 A 
HETATM   30  C   UNL     1      44.060 -20.382   3.994  1.00  0.00     0.000 A 
HETATM   31  C   UNL     1      43.559 -20.436   2.694  1.00  0.00     0.001 A 
HETATM   32  C   UNL     1      43.160 -19.264   2.050  1.00  0.00     0.007 A 
ENDBRANCH  26  27
ENDBRANCH   1  26
TORSDOF 6
ENDMDL
MODEL 2
REMARK VINA RESULT:      -8.8      2.791      7.797
REMARK  6 active torsions:
REMARK  status: ('A' for Active; 'I' for Inactive)
REMARK    1  A    between atoms: C_9  and  N_10 
REMARK       I    between atoms: N_10  and  C_11 
REMARK    2  A    between atoms: C_11  and  C_12 
REMARK    3  A    between atoms: C_12  and  N_13 
REMARK    4  A    between atoms: C_12  and  C_21 
REMARK       I    between atoms: N_13  and  C_14 
REMARK    5  A    between atoms: C_14  and  C_15 
REMARK    6  A    between atoms: C_21  and  C_22 
ROOT
HETATM    1  C   UNL     1      42.513 -14.631   2.398  1.00  0.00     0.181 C 
ENDROOT
BRANCH   1   2
HETATM    2  C   UNL     1      42.687 -13.303   3.196  1.00  0.00     0.245 C 
HETATM    3  N   UNL     1      42.471 -13.413   4.562  1.00  0.00    -0.325 N 
HETATM    4  H   UNL     1      42.070 -14.271   4.909  1.00  0.00     0.169 HD
HETATM    5  O   UNL     1      43.115 -12.293   2.636  1.00  0.00    -0.271 OA
BRANCH   3   6
HETATM    6  C   UNL     1      42.733 -12.442   5.559  1.00  0.00     0.037 A 
HETATM    7  C   UNL     1      43.849 -12.470   6.404  1.00  0.00     0.063 A 
HETATM    8  C   UNL     1      43.984 -11.481   7.393  1.00  0.00     0.087 A 
HETATM    9  N   UNL     1      44.963 -11.316   8.344  1.00  0.00    -0.234 NA
HETATM   10  C   UNL     1      43.019 -10.489   7.504  1.00  0.00     0.062 A 
HETATM   11  C   UNL     1      44.621 -10.247   9.031  1.00  0.00     0.101 A 
HETATM   12  C   UNL     1      45.346  -9.660  10.181  1.00  0.00     0.091 C 
HETATM   13  N   UNL     1      43.453  -9.710   8.547  1.00  0.00    -0.343 N 
HETATM   14  H   UNL     1      42.989  -8.889   8.906  1.00  0.00     0.167 HD
HETATM   15  C   UNL     1      41.902 -10.415   6.677  1.00  0.00     0.034 A 
HETATM   16  C   UNL     1      41.778 -11.419   5.706  1.00  0.00     0.032 A 
ENDBRANCH   3   6
ENDBRANCH   1   2
BRANCH   1  17
HETATM   17  N   UNL     1      41.948 -14.339   1.077  1.00  0.00    -0.343 N 
HETATM   18  C   UNL     1      40.631 -13.984   0.877  1.00  0.00     0.259 C 
HETATM   19  O   UNL     1      39.830 -13.931   1.807  1.00  0.00    -0.267 OA
HETATM   20  H   UNL     1      42.584 -14.196   0.303  1.00  0.00     0.163 HD
BRANCH  18  21
HETATM   21  C   UNL     1      40.246 -13.717  -0.503  1.00  0.00     0.072 A 
HETATM   22  S   UNL     1      40.730 -12.298  -1.337  1.00  0.00    -0.097 SA
HETATM   23  C   UNL     1      39.965 -12.800  -2.781  1.00  0.00     0.050 A 
HETATM   24  C   UNL     1      39.339 -14.017  -2.639  1.00  0.00     0.009 A 
HETATM   25  C   UNL     1      39.501 -14.544  -1.326  1.00  0.00     0.025 A 
ENDBRANCH  18  21
ENDBRANCH   1  17
BRANCH   1  26
HETATM   26  C   UNL     1      41.787 -15.784   3.124  1.00  0.00     0.073 C 
BRANCH  26  27
HETATM   27  C   UNL     1      42.695 -16.977   3.350  1.00  0.00    -0.056 A 
HETATM   28  C   UNL     1      42.787 -17.993   2.386  1.00  0.00     0.007 A 
HETATM   29  C   UNL     1      43.580 -19.118   2.619  1.00  0.00     0.001 A 
HETATM   30  C   UNL     1      44.282 -19.242   3.816  1.00  0.00     0.000 A 
HETATM   31  C   UNL     1      44.201 -18.237   4.778  1.00  0.00     0.001 A 
HETATM   32  C   UNL     1      43.417 -17.107   4.544  1.00  0.00     0.007 A 
ENDBRANCH  26  27
ENDBRANCH   1  26
TORSDOF 6
ENDMDL
MODEL 3
REMARK VINA RESULT:      -8.7      1.655      4.874
REMARK  6 active torsions:
REMARK  status: ('A' for Active; 'I' for Inactive)
REMARK    1  A    between atoms: C_9  and  N_10 
REMARK       I    between atoms: N_10  and  C_11 
REMARK    2  A    between atoms: C_11  and  C_12 
REMARK    3  A    between atoms: C_12  and  N_13 
REMARK    4  A    between atoms: C_12  and  C_21 
REMARK       I    between atoms: N_13  and  C_14 
REMARK    5  A    between atoms: C_14  and  C_15 
REMARK    6  A    between atoms: C_21  and  C_22 
ROOT
HETATM    1  C   UNL     1      41.709 -14.879   3.428  1.00  0.00     0.181 C 
ENDROOT
BRANCH   1   2
HETATM    2  C   UNL     1      40.528 -14.757   2.417  1.00  0.00     0.245 C 
HETATM    3  N   UNL     1      40.676 -13.754   1.470  1.00  0.00    -0.325 N 
HETATM    4  H   UNL     1      41.426 -13.093   1.595  1.00  0.00     0.169 HD
HETATM    5  O   UNL     1      39.623 -15.591   2.415  1.00  0.00    -0.271 OA
BRANCH   3   6
HETATM    6  C   UNL     1      39.876 -13.523   0.324  1.00  0.00     0.037 A 
HETATM    7  C   UNL     1      39.080 -12.385   0.143  1.00  0.00     0.063 A 
HETATM    8  C   UNL     1      38.286 -12.282  -1.012  1.00  0.00     0.087 A 
HETATM    9  N   UNL     1      37.415 -11.290  -1.395  1.00  0.00    -0.234 NA
HETATM   10  C   UNL     1      38.316 -13.300  -1.956  1.00  0.00     0.062 A 
HETATM   11  C   UNL     1      36.915 -11.676  -2.549  1.00  0.00     0.101 A 
HETATM   12  C   UNL     1      35.914 -10.956  -3.369  1.00  0.00     0.091 C 
HETATM   13  N   UNL     1      37.443 -12.885  -2.930  1.00  0.00    -0.343 N 
HETATM   14  H   UNL     1      37.217 -13.387  -3.776  1.00  0.00     0.167 HD
HETATM   15  C   UNL     1      39.102 -14.441  -1.822  1.00  0.00     0.034 A 
HETATM   16  C   UNL     1      39.876 -14.532  -0.656  1.00  0.00     0.032 A 
ENDBRANCH   3   6
ENDBRANCH   1   2
BRANCH   1  17
HETATM   17  N   UNL     1      42.141 -16.278   3.510  1.00  0.00    -0.343 N 
HETATM   18  C   UNL     1      43.086 -16.830   2.671  1.00  0.00     0.259 C 
HETATM   19  O   UNL     1      43.600 -16.180   1.764  1.00  0.00    -0.267 OA
HETATM   20  H   UNL     1      41.890 -16.812   4.332  1.00  0.00     0.163 HD
BRANCH  18  21
HETATM   21  C   UNL     1      43.401 -18.234   2.905  1.00  0.00     0.072 A 
HETATM   22  S   UNL     1      44.114 -18.788   4.364  1.00  0.00    -0.097 SA
HETATM   23  C   UNL     1      44.068 -20.418   3.851  1.00  0.00     0.050 A 
HETATM   24  C   UNL     1      43.535 -20.548   2.589  1.00  0.00     0.009 A 
HETATM   25  C   UNL     1      43.151 -19.289   2.045  1.00  0.00     0.025 A 
ENDBRANCH  18  21
ENDBRANCH   1  17
BRANCH   1  26
HETATM   26  C   UNL     1      41.505 -14.228   4.813  1.00  0.00     0.073 C 
BRANCH  26  27
HETATM   27  C   UNL     1      42.657 -13.318   5.191  1.00  0.00    -0.056 A 
HETATM   28  C   UNL     1      43.218 -13.378   6.475  1.00  0.00     0.007 A 
HETATM   29  C   UNL     1      44.241 -12.502   6.840  1.00  0.00     0.001 A 
HETATM   30  C   UNL     1      44.709 -11.555   5.931  1.00  0.00     0.000 A 
HETATM   31  C   UNL     1      44.162 -11.490   4.651  1.00  0.00     0.001 A 
HETATM   32  C   UNL     1      43.145 -12.371   4.280  1.00  0.00     0.007 A 
ENDBRANCH  26  27
ENDBRANCH   1  26
TORSDOF 6
ENDMDL
MODEL 4
REMARK VINA RESULT:      -8.1      3.752      7.430
REMARK  6 active torsions:
REMARK  status: ('A' for Active; 'I' for Inactive)
REMARK    1  A    between atoms: C_9  and  N_10 
REMARK       I    between atoms: N_10  and  C_11 
REMARK    2  A    between atoms: C_11  and  C_12 
REMARK    3  A    between atoms: C_12  and  N_13 
REMARK    4  A    between atoms: C_12  and  C_21 
REMARK       I    between atoms: N_13  and  C_14 
REMARK    5  A    between atoms: C_14  and  C_15 
REMARK    6  A    between atoms: C_21  and  C_22 
ROOT
HETATM    1  C   UNL     1      40.160 -14.396   2.463  1.00  0.00     0.181 C 
ENDROOT
BRANCH   1   2
HETATM    2  C   UNL     1      39.820 -13.141   3.325  1.00  0.00     0.245 C 
HETATM    3  N   UNL     1      40.537 -13.036   4.507  1.00  0.00    -0.325 N 
HETATM    4  H   UNL     1      41.087 -13.830   4.798  1.00  0.00     0.169 HD
HETATM    5  O   UNL     1      39.066 -12.272   2.886  1.00  0.00    -0.271 OA
BRANCH   3   6
HETATM    6  C   UNL     1      40.586 -11.932   5.393  1.00  0.00     0.037 A 
HETATM    7  C   UNL     1      39.601 -11.652   6.348  1.00  0.00     0.063 A 
HETATM    8  C   UNL     1      39.726 -10.499   7.142  1.00  0.00     0.087 A 
HETATM    9  N   UNL     1      38.887 -10.005   8.113  1.00  0.00    -0.234 NA
HETATM   10  C   UNL     1      40.828  -9.671   6.977  1.00  0.00     0.062 A 
HETATM   11  C   UNL     1      39.451  -8.898   8.545  1.00  0.00     0.101 A 
HETATM   12  C   UNL     1      38.929  -7.983   9.586  1.00  0.00     0.091 C 
HETATM   13  N   UNL     1      40.635  -8.665   7.890  1.00  0.00    -0.343 N 
HETATM   14  H   UNL     1      41.251  -7.881   8.046  1.00  0.00     0.167 HD
HETATM   15  C   UNL     1      41.837  -9.920   6.052  1.00  0.00     0.034 A 
HETATM   16  C   UNL     1      41.687 -11.067   5.258  1.00  0.00     0.032 A 
ENDBRANCH   3   6
ENDBRANCH   1   2
BRANCH   1  17
HETATM   17  N   UNL     1      39.451 -14.317   1.182  1.00  0.00    -0.343 N 
HETATM   18  C   UNL     1      40.023 -13.825   0.028  1.00  0.00     0.259 C 
HETATM   19  O   UNL     1      41.168 -13.379   0.016  1.00  0.00    -0.267 OA
HETATM   20  H   UNL     1      38.580 -14.821   1.083  1.00  0.00     0.163 HD
BRANCH  18  21
HETATM   21  C   UNL     1      39.173 -13.834  -1.157  1.00  0.00     0.072 A 
HETATM   22  S   UNL     1      38.014 -12.609  -1.468  1.00  0.00    -0.097 SA
HETATM   23  C   UNL     1      37.568 -13.310  -2.962  1.00  0.00     0.050 A 
HETATM   24  C   UNL     1      38.273 -14.462  -3.223  1.00  0.00     0.009 A 
HETATM   25  C   UNL     1      39.197 -14.763  -2.182  1.00  0.00     0.025 A 
ENDBRANCH  18  21
ENDBRANCH   1  17
BRANCH   1  26
HETATM   26  C   UNL     1      40.013 -15.769   3.153  1.00  0.00     0.073 C 
BRANCH  26  27
HETATM   27  C   UNL     1      41.353 -16.441   3.376  1.00  0.00    -0.056 A 
HETATM   28  C   UNL     1      41.954 -16.427   4.643  1.00  0.00     0.007 A 
HETATM   29  C   UNL     1      43.213 -16.998   4.835  1.00  0.00     0.001 A 
HETATM   30  C   UNL     1      43.887 -17.581   3.764  1.00  0.00     0.000 A 
HETATM   31  C   UNL     1      43.297 -17.605   2.501  1.00  0.00     0.001 A 
HETATM   32  C   UNL     1      42.034 -17.044   2.309  1.00  0.00     0.007 A 
ENDBRANCH  26  27
ENDBRANCH   1  26
TORSDOF 6
ENDMDL
MODEL 5
REMARK VINA RESULT:      -8.1      2.729      8.282
REMARK  6 active torsions:
REMARK  status: ('A' for Active; 'I' for Inactive)
REMARK    1  A    between atoms: C_9  and  N_10 
REMARK       I    between atoms: N_10  and  C_11 
REMARK    2  A    between atoms: C_11  and  C_12 
REMARK    3  A    between atoms: C_12  and  N_13 
REMARK    4  A    between atoms: C_12  and  C_21 
REMARK       I    between atoms: N_13  and  C_14 
REMARK    5  A    between atoms: C_14  and  C_15 
REMARK    6  A    between atoms: C_21  and  C_22 
ROOT
HETATM    1  C   UNL     1      41.071 -14.669   2.672  1.00  0.00     0.181 C 
ENDROOT
BRANCH   1   2
HETATM    2  C   UNL     1      41.304 -14.044   4.081  1.00  0.00     0.245 C 
HETATM    3  N   UNL     1      42.267 -13.046   4.122  1.00  0.00    -0.325 N 
HETATM    4  H   UNL     1      42.844 -12.913   3.307  1.00  0.00     0.169 HD
HETATM    5  O   UNL     1      40.574 -14.348   5.025  1.00  0.00    -0.271 OA
BRANCH   3   6
HETATM    6  C   UNL     1      42.563 -12.175   5.199  1.00  0.00     0.037 A 
HETATM    7  C   UNL     1      43.579 -12.406   6.135  1.00  0.00     0.063 A 
HETATM    8  C   UNL     1      43.753 -11.500   7.195  1.00  0.00     0.087 A 
HETATM    9  N   UNL     1      44.650 -11.526   8.236  1.00  0.00    -0.234 NA
HETATM   10  C   UNL     1      42.928 -10.387   7.285  1.00  0.00     0.062 A 
HETATM   11  C   UNL     1      44.393 -10.457   8.958  1.00  0.00     0.101 A 
HETATM   12  C   UNL     1      45.079 -10.039  10.203  1.00  0.00     0.091 C 
HETATM   13  N   UNL     1      43.363  -9.733   8.410  1.00  0.00    -0.343 N 
HETATM   14  H   UNL     1      42.984  -8.874   8.779  1.00  0.00     0.167 HD
HETATM   15  C   UNL     1      41.916 -10.111   6.369  1.00  0.00     0.034 A 
HETATM   16  C   UNL     1      41.749 -11.035   5.328  1.00  0.00     0.032 A 
ENDBRANCH   3   6
ENDBRANCH   1   2
BRANCH   1  17
HETATM   17  N   UNL     1      41.587 -16.041   2.653  1.00  0.00    -0.343 N 
HETATM   18  C   UNL     1      42.826 -16.392   3.144  1.00  0.00     0.259 C 
HETATM   19  O   UNL     1      43.601 -15.552   3.596  1.00  0.00    -0.267 OA
HETATM   20  H   UNL     1      40.941 -16.795   2.457  1.00  0.00     0.163 HD
BRANCH  18  21
HETATM   21  C   UNL     1      43.170 -17.806   3.054  1.00  0.00     0.072 A 
HETATM   22  S   UNL     1      44.048 -18.620   4.281  1.00  0.00    -0.097 SA
HETATM   23  C   UNL     1      43.947 -20.117   3.461  1.00  0.00     0.050 A 
HETATM   24  C   UNL     1      43.271 -20.007   2.268  1.00  0.00     0.009 A 
HETATM   25  C   UNL     1      42.824 -18.675   2.034  1.00  0.00     0.025 A 
ENDBRANCH  18  21
ENDBRANCH   1  17
BRANCH   1  26
HETATM   26  C   UNL     1      41.532 -13.832   1.459  1.00  0.00     0.073 C 
BRANCH  26  27
HETATM   27  C   UNL     1      40.416 -13.617   0.457  1.00  0.00    -0.056 A 
HETATM   28  C   UNL     1      40.142 -14.584  -0.521  1.00  0.00     0.007 A 
HETATM   29  C   UNL     1      39.150 -14.360  -1.478  1.00  0.00     0.001 A 
HETATM   30  C   UNL     1      38.429 -13.168  -1.472  1.00  0.00     0.000 A 
HETATM   31  C   UNL     1      38.691 -12.202  -0.502  1.00  0.00     0.001 A 
HETATM   32  C   UNL     1      39.674 -12.428   0.462  1.00  0.00     0.007 A 
ENDBRANCH  26  27
ENDBRANCH   1  26
TORSDOF 6
ENDMDL
MODEL 6
REMARK VINA RESULT:      -7.9     15.241     17.222
REMARK  6 active torsions:
REMARK  status: ('A' for Active; 'I' for Inactive)
REMARK    1  A    between atoms: C_9  and  N_10 
REMARK       I    between atoms: N_10  and  C_11 
REMARK    2  A    between atoms: C_11  and  C_12 
REMARK    3  A    between atoms: C_12  and  N_13 
REMARK    4  A    between atoms: C_12  and  C_21 
REMARK       I    between atoms: N_13  and  C_14 
REMARK    5  A    between atoms: C_14  and  C_15 
REMARK    6  A    between atoms: C_21  and  C_22 
ROOT
HETATM    1  C   UNL     1      44.314 -29.580   0.410  1.00  0.00     0.181 C 
ENDROOT
BRANCH   1   2
HETATM    2  C   UNL     1      42.948 -29.823   1.120  1.00  0.00     0.245 C 
HETATM    3  N   UNL     1      42.891 -30.972   1.896  1.00  0.00    -0.325 N 
HETATM    4  H   UNL     1      43.650 -31.631   1.818  1.00  0.00     0.169 HD
HETATM    5  O   UNL     1      42.063 -28.967   1.077  1.00  0.00    -0.271 OA
BRANCH   3   6
HETATM    6  C   UNL     1      41.868 -31.358   2.796  1.00  0.00     0.037 A 
HETATM    7  C   UNL     1      40.785 -32.173   2.446  1.00  0.00     0.063 A 
HETATM    8  C   UNL     1      39.799 -32.453   3.408  1.00  0.00     0.087 A 
HETATM    9  N   UNL     1      38.647 -33.194   3.296  1.00  0.00    -0.234 NA
HETATM   10  C   UNL     1      39.925 -31.930   4.688  1.00  0.00     0.062 A 
HETATM   11  C   UNL     1      38.068 -33.137   4.476  1.00  0.00     0.101 A 
HETATM   12  C   UNL     1      36.785 -33.765   4.867  1.00  0.00     0.091 C 
HETATM   13  N   UNL     1      38.816 -32.389   5.352  1.00  0.00    -0.343 N 
HETATM   14  H   UNL     1      38.582 -32.200   6.315  1.00  0.00     0.167 HD
HETATM   15  C   UNL     1      40.992 -31.127   5.082  1.00  0.00     0.034 A 
HETATM   16  C   UNL     1      41.958 -30.848   4.104  1.00  0.00     0.032 A 
ENDBRANCH   3   6
ENDBRANCH   1   2
BRANCH   1  17
HETATM   17  N   UNL     1      45.386 -29.536   1.410  1.00  0.00    -0.343 N 
HETATM   18  C   UNL     1      46.655 -30.023   1.183  1.00  0.00     0.259 C 
HETATM   19  O   UNL     1      46.955 -30.570   0.125  1.00  0.00    -0.267 OA
HETATM   20  H   UNL     1      45.258 -28.952   2.226  1.00  0.00     0.163 HD
BRANCH  18  21
HETATM   21  C   UNL     1      47.596 -29.885   2.288  1.00  0.00     0.072 A 
HETATM   22  S   UNL     1      48.305 -31.237   3.070  1.00  0.00    -0.097 SA
HETATM   23  C   UNL     1      49.244 -30.242   4.095  1.00  0.00     0.050 A 
HETATM   24  C   UNL     1      49.020 -28.904   3.864  1.00  0.00     0.009 A 
HETATM   25  C   UNL     1      48.070 -28.700   2.823  1.00  0.00     0.025 A 
ENDBRANCH  18  21
ENDBRANCH   1  17
BRANCH   1  26
HETATM   26  C   UNL     1      44.373 -28.407  -0.592  1.00  0.00     0.073 C 
BRANCH  26  27
HETATM   27  C   UNL     1      44.541 -28.886  -2.021  1.00  0.00    -0.056 A 
HETATM   28  C   UNL     1      45.036 -28.020  -3.007  1.00  0.00     0.007 A 
HETATM   29  C   UNL     1      45.138 -28.444  -4.333  1.00  0.00     0.001 A 
HETATM   30  C   UNL     1      44.740 -29.731  -4.688  1.00  0.00     0.000 A 
HETATM   31  C   UNL     1      44.251 -30.601  -3.715  1.00  0.00     0.001 A 
HETATM   32  C   UNL     1      44.157 -30.183  -2.387  1.00  0.00     0.007 A 
ENDBRANCH  26  27
ENDBRANCH   1  26
TORSDOF 6
ENDMDL
MODEL 7
REMARK VINA RESULT:      -7.9      2.268      2.697
REMARK  6 active torsions:
REMARK  status: ('A' for Active; 'I' for Inactive)
REMARK    1  A    between atoms: C_9  and  N_10 
REMARK       I    between atoms: N_10  and  C_11 
REMARK    2  A    between atoms: C_11  and  C_12 
REMARK    3  A    between atoms: C_12  and  N_13 
REMARK    4  A    between atoms: C_12  and  C_21 
REMARK       I    between atoms: N_13  and  C_14 
REMARK    5  A    between atoms: C_14  and  C_15 
REMARK    6  A    between atoms: C_21  and  C_22 
ROOT
HETATM    1  C   UNL     1      41.671 -14.040   4.596  1.00  0.00     0.181 C 
ENDROOT
BRANCH   1   2
HETATM    2  C   UNL     1      41.920 -13.884   3.064  1.00  0.00     0.245 C 
HETATM    3  N   UNL     1      40.776 -13.688   2.306  1.00  0.00    -0.325 N 
HETATM    4  H   UNL     1      39.883 -13.820   2.755  1.00  0.00     0.169 HD
HETATM    5  O   UNL     1      43.069 -13.814   2.626  1.00  0.00    -0.271 OA
BRANCH   3   6
HETATM    6  C   UNL     1      40.697 -13.333   0.937  1.00  0.00     0.037 A 
HETATM    7  C   UNL     1      41.033 -12.068   0.437  1.00  0.00     0.063 A 
HETATM    8  C   UNL     1      40.869 -11.809  -0.935  1.00  0.00     0.087 A 
HETATM    9  N   UNL     1      41.101 -10.655  -1.645  1.00  0.00    -0.234 NA
HETATM   10  C   UNL     1      40.393 -12.812  -1.768  1.00  0.00     0.062 A 
HETATM   11  C   UNL     1      40.780 -10.930  -2.891  1.00  0.00     0.101 A 
HETATM   12  C   UNL     1      40.839 -10.007  -4.048  1.00  0.00     0.091 C 
HETATM   13  N   UNL     1      40.357 -12.231  -3.010  1.00  0.00    -0.343 N 
HETATM   14  H   UNL     1      40.057 -12.678  -3.865  1.00  0.00     0.167 HD
HETATM   15  C   UNL     1      40.061 -14.086  -1.316  1.00  0.00     0.034 A 
HETATM   16  C   UNL     1      40.218 -14.321   0.058  1.00  0.00     0.032 A 
ENDBRANCH   3   6
ENDBRANCH   1   2
BRANCH   1  17
HETATM   17  N   UNL     1      42.706 -13.312   5.337  1.00  0.00    -0.343 N 
HETATM   18  C   UNL     1      42.475 -12.120   5.989  1.00  0.00     0.259 C 
HETATM   19  O   UNL     1      41.378 -11.567   5.952  1.00  0.00    -0.267 OA
HETATM   20  H   UNL     1      43.571 -13.791   5.550  1.00  0.00     0.163 HD
BRANCH  18  21
HETATM   21  C   UNL     1      43.618 -11.544   6.686  1.00  0.00     0.072 A 
HETATM   22  S   UNL     1      43.446 -10.372   7.927  1.00  0.00    -0.097 SA
HETATM   23  C   UNL     1      45.132 -10.315   8.206  1.00  0.00     0.050 A 
HETATM   24  C   UNL     1      45.823 -11.158   7.367  1.00  0.00     0.009 A 
HETATM   25  C   UNL     1      44.950 -11.865   6.491  1.00  0.00     0.025 A 
ENDBRANCH  18  21
ENDBRANCH   1  17
BRANCH   1  26
HETATM   26  C   UNL     1      41.449 -15.475   5.118  1.00  0.00     0.073 C 
BRANCH  26  27
HETATM   27  C   UNL     1      42.274 -16.493   4.356  1.00  0.00    -0.056 A 
HETATM   28  C   UNL     1      43.495 -16.949   4.873  1.00  0.00     0.007 A 
HETATM   29  C   UNL     1      44.281 -17.844   4.145  1.00  0.00     0.001 A 
HETATM   30  C   UNL     1      43.859 -18.286   2.893  1.00  0.00     0.000 A 
HETATM   31  C   UNL     1      42.645 -17.843   2.372  1.00  0.00     0.001 A 
HETATM   32  C   UNL     1      41.853 -16.956   3.102  1.00  0.00     0.007 A 
ENDBRANCH  26  27
ENDBRANCH   1  26
TORSDOF 6
ENDMDL
MODEL 8
REMARK VINA RESULT:      -7.9      3.219      8.498
REMARK  6 active torsions:
REMARK  status: ('A' for Active; 'I' for Inactive)
REMARK    1  A    between atoms: C_9  and  N_10 
REMARK       I    between atoms: N_10  and  C_11 
REMARK    2  A    between atoms: C_11  and  C_12 
REMARK    3  A    between atoms: C_12  and  N_13 
REMARK    4  A    between atoms: C_12  and  C_21 
REMARK       I    between atoms: N_13  and  C_14 
REMARK    5  A    between atoms: C_14  and  C_15 
REMARK    6  A    between atoms: C_21  and  C_22 
ROOT
HETATM    1  C   UNL     1      42.645 -14.163   3.623  1.00  0.00     0.181 C 
ENDROOT
BRANCH   1   2
HETATM    2  C   UNL     1      43.046 -13.557   5.003  1.00  0.00     0.245 C 
HETATM    3  N   UNL     1      43.561 -12.270   4.945  1.00  0.00    -0.325 N 
HETATM    4  H   UNL     1      43.786 -11.892   4.038  1.00  0.00     0.169 HD
HETATM    5  O   UNL     1      42.784 -14.157   6.045  1.00  0.00    -0.271 OA
BRANCH   3   6
HETATM    6  C   UNL     1      43.834 -11.399   6.028  1.00  0.00     0.037 A 
HETATM    7  C   UNL     1      42.901 -10.504   6.566  1.00  0.00     0.063 A 
HETATM    8  C   UNL     1      43.294  -9.650   7.610  1.00  0.00     0.087 A 
HETATM    9  N   UNL     1      42.577  -8.682   8.272  1.00  0.00    -0.234 NA
HETATM   10  C   UNL     1      44.593  -9.719   8.097  1.00  0.00     0.062 A 
HETATM   11  C   UNL     1      43.404  -8.161   9.153  1.00  0.00     0.101 A 
HETATM   12  C   UNL     1      43.113  -7.066  10.106  1.00  0.00     0.091 C 
HETATM   13  N   UNL     1      44.634  -8.769   9.086  1.00  0.00    -0.343 N 
HETATM   14  H   UNL     1      45.434  -8.545   9.659  1.00  0.00     0.167 HD
HETATM   15  C   UNL     1      45.548 -10.602   7.602  1.00  0.00     0.034 A 
HETATM   16  C   UNL     1      45.139 -11.437   6.551  1.00  0.00     0.032 A 
ENDBRANCH   3   6
ENDBRANCH   1   2
BRANCH   1  17
HETATM   17  N   UNL     1      43.156 -15.534   3.522  1.00  0.00    -0.343 N 
HETATM   18  C   UNL     1      42.343 -16.647   3.516  1.00  0.00     0.259 C 
HETATM   19  O   UNL     1      41.124 -16.555   3.637  1.00  0.00    -0.267 OA
HETATM   20  H   UNL     1      44.120 -15.668   3.249  1.00  0.00     0.163 HD
BRANCH  18  21
HETATM   21  C   UNL     1      43.024 -17.931   3.397  1.00  0.00     0.072 A 
HETATM   22  S   UNL     1      43.914 -18.625   4.688  1.00  0.00    -0.097 SA
HETATM   23  C   UNL     1      44.275 -20.027   3.781  1.00  0.00     0.050 A 
HETATM   24  C   UNL     1      43.744 -19.973   2.513  1.00  0.00     0.009 A 
HETATM   25  C   UNL     1      43.024 -18.765   2.293  1.00  0.00     0.025 A 
ENDBRANCH  18  21
ENDBRANCH   1  17
BRANCH   1  26
HETATM   26  C   UNL     1      42.956 -13.308   2.376  1.00  0.00     0.073 C 
BRANCH  26  27
HETATM   27  C   UNL     1      41.761 -13.193   1.451  1.00  0.00    -0.056 A 
HETATM   28  C   UNL     1      41.179 -11.942   1.194  1.00  0.00     0.007 A 
HETATM   29  C   UNL     1      40.045 -11.843   0.386  1.00  0.00     0.001 A 
HETATM   30  C   UNL     1      39.477 -12.990  -0.165  1.00  0.00     0.000 A 
HETATM   31  C   UNL     1      40.050 -14.237   0.080  1.00  0.00     0.001 A 
HETATM   32  C   UNL     1      41.190 -14.337   0.879  1.00  0.00     0.007 A 
ENDBRANCH  26  27
ENDBRANCH   1  26
TORSDOF 6
ENDMDL
MODEL 9
REMARK VINA RESULT:      -7.8      4.975      9.246
REMARK  6 active torsions:
REMARK  status: ('A' for Active; 'I' for Inactive)
REMARK    1  A    between atoms: C_9  and  N_10 
REMARK       I    between atoms: N_10  and  C_11 
REMARK    2  A    between atoms: C_11  and  C_12 
REMARK    3  A    between atoms: C_12  and  N_13 
REMARK    4  A    between atoms: C_12  and  C_21 
REMARK       I    between atoms: N_13  and  C_14 
REMARK    5  A    between atoms: C_14  and  C_15 
REMARK    6  A    between atoms: C_21  and  C_22 
ROOT
HETATM    1  C   UNL     1      43.741 -10.668   8.309  1.00  0.00     0.181 C 
ENDROOT
BRANCH   1   2
HETATM    2  C   UNL     1      44.139 -11.841   7.363  1.00  0.00     0.245 C 
HETATM    3  N   UNL     1      43.083 -12.643   6.954  1.00  0.00    -0.325 N 
HETATM    4  H   UNL     1      42.193 -12.519   7.410  1.00  0.00     0.169 HD
HETATM    5  O   UNL     1      45.289 -11.929   6.931  1.00  0.00    -0.271 OA
BRANCH   3   6
HETATM    6  C   UNL     1      43.099 -13.654   5.962  1.00  0.00     0.037 A 
HETATM    7  C   UNL     1      43.442 -14.989   6.212  1.00  0.00     0.063 A 
HETATM    8  C   UNL     1      43.473 -15.899   5.142  1.00  0.00     0.087 A 
HETATM    9  N   UNL     1      43.800 -17.234   5.132  1.00  0.00    -0.234 NA
HETATM   10  C   UNL     1      43.149 -15.463   3.864  1.00  0.00     0.062 A 
HETATM   11  C   UNL     1      43.683 -17.624   3.881  1.00  0.00     0.101 A 
HETATM   12  C   UNL     1      43.941 -18.980   3.345  1.00  0.00     0.091 C 
HETATM   13  N   UNL     1      43.279 -16.583   3.081  1.00  0.00    -0.343 N 
HETATM   14  H   UNL     1      43.119 -16.632   2.086  1.00  0.00     0.167 HD
HETATM   15  C   UNL     1      42.789 -14.150   3.574  1.00  0.00     0.034 A 
HETATM   16  C   UNL     1      42.779 -13.254   4.653  1.00  0.00     0.032 A 
ENDBRANCH   3   6
ENDBRANCH   1   2
BRANCH   1  17
HETATM   17  N   UNL     1      43.289  -9.525   7.510  1.00  0.00    -0.343 N 
HETATM   18  C   UNL     1      41.962  -9.187   7.355  1.00  0.00     0.259 C 
HETATM   19  O   UNL     1      41.063  -9.860   7.853  1.00  0.00    -0.267 OA
HETATM   20  H   UNL     1      43.974  -8.839   7.221  1.00  0.00     0.163 HD
BRANCH  18  21
HETATM   21  C   UNL     1      41.696  -8.011   6.534  1.00  0.00     0.072 A 
HETATM   22  S   UNL     1      40.800  -8.090   5.074  1.00  0.00    -0.097 SA
HETATM   23  C   UNL     1      40.905  -6.401   4.834  1.00  0.00     0.050 A 
HETATM   24  C   UNL     1      41.619  -5.781   5.833  1.00  0.00     0.009 A 
HETATM   25  C   UNL     1      42.075  -6.710   6.812  1.00  0.00     0.025 A 
ENDBRANCH  18  21
ENDBRANCH   1  17
BRANCH   1  26
HETATM   26  C   UNL     1      44.766 -10.278   9.396  1.00  0.00     0.073 C 
BRANCH  26  27
HETATM   27  C   UNL     1      44.096  -9.872  10.693  1.00  0.00    -0.056 A 
HETATM   28  C   UNL     1      43.613 -10.846  11.580  1.00  0.00     0.007 A 
HETATM   29  C   UNL     1      42.946 -10.471  12.747  1.00  0.00     0.001 A 
HETATM   30  C   UNL     1      42.749  -9.122  13.037  1.00  0.00     0.000 A 
HETATM   31  C   UNL     1      43.228  -8.146  12.165  1.00  0.00     0.001 A 
HETATM   32  C   UNL     1      43.904  -8.519  11.002  1.00  0.00     0.007 A 
ENDBRANCH  26  27
ENDBRANCH   1  26
TORSDOF 6
ENDMDL
MODEL 10
REMARK VINA RESULT:      -7.7      2.924      8.530
REMARK  6 active torsions:
REMARK  status: ('A' for Active; 'I' for Inactive)
REMARK    1  A    between atoms: C_9  and  N_10 
REMARK       I    between atoms: N_10  and  C_11 
REMARK    2  A    between atoms: C_11  and  C_12 
REMARK    3  A    between atoms: C_12  and  N_13 
REMARK    4  A    between atoms: C_12  and  C_21 
REMARK       I    between atoms: N_13  and  C_14 
REMARK    5  A    between atoms: C_14  and  C_15 
REMARK    6  A    between atoms: C_21  and  C_22 
ROOT
HETATM    1  C   UNL     1      41.445 -13.731   2.335  1.00  0.00     0.181 C 
ENDROOT
BRANCH   1   2
HETATM    2  C   UNL     1      42.112 -12.606   3.185  1.00  0.00     0.245 C 
HETATM    3  N   UNL     1      41.587 -12.452   4.460  1.00  0.00    -0.325 N 
HETATM    4  H   UNL     1      40.736 -12.945   4.682  1.00  0.00     0.169 HD
HETATM    5  O   UNL     1      43.110 -12.019   2.766  1.00  0.00    -0.271 OA
BRANCH   3   6
HETATM    6  C   UNL     1      42.099 -11.657   5.514  1.00  0.00     0.037 A 
HETATM    7  C   UNL     1      43.184 -12.029   6.318  1.00  0.00     0.063 A 
HETATM    8  C   UNL     1      43.577 -11.184   7.371  1.00  0.00     0.087 A 
HETATM    9  N   UNL     1      44.579 -11.344   8.298  1.00  0.00    -0.234 NA
HETATM   10  C   UNL     1      42.894  -9.994   7.584  1.00  0.00     0.062 A 
HETATM   11  C   UNL     1      44.526 -10.279   9.070  1.00  0.00     0.101 A 
HETATM   12  C   UNL     1      45.391  -9.983  10.234  1.00  0.00     0.091 C 
HETATM   13  N   UNL     1      43.525  -9.431   8.664  1.00  0.00    -0.343 N 
HETATM   14  H   UNL     1      43.287  -8.551   9.096  1.00  0.00     0.167 HD
HETATM   15  C   UNL     1      41.821  -9.580   6.801  1.00  0.00     0.034 A 
HETATM   16  C   UNL     1      41.435 -10.443   5.765  1.00  0.00     0.032 A 
ENDBRANCH   3   6
ENDBRANCH   1   2
BRANCH   1  17
HETATM   17  N   UNL     1      42.210 -14.973   2.479  1.00  0.00    -0.343 N 
HETATM   18  C   UNL     1      41.974 -15.898   3.473  1.00  0.00     0.259 C 
HETATM   19  O   UNL     1      41.119 -15.712   4.336  1.00  0.00    -0.267 OA
HETATM   20  H   UNL     1      42.801 -15.266   1.711  1.00  0.00     0.163 HD
BRANCH  18  21
HETATM   21  C   UNL     1      42.824 -17.082   3.456  1.00  0.00     0.072 A 
HETATM   22  S   UNL     1      43.835 -17.510   4.774  1.00  0.00    -0.097 SA
HETATM   23  C   UNL     1      44.366 -18.937   3.997  1.00  0.00     0.050 A 
HETATM   24  C   UNL     1      43.801 -19.088   2.751  1.00  0.00     0.009 A 
HETATM   25  C   UNL     1      42.913 -18.018   2.441  1.00  0.00     0.025 A 
ENDBRANCH  18  21
ENDBRANCH   1  17
BRANCH   1  26
HETATM   26  C   UNL     1      41.121 -13.386   0.865  1.00  0.00     0.073 C 
BRANCH  26  27
HETATM   27  C   UNL     1      39.787 -12.682   0.725  1.00  0.00    -0.056 A 
HETATM   28  C   UNL     1      39.232 -12.456  -0.543  1.00  0.00     0.007 A 
HETATM   29  C   UNL     1      38.030 -11.758  -0.674  1.00  0.00     0.001 A 
HETATM   30  C   UNL     1      37.375 -11.274   0.457  1.00  0.00     0.000 A 
HETATM   31  C   UNL     1      37.915 -11.497   1.722  1.00  0.00     0.001 A 
HETATM   32  C   UNL     1      39.112 -12.203   1.856  1.00  0.00     0.007 A 
ENDBRANCH  26  27
ENDBRANCH   1  26
TORSDOF 6
ENDMDL
