MODEL 1
REMARK VINA RESULT:      -8.9      0.000      0.000
REMARK  8 active torsions:
REMARK  status: ('A' for Active; 'I' for Inactive)
REMARK    1  A    between atoms: C_4  and  N_5 
REMARK    2  A    between atoms: C_7  and  C_8 
REMARK    3  A    between atoms: C_8  and  N_9 
REMARK       I    between atoms: N_9  and  C_10 
REMARK       I    between atoms: C_10  and  N_11 
REMARK    4  A    between atoms: N_11  and  C_12 
REMARK    5  A    between atoms: C_12  and  C_13 
REMARK    6  A    between atoms: C_13  and  N_14 
REMARK       I    between atoms: N_14  and  C_15 
REMARK    7  A    between atoms: C_15  and  C_16 
REMARK    8  A    between atoms: C_17  and  O_18 
ROOT
HETATM    1  N   UNL     1      44.002 -12.256   5.685  1.00  0.00    -0.337 N 
HETATM    2  C   UNL     1      44.634 -11.790   6.797  1.00  0.00     0.316 C 
HETATM    3  N   UNL     1      45.761 -11.082   6.485  1.00  0.00    -0.342 N 
HETATM    4  O   UNL     1      44.240 -11.987   7.939  1.00  0.00    -0.248 OA
HETATM    5  H   UNL     1      44.184 -11.810   4.796  1.00  0.00     0.164 HD
HETATM    6  H   UNL     1      46.182 -11.273   5.588  1.00  0.00     0.164 HD
ENDROOT
BRANCH   1   7
HETATM    7  C   UNL     1      42.704 -12.882   5.796  1.00  0.00     0.185 C 
BRANCH   7   8
HETATM    8  C   UNL     1      42.542 -13.932   4.739  1.00  0.00     0.074 A 
HETATM    9  N   UNL     1      43.131 -15.135   4.837  1.00  0.00    -0.171 NA
HETATM   10  N   UNL     1      42.744 -15.814   3.722  1.00  0.00    -0.245 N 
HETATM   11  C   UNL     1      41.961 -15.022   2.908  1.00  0.00     0.121 A 
HETATM   12  C   UNL     1      41.810 -13.812   3.540  1.00  0.00     0.050 A 
BRANCH  10  13
HETATM   13  C   UNL     1      43.138 -17.165   3.513  1.00  0.00     0.058 A 
HETATM   14  C   UNL     1      43.900 -17.822   4.492  1.00  0.00     0.031 A 
HETATM   15  C   UNL     1      44.285 -19.152   4.313  1.00  0.00     0.002 A 
HETATM   16  C   UNL     1      43.916 -19.835   3.156  1.00  0.00     0.000 A 
HETATM   17  C   UNL     1      43.163 -19.191   2.176  1.00  0.00     0.002 A 
HETATM   18  C   UNL     1      42.772 -17.859   2.351  1.00  0.00     0.031 A 
ENDBRANCH  10  13
ENDBRANCH   7   8
ENDBRANCH   1   7
BRANCH   3  19
HETATM   19  C   UNL     1      46.635 -10.572   7.529  1.00  0.00     0.144 C 
BRANCH  19  20
HETATM   20  C   UNL     1      46.170  -9.213   8.068  1.00  0.00     0.142 C 
BRANCH  20  21
HETATM   21  N   UNL     1      45.506  -9.321   9.362  1.00  0.00    -0.355 N 
HETATM   22  C   UNL     1      44.254  -8.783   9.566  1.00  0.00     0.254 C 
HETATM   23  O   UNL     1      43.639  -8.179   8.689  1.00  0.00    -0.268 OA
HETATM   24  H   UNL     1      45.922  -9.943  10.040  1.00  0.00     0.162 HD
BRANCH  22  25
HETATM   25  C   UNL     1      43.615  -8.970  10.900  1.00  0.00     0.065 A 
HETATM   26  C   UNL     1      43.336 -10.270  11.354  1.00  0.00     0.081 A 
HETATM   27  C   UNL     1      42.742 -10.481  12.597  1.00  0.00     0.037 A 
HETATM   28  C   UNL     1      42.402  -9.395  13.398  1.00  0.00     0.003 A 
HETATM   29  C   UNL     1      42.652  -8.097  12.954  1.00  0.00     0.001 A 
HETATM   30  C   UNL     1      43.252  -7.881  11.709  1.00  0.00     0.020 A 
BRANCH  26  31
HETATM   31  O   UNL     1      43.618 -11.398  10.627  1.00  0.00    -0.360 OA
HETATM   32  H   UNL     1      44.186 -11.979  11.182  1.00  0.00     0.217 HD
ENDBRANCH  26  31
ENDBRANCH  22  25
ENDBRANCH  20  21
ENDBRANCH  19  20
ENDBRANCH   3  19
TORSDOF 8
ENDMDL
MODEL 2
REMARK VINA RESULT:      -8.7      1.672      2.283
REMARK  8 active torsions:
REMARK  status: ('A' for Active; 'I' for Inactive)
REMARK    1  A    between atoms: C_4  and  N_5 
REMARK    2  A    between atoms: C_7  and  C_8 
REMARK    3  A    between atoms: C_8  and  N_9 
REMARK       I    between atoms: N_9  and  C_10 
REMARK       I    between atoms: C_10  and  N_11 
REMARK    4  A    between atoms: N_11  and  C_12 
REMARK    5  A    between atoms: C_12  and  C_13 
REMARK    6  A    between atoms: C_13  and  N_14 
REMARK       I    between atoms: N_14  and  C_15 
REMARK    7  A    between atoms: C_15  and  C_16 
REMARK    8  A    between atoms: C_17  and  O_18 
ROOT
HETATM    1  N   UNL     1      42.649 -13.040   6.676  1.00  0.00    -0.337 N 
HETATM    2  C   UNL     1      43.318 -11.856   6.612  1.00  0.00     0.316 C 
HETATM    3  N   UNL     1      43.554 -11.335   7.854  1.00  0.00    -0.342 N 
HETATM    4  O   UNL     1      43.660 -11.321   5.566  1.00  0.00    -0.248 OA
HETATM    5  H   UNL     1      42.674 -13.570   7.537  1.00  0.00     0.164 HD
HETATM    6  H   UNL     1      42.947 -11.645   8.598  1.00  0.00     0.164 HD
ENDROOT
BRANCH   1   7
HETATM    7  C   UNL     1      42.454 -13.829   5.481  1.00  0.00     0.185 C 
BRANCH   7   8
HETATM    8  C   UNL     1      43.186 -15.132   5.594  1.00  0.00     0.074 A 
HETATM    9  N   UNL     1      42.902 -16.178   4.802  1.00  0.00    -0.171 NA
HETATM   10  N   UNL     1      43.771 -17.156   5.177  1.00  0.00    -0.245 N 
HETATM   11  C   UNL     1      44.557 -16.741   6.231  1.00  0.00     0.121 A 
HETATM   12  C   UNL     1      44.208 -15.444   6.514  1.00  0.00     0.050 A 
BRANCH  10  13
HETATM   13  C   UNL     1      43.797 -18.410   4.504  1.00  0.00     0.058 A 
HETATM   14  C   UNL     1      43.971 -19.589   5.247  1.00  0.00     0.031 A 
HETATM   15  C   UNL     1      43.986 -20.830   4.607  1.00  0.00     0.002 A 
HETATM   16  C   UNL     1      43.830 -20.905   3.225  1.00  0.00     0.000 A 
HETATM   17  C   UNL     1      43.660 -19.740   2.479  1.00  0.00     0.002 A 
HETATM   18  C   UNL     1      43.642 -18.493   3.113  1.00  0.00     0.031 A 
ENDBRANCH  10  13
ENDBRANCH   7   8
ENDBRANCH   1   7
BRANCH   3  19
HETATM   19  C   UNL     1      44.177 -10.030   8.011  1.00  0.00     0.144 C 
BRANCH  19  20
HETATM   20  C   UNL     1      45.016  -9.934   9.291  1.00  0.00     0.142 C 
BRANCH  20  21
HETATM   21  N   UNL     1      44.320  -9.240  10.368  1.00  0.00    -0.355 N 
HETATM   22  C   UNL     1      43.720  -9.939  11.392  1.00  0.00     0.254 C 
HETATM   23  O   UNL     1      43.724 -11.167  11.451  1.00  0.00    -0.268 OA
HETATM   24  H   UNL     1      44.439  -8.239  10.421  1.00  0.00     0.162 HD
BRANCH  22  25
HETATM   25  C   UNL     1      43.064  -9.165  12.485  1.00  0.00     0.065 A 
HETATM   26  C   UNL     1      41.902  -9.676  13.089  1.00  0.00     0.081 A 
HETATM   27  C   UNL     1      41.265  -8.980  14.115  1.00  0.00     0.037 A 
HETATM   28  C   UNL     1      41.770  -7.754  14.541  1.00  0.00     0.003 A 
HETATM   29  C   UNL     1      42.909  -7.223  13.938  1.00  0.00     0.001 A 
HETATM   30  C   UNL     1      43.554  -7.920  12.911  1.00  0.00     0.020 A 
BRANCH  26  31
HETATM   31  O   UNL     1      41.323 -10.863  12.723  1.00  0.00    -0.360 OA
HETATM   32  H   UNL     1      40.988 -11.298  13.540  1.00  0.00     0.217 HD
ENDBRANCH  26  31
ENDBRANCH  22  25
ENDBRANCH  20  21
ENDBRANCH  19  20
ENDBRANCH   3  19
TORSDOF 8
ENDMDL
MODEL 3
REMARK VINA RESULT:      -8.4      1.884      9.793
REMARK  8 active torsions:
REMARK  status: ('A' for Active; 'I' for Inactive)
REMARK    1  A    between atoms: C_4  and  N_5 
REMARK    2  A    between atoms: C_7  and  C_8 
REMARK    3  A    between atoms: C_8  and  N_9 
REMARK       I    between atoms: N_9  and  C_10 
REMARK       I    between atoms: C_10  and  N_11 
REMARK    4  A    between atoms: N_11  and  C_12 
REMARK    5  A    between atoms: C_12  and  C_13 
REMARK    6  A    between atoms: C_13  and  N_14 
REMARK       I    between atoms: N_14  and  C_15 
REMARK    7  A    between atoms: C_15  and  C_16 
REMARK    8  A    between atoms: C_17  and  O_18 
ROOT
HETATM    1  N   UNL     1      43.901 -11.685   5.749  1.00  0.00    -0.337 N 
HETATM    2  C   UNL     1      42.941 -12.647   5.666  1.00  0.00     0.316 C 
HETATM    3  N   UNL     1      41.962 -12.316   4.771  1.00  0.00    -0.342 N 
HETATM    4  O   UNL     1      42.953 -13.681   6.321  1.00  0.00    -0.248 OA
HETATM    5  H   UNL     1      44.005 -11.031   4.985  1.00  0.00     0.164 HD
HETATM    6  H   UNL     1      41.852 -11.335   4.563  1.00  0.00     0.164 HD
ENDROOT
BRANCH   1   7
HETATM    7  C   UNL     1      45.104 -11.924   6.513  1.00  0.00     0.185 C 
BRANCH   7   8
HETATM    8  C   UNL     1      45.189 -10.964   7.661  1.00  0.00     0.074 A 
HETATM    9  N   UNL     1      44.289 -10.968   8.658  1.00  0.00    -0.171 NA
HETATM   10  N   UNL     1      44.699  -9.990   9.512  1.00  0.00    -0.245 N 
HETATM   11  C   UNL     1      45.816  -9.345   9.025  1.00  0.00     0.121 A 
HETATM   12  C   UNL     1      46.157  -9.955   7.843  1.00  0.00     0.050 A 
BRANCH  10  13
HETATM   13  C   UNL     1      44.004  -9.742  10.729  1.00  0.00     0.058 A 
HETATM   14  C   UNL     1      43.773  -8.418  11.136  1.00  0.00     0.031 A 
HETATM   15  C   UNL     1      43.081  -8.155  12.320  1.00  0.00     0.002 A 
HETATM   16  C   UNL     1      42.618  -9.206  13.107  1.00  0.00     0.000 A 
HETATM   17  C   UNL     1      42.846 -10.524  12.714  1.00  0.00     0.002 A 
HETATM   18  C   UNL     1      43.536 -10.795  11.527  1.00  0.00     0.031 A 
ENDBRANCH  10  13
ENDBRANCH   7   8
ENDBRANCH   1   7
BRANCH   3  19
HETATM   19  C   UNL     1      40.794 -13.164   4.595  1.00  0.00     0.144 C 
BRANCH  19  20
HETATM   20  C   UNL     1      40.850 -13.971   3.292  1.00  0.00     0.142 C 
BRANCH  20  21
HETATM   21  N   UNL     1      41.394 -15.311   3.485  1.00  0.00    -0.355 N 
HETATM   22  C   UNL     1      42.616 -15.665   2.954  1.00  0.00     0.254 C 
HETATM   23  O   UNL     1      43.300 -14.892   2.287  1.00  0.00    -0.268 OA
HETATM   24  H   UNL     1      40.926 -15.903   4.154  1.00  0.00     0.162 HD
BRANCH  22  25
HETATM   25  C   UNL     1      43.133 -17.037   3.229  1.00  0.00     0.065 A 
HETATM   26  C   UNL     1      43.756 -17.304   4.460  1.00  0.00     0.081 A 
HETATM   27  C   UNL     1      44.248 -18.575   4.751  1.00  0.00     0.037 A 
HETATM   28  C   UNL     1      44.140 -19.594   3.808  1.00  0.00     0.003 A 
HETATM   29  C   UNL     1      43.544 -19.341   2.574  1.00  0.00     0.001 A 
HETATM   30  C   UNL     1      43.045 -18.068   2.280  1.00  0.00     0.020 A 
BRANCH  26  31
HETATM   31  O   UNL     1      43.924 -16.359   5.439  1.00  0.00    -0.360 OA
HETATM   32  H   UNL     1      44.740 -16.589   5.940  1.00  0.00     0.217 HD
ENDBRANCH  26  31
ENDBRANCH  22  25
ENDBRANCH  20  21
ENDBRANCH  19  20
ENDBRANCH   3  19
TORSDOF 8
ENDMDL
MODEL 4
REMARK VINA RESULT:      -8.2     17.512     19.234
REMARK  8 active torsions:
REMARK  status: ('A' for Active; 'I' for Inactive)
REMARK    1  A    between atoms: C_4  and  N_5 
REMARK    2  A    between atoms: C_7  and  C_8 
REMARK    3  A    between atoms: C_8  and  N_9 
REMARK       I    between atoms: N_9  and  C_10 
REMARK       I    between atoms: C_10  and  N_11 
REMARK    4  A    between atoms: N_11  and  C_12 
REMARK    5  A    between atoms: C_12  and  C_13 
REMARK    6  A    between atoms: C_13  and  N_14 
REMARK       I    between atoms: N_14  and  C_15 
REMARK    7  A    between atoms: C_15  and  C_16 
REMARK    8  A    between atoms: C_17  and  O_18 
ROOT
HETATM    1  N   UNL     1      44.533 -28.373  -0.397  1.00  0.00    -0.337 N 
HETATM    2  C   UNL     1      43.680 -29.293   0.133  1.00  0.00     0.316 C 
HETATM    3  N   UNL     1      43.046 -28.818   1.248  1.00  0.00    -0.342 N 
HETATM    4  O   UNL     1      43.508 -30.412  -0.331  1.00  0.00    -0.248 OA
HETATM    5  H   UNL     1      44.400 -27.396  -0.172  1.00  0.00     0.164 HD
HETATM    6  H   UNL     1      43.499 -28.062   1.739  1.00  0.00     0.164 HD
ENDROOT
BRANCH   1   7
HETATM    7  C   UNL     1      45.169 -28.622  -1.671  1.00  0.00     0.185 C 
BRANCH   7   8
HETATM    8  C   UNL     1      46.601 -29.014  -1.468  1.00  0.00     0.074 A 
HETATM    9  N   UNL     1      46.978 -29.837  -0.476  1.00  0.00    -0.171 NA
HETATM   10  N   UNL     1      48.325 -29.976  -0.621  1.00  0.00    -0.245 N 
HETATM   11  C   UNL     1      48.792 -29.205  -1.664  1.00  0.00     0.121 A 
HETATM   12  C   UNL     1      47.706 -28.583  -2.229  1.00  0.00     0.050 A 
BRANCH  10  13
HETATM   13  C   UNL     1      49.069 -30.835   0.236  1.00  0.00     0.058 A 
HETATM   14  C   UNL     1      48.506 -32.052   0.653  1.00  0.00     0.031 A 
HETATM   15  C   UNL     1      49.225 -32.915   1.482  1.00  0.00     0.002 A 
HETATM   16  C   UNL     1      50.507 -32.572   1.902  1.00  0.00     0.000 A 
HETATM   17  C   UNL     1      51.074 -31.365   1.497  1.00  0.00     0.002 A 
HETATM   18  C   UNL     1      50.360 -30.496   0.665  1.00  0.00     0.031 A 
ENDBRANCH  10  13
ENDBRANCH   7   8
ENDBRANCH   1   7
BRANCH   3  19
HETATM   19  C   UNL     1      42.159 -29.671   2.023  1.00  0.00     0.144 C 
BRANCH  19  20
HETATM   20  C   UNL     1      42.918 -30.530   3.042  1.00  0.00     0.142 C 
BRANCH  20  21
HETATM   21  N   UNL     1      44.248 -30.010   3.335  1.00  0.00    -0.355 N 
HETATM   22  C   UNL     1      45.380 -30.707   2.973  1.00  0.00     0.254 C 
HETATM   23  O   UNL     1      45.337 -31.797   2.405  1.00  0.00    -0.268 OA
HETATM   24  H   UNL     1      44.306 -29.054   3.655  1.00  0.00     0.162 HD
BRANCH  22  25
HETATM   25  C   UNL     1      46.709 -30.094   3.263  1.00  0.00     0.065 A 
HETATM   26  C   UNL     1      47.014 -28.830   2.732  1.00  0.00     0.081 A 
HETATM   27  C   UNL     1      48.245 -28.226   2.985  1.00  0.00     0.037 A 
HETATM   28  C   UNL     1      49.196 -28.886   3.759  1.00  0.00     0.003 A 
HETATM   29  C   UNL     1      48.918 -30.151   4.275  1.00  0.00     0.001 A 
HETATM   30  C   UNL     1      47.682 -30.757   4.028  1.00  0.00     0.020 A 
BRANCH  26  31
HETATM   31  O   UNL     1      46.149 -28.115   1.945  1.00  0.00    -0.360 OA
HETATM   32  H   UNL     1      45.951 -27.268   2.408  1.00  0.00     0.217 HD
ENDBRANCH  26  31
ENDBRANCH  22  25
ENDBRANCH  20  21
ENDBRANCH  19  20
ENDBRANCH   3  19
TORSDOF 8
ENDMDL
MODEL 5
REMARK VINA RESULT:      -7.8      2.239     10.349
REMARK  8 active torsions:
REMARK  status: ('A' for Active; 'I' for Inactive)
REMARK    1  A    between atoms: C_4  and  N_5 
REMARK    2  A    between atoms: C_7  and  C_8 
REMARK    3  A    between atoms: C_8  and  N_9 
REMARK       I    between atoms: N_9  and  C_10 
REMARK       I    between atoms: C_10  and  N_11 
REMARK    4  A    between atoms: N_11  and  C_12 
REMARK    5  A    between atoms: C_12  and  C_13 
REMARK    6  A    between atoms: C_13  and  N_14 
REMARK       I    between atoms: N_14  and  C_15 
REMARK    7  A    between atoms: C_15  and  C_16 
REMARK    8  A    between atoms: C_17  and  O_18 
ROOT
HETATM    1  N   UNL     1      43.045 -10.846   6.792  1.00  0.00    -0.337 N 
HETATM    2  C   UNL     1      42.950 -10.883   5.434  1.00  0.00     0.316 C 
HETATM    3  N   UNL     1      43.467 -12.039   4.918  1.00  0.00    -0.342 N 
HETATM    4  O   UNL     1      42.464  -9.986   4.759  1.00  0.00    -0.248 OA
HETATM    5  H   UNL     1      43.156 -11.714   7.299  1.00  0.00     0.164 HD
HETATM    6  H   UNL     1      44.140 -12.529   5.489  1.00  0.00     0.164 HD
ENDROOT
BRANCH   1   7
HETATM    7  C   UNL     1      42.404  -9.785   7.535  1.00  0.00     0.185 C 
BRANCH   7   8
HETATM    8  C   UNL     1      42.998  -9.681   8.908  1.00  0.00     0.074 A 
HETATM    9  N   UNL     1      42.313  -9.166   9.941  1.00  0.00    -0.171 NA
HETATM   10  N   UNL     1      43.155  -9.255  11.007  1.00  0.00    -0.245 N 
HETATM   11  C   UNL     1      44.375  -9.775  10.631  1.00  0.00     0.121 A 
HETATM   12  C   UNL     1      44.300 -10.064   9.291  1.00  0.00     0.050 A 
BRANCH  10  13
HETATM   13  C   UNL     1      42.738  -8.848  12.306  1.00  0.00     0.058 A 
HETATM   14  C   UNL     1      43.409  -7.796  12.948  1.00  0.00     0.031 A 
HETATM   15  C   UNL     1      43.007  -7.372  14.216  1.00  0.00     0.002 A 
HETATM   16  C   UNL     1      41.936  -7.994  14.853  1.00  0.00     0.000 A 
HETATM   17  C   UNL     1      41.266  -9.042  14.225  1.00  0.00     0.002 A 
HETATM   18  C   UNL     1      41.662  -9.471  12.954  1.00  0.00     0.031 A 
ENDBRANCH  10  13
ENDBRANCH   7   8
ENDBRANCH   1   7
BRANCH   3  19
HETATM   19  C   UNL     1      43.548 -12.244   3.480  1.00  0.00     0.144 C 
BRANCH  19  20
HETATM   20  C   UNL     1      42.397 -13.107   2.949  1.00  0.00     0.142 C 
BRANCH  20  21
HETATM   21  N   UNL     1      42.780 -14.502   2.763  1.00  0.00    -0.355 N 
HETATM   22  C   UNL     1      42.816 -15.377   3.827  1.00  0.00     0.254 C 
HETATM   23  O   UNL     1      42.544 -15.037   4.977  1.00  0.00    -0.268 OA
HETATM   24  H   UNL     1      42.853 -14.835   1.813  1.00  0.00     0.162 HD
BRANCH  22  25
HETATM   25  C   UNL     1      43.173 -16.800   3.558  1.00  0.00     0.065 A 
HETATM   26  C   UNL     1      44.024 -17.476   4.450  1.00  0.00     0.081 A 
HETATM   27  C   UNL     1      44.376 -18.806   4.231  1.00  0.00     0.037 A 
HETATM   28  C   UNL     1      43.897 -19.477   3.109  1.00  0.00     0.003 A 
HETATM   29  C   UNL     1      43.069 -18.815   2.204  1.00  0.00     0.001 A 
HETATM   30  C   UNL     1      42.709 -17.481   2.422  1.00  0.00     0.020 A 
BRANCH  26  31
HETATM   31  O   UNL     1      44.559 -16.892   5.569  1.00  0.00    -0.360 OA
HETATM   32  H   UNL     1      45.072 -16.102   5.279  1.00  0.00     0.217 HD
ENDBRANCH  26  31
ENDBRANCH  22  25
ENDBRANCH  20  21
ENDBRANCH  19  20
ENDBRANCH   3  19
TORSDOF 8
ENDMDL
MODEL 6
REMARK VINA RESULT:      -7.8      1.246      2.173
REMARK  8 active torsions:
REMARK  status: ('A' for Active; 'I' for Inactive)
REMARK    1  A    between atoms: C_4  and  N_5 
REMARK    2  A    between atoms: C_7  and  C_8 
REMARK    3  A    between atoms: C_8  and  N_9 
REMARK       I    between atoms: N_9  and  C_10 
REMARK       I    between atoms: C_10  and  N_11 
REMARK    4  A    between atoms: N_11  and  C_12 
REMARK    5  A    between atoms: C_12  and  C_13 
REMARK    6  A    between atoms: C_13  and  N_14 
REMARK       I    between atoms: N_14  and  C_15 
REMARK    7  A    between atoms: C_15  and  C_16 
REMARK    8  A    between atoms: C_17  and  O_18 
ROOT
HETATM    1  N   UNL     1      43.109 -12.694   4.324  1.00  0.00    -0.337 N 
HETATM    2  C   UNL     1      43.356 -12.644   5.662  1.00  0.00     0.316 C 
HETATM    3  N   UNL     1      44.299 -11.705   5.973  1.00  0.00    -0.342 N 
HETATM    4  O   UNL     1      42.802 -13.360   6.485  1.00  0.00    -0.248 OA
HETATM    5  H   UNL     1      43.348 -11.895   3.752  1.00  0.00     0.164 HD
HETATM    6  H   UNL     1      44.930 -11.434   5.233  1.00  0.00     0.164 HD
ENDROOT
BRANCH   1   7
HETATM    7  C   UNL     1      42.026 -13.504   3.815  1.00  0.00     0.185 C 
BRANCH   7   8
HETATM    8  C   UNL     1      42.566 -14.720   3.125  1.00  0.00     0.074 A 
HETATM    9  N   UNL     1      42.733 -15.887   3.769  1.00  0.00    -0.171 NA
HETATM   10  N   UNL     1      43.213 -16.747   2.829  1.00  0.00    -0.245 N 
HETATM   11  C   UNL     1      43.394 -16.108   1.621  1.00  0.00     0.121 A 
HETATM   12  C   UNL     1      42.980 -14.809   1.780  1.00  0.00     0.050 A 
BRANCH  10  13
HETATM   13  C   UNL     1      43.459 -18.113   3.144  1.00  0.00     0.058 A 
HETATM   14  C   UNL     1      43.226 -19.099   2.172  1.00  0.00     0.031 A 
HETATM   15  C   UNL     1      43.475 -20.443   2.457  1.00  0.00     0.002 A 
HETATM   16  C   UNL     1      43.954 -20.814   3.711  1.00  0.00     0.000 A 
HETATM   17  C   UNL     1      44.185 -19.843   4.684  1.00  0.00     0.002 A 
HETATM   18  C   UNL     1      43.941 -18.494   4.405  1.00  0.00     0.031 A 
ENDBRANCH  10  13
ENDBRANCH   7   8
ENDBRANCH   1   7
BRANCH   3  19
HETATM   19  C   UNL     1      44.776 -11.548   7.337  1.00  0.00     0.144 C 
BRANCH  19  20
HETATM   20  C   UNL     1      44.934 -10.075   7.735  1.00  0.00     0.142 C 
BRANCH  20  21
HETATM   21  N   UNL     1      44.030  -9.685   8.811  1.00  0.00    -0.355 N 
HETATM   22  C   UNL     1      44.464  -9.620  10.116  1.00  0.00     0.254 C 
HETATM   23  O   UNL     1      45.616  -9.896  10.448  1.00  0.00    -0.268 OA
HETATM   24  H   UNL     1      43.133  -9.306   8.542  1.00  0.00     0.162 HD
BRANCH  22  25
HETATM   25  C   UNL     1      43.499  -9.170  11.160  1.00  0.00     0.065 A 
HETATM   26  C   UNL     1      42.951  -7.878  11.080  1.00  0.00     0.081 A 
HETATM   27  C   UNL     1      42.044  -7.425  12.036  1.00  0.00     0.037 A 
HETATM   28  C   UNL     1      41.684  -8.252  13.098  1.00  0.00     0.003 A 
HETATM   29  C   UNL     1      42.234  -9.528  13.204  1.00  0.00     0.001 A 
HETATM   30  C   UNL     1      43.141  -9.987  12.244  1.00  0.00     0.020 A 
BRANCH  26  31
HETATM   31  O   UNL     1      43.262  -6.989  10.083  1.00  0.00    -0.360 OA
HETATM   32  H   UNL     1      44.229  -6.811  10.131  1.00  0.00     0.217 HD
ENDBRANCH  26  31
ENDBRANCH  22  25
ENDBRANCH  20  21
ENDBRANCH  19  20
ENDBRANCH   3  19
TORSDOF 8
ENDMDL
MODEL 7
REMARK VINA RESULT:      -7.7     17.877     19.321
REMARK  8 active torsions:
REMARK  status: ('A' for Active; 'I' for Inactive)
REMARK    1  A    between atoms: C_4  and  N_5 
REMARK    2  A    between atoms: C_7  and  C_8 
REMARK    3  A    between atoms: C_8  and  N_9 
REMARK       I    between atoms: N_9  and  C_10 
REMARK       I    between atoms: C_10  and  N_11 
REMARK    4  A    between atoms: N_11  and  C_12 
REMARK    5  A    between atoms: C_12  and  C_13 
REMARK    6  A    between atoms: C_13  and  N_14 
REMARK       I    between atoms: N_14  and  C_15 
REMARK    7  A    between atoms: C_15  and  C_16 
REMARK    8  A    between atoms: C_17  and  O_18 
ROOT
HETATM    1  N   UNL     1      45.129 -30.363   3.736  1.00  0.00    -0.337 N 
HETATM    2  C   UNL     1      46.347 -30.971   3.751  1.00  0.00     0.316 C 
HETATM    3  N   UNL     1      47.246 -30.295   4.529  1.00  0.00    -0.342 N 
HETATM    4  O   UNL     1      46.606 -31.997   3.136  1.00  0.00    -0.248 OA
HETATM    5  H   UNL     1      44.890 -29.727   4.485  1.00  0.00     0.164 HD
HETATM    6  H   UNL     1      47.058 -29.317   4.692  1.00  0.00     0.164 HD
ENDROOT
BRANCH   1   7
HETATM    7  C   UNL     1      44.001 -31.013   3.109  1.00  0.00     0.185 C 
BRANCH   7   8
HETATM    8  C   UNL     1      43.747 -30.421   1.755  1.00  0.00     0.074 A 
HETATM    9  N   UNL     1      44.398 -30.847   0.661  1.00  0.00    -0.171 NA
HETATM   10  N   UNL     1      43.897 -30.104  -0.364  1.00  0.00    -0.245 N 
HETATM   11  C   UNL     1      42.978 -29.186   0.096  1.00  0.00     0.121 A 
HETATM   12  C   UNL     1      42.857 -29.372   1.451  1.00  0.00     0.050 A 
BRANCH  10  13
HETATM   13  C   UNL     1      44.322 -30.325  -1.704  1.00  0.00     0.058 A 
HETATM   14  C   UNL     1      45.266 -31.328  -1.974  1.00  0.00     0.031 A 
HETATM   15  C   UNL     1      45.685 -31.569  -3.284  1.00  0.00     0.002 A 
HETATM   16  C   UNL     1      45.168 -30.812  -4.333  1.00  0.00     0.000 A 
HETATM   17  C   UNL     1      44.232 -29.812  -4.075  1.00  0.00     0.002 A 
HETATM   18  C   UNL     1      43.807 -29.566  -2.765  1.00  0.00     0.031 A 
ENDBRANCH  10  13
ENDBRANCH   7   8
ENDBRANCH   1   7
BRANCH   3  19
HETATM   19  C   UNL     1      48.633 -30.723   4.612  1.00  0.00     0.144 C 
BRANCH  19  20
HETATM   20  C   UNL     1      49.586 -29.754   3.903  1.00  0.00     0.142 C 
BRANCH  20  21
HETATM   21  N   UNL     1      48.994 -29.154   2.713  1.00  0.00    -0.355 N 
HETATM   22  C   UNL     1      48.879 -29.868   1.540  1.00  0.00     0.254 C 
HETATM   23  O   UNL     1      49.273 -31.027   1.425  1.00  0.00    -0.268 OA
HETATM   24  H   UNL     1      48.527 -28.267   2.830  1.00  0.00     0.162 HD
BRANCH  22  25
HETATM   25  C   UNL     1      48.222 -29.208   0.375  1.00  0.00     0.065 A 
HETATM   26  C   UNL     1      47.107 -28.380   0.591  1.00  0.00     0.081 A 
HETATM   27  C   UNL     1      46.471 -27.746  -0.475  1.00  0.00     0.037 A 
HETATM   28  C   UNL     1      46.929 -27.943  -1.775  1.00  0.00     0.003 A 
HETATM   29  C   UNL     1      48.020 -28.779  -2.009  1.00  0.00     0.001 A 
HETATM   30  C   UNL     1      48.664 -29.413  -0.942  1.00  0.00     0.020 A 
BRANCH  26  31
HETATM   31  O   UNL     1      46.575 -28.143   1.832  1.00  0.00    -0.360 OA
HETATM   32  H   UNL     1      47.322 -27.982   2.453  1.00  0.00     0.217 HD
ENDBRANCH  26  31
ENDBRANCH  22  25
ENDBRANCH  20  21
ENDBRANCH  19  20
ENDBRANCH   3  19
TORSDOF 8
ENDMDL
MODEL 8
REMARK VINA RESULT:      -7.6      2.607      3.372
REMARK  8 active torsions:
REMARK  status: ('A' for Active; 'I' for Inactive)
REMARK    1  A    between atoms: C_4  and  N_5 
REMARK    2  A    between atoms: C_7  and  C_8 
REMARK    3  A    between atoms: C_8  and  N_9 
REMARK       I    between atoms: N_9  and  C_10 
REMARK       I    between atoms: C_10  and  N_11 
REMARK    4  A    between atoms: N_11  and  C_12 
REMARK    5  A    between atoms: C_12  and  C_13 
REMARK    6  A    between atoms: C_13  and  N_14 
REMARK       I    between atoms: N_14  and  C_15 
REMARK    7  A    between atoms: C_15  and  C_16 
REMARK    8  A    between atoms: C_17  and  O_18 
ROOT
HETATM    1  N   UNL     1      42.288 -12.784   6.020  1.00  0.00    -0.337 N 
HETATM    2  C   UNL     1      41.072 -12.236   5.749  1.00  0.00     0.316 C 
HETATM    3  N   UNL     1      40.569 -11.553   6.822  1.00  0.00    -0.342 N 
HETATM    4  O   UNL     1      40.496 -12.348   4.675  1.00  0.00    -0.248 OA
HETATM    5  H   UNL     1      42.837 -12.406   6.780  1.00  0.00     0.164 HD
HETATM    6  H   UNL     1      40.926 -11.810   7.730  1.00  0.00     0.164 HD
ENDROOT
BRANCH   1   7
HETATM    7  C   UNL     1      43.058 -13.401   4.963  1.00  0.00     0.185 C 
BRANCH   7   8
HETATM    8  C   UNL     1      43.357 -14.829   5.305  1.00  0.00     0.074 A 
HETATM    9  N   UNL     1      43.257 -15.813   4.397  1.00  0.00    -0.171 NA
HETATM   10  N   UNL     1      43.622 -16.946   5.058  1.00  0.00    -0.245 N 
HETATM   11  C   UNL     1      43.898 -16.679   6.382  1.00  0.00     0.121 A 
HETATM   12  C   UNL     1      43.744 -15.327   6.567  1.00  0.00     0.050 A 
BRANCH  10  13
HETATM   13  C   UNL     1      43.689 -18.198   4.384  1.00  0.00     0.058 A 
HETATM   14  C   UNL     1      44.032 -19.353   5.104  1.00  0.00     0.031 A 
HETATM   15  C   UNL     1      44.089 -20.593   4.463  1.00  0.00     0.002 A 
HETATM   16  C   UNL     1      43.807 -20.689   3.103  1.00  0.00     0.000 A 
HETATM   17  C   UNL     1      43.469 -19.548   2.379  1.00  0.00     0.002 A 
HETATM   18  C   UNL     1      43.407 -18.303   3.014  1.00  0.00     0.031 A 
ENDBRANCH  10  13
ENDBRANCH   7   8
ENDBRANCH   1   7
BRANCH   3  19
HETATM   19  C   UNL     1      39.240 -10.965   6.777  1.00  0.00     0.144 C 
BRANCH  19  20
HETATM   20  C   UNL     1      39.196  -9.572   7.416  1.00  0.00     0.142 C 
BRANCH  20  21
HETATM   21  N   UNL     1      40.364  -9.297   8.244  1.00  0.00    -0.355 N 
HETATM   22  C   UNL     1      40.283  -9.325   9.619  1.00  0.00     0.254 C 
HETATM   23  O   UNL     1      39.237  -9.564  10.219  1.00  0.00    -0.268 OA
HETATM   24  H   UNL     1      41.258  -9.254   7.776  1.00  0.00     0.162 HD
BRANCH  22  25
HETATM   25  C   UNL     1      41.527  -9.079  10.405  1.00  0.00     0.065 A 
HETATM   26  C   UNL     1      42.736  -9.654   9.976  1.00  0.00     0.081 A 
HETATM   27  C   UNL     1      43.918  -9.443  10.684  1.00  0.00     0.037 A 
HETATM   28  C   UNL     1      43.906  -8.668  11.841  1.00  0.00     0.003 A 
HETATM   29  C   UNL     1      42.711  -8.109  12.292  1.00  0.00     0.001 A 
HETATM   30  C   UNL     1      41.524  -8.314  11.581  1.00  0.00     0.020 A 
BRANCH  26  31
HETATM   31  O   UNL     1      42.840 -10.445   8.862  1.00  0.00    -0.360 OA
HETATM   32  H   UNL     1      43.390  -9.964   8.202  1.00  0.00     0.217 HD
ENDBRANCH  26  31
ENDBRANCH  22  25
ENDBRANCH  20  21
ENDBRANCH  19  20
ENDBRANCH   3  19
TORSDOF 8
ENDMDL
MODEL 9
REMARK VINA RESULT:      -7.5     17.817     19.386
REMARK  8 active torsions:
REMARK  status: ('A' for Active; 'I' for Inactive)
REMARK    1  A    between atoms: C_4  and  N_5 
REMARK    2  A    between atoms: C_7  and  C_8 
REMARK    3  A    between atoms: C_8  and  N_9 
REMARK       I    between atoms: N_9  and  C_10 
REMARK       I    between atoms: C_10  and  N_11 
REMARK    4  A    between atoms: N_11  and  C_12 
REMARK    5  A    between atoms: C_12  and  C_13 
REMARK    6  A    between atoms: C_13  and  N_14 
REMARK       I    between atoms: N_14  and  C_15 
REMARK    7  A    between atoms: C_15  and  C_16 
REMARK    8  A    between atoms: C_17  and  O_18 
ROOT
HETATM    1  N   UNL     1      48.138 -28.650   0.264  1.00  0.00    -0.337 N 
HETATM    2  C   UNL     1      47.853 -28.436   1.578  1.00  0.00     0.316 C 
HETATM    3  N   UNL     1      48.678 -29.152   2.402  1.00  0.00    -0.342 N 
HETATM    4  O   UNL     1      46.961 -27.697   1.973  1.00  0.00    -0.248 OA
HETATM    5  H   UNL     1      49.051 -29.003   0.012  1.00  0.00     0.164 HD
HETATM    6  H   UNL     1      49.116 -29.969   2.005  1.00  0.00     0.164 HD
ENDROOT
BRANCH   1   7
HETATM    7  C   UNL     1      47.490 -27.858  -0.756  1.00  0.00     0.185 C 
BRANCH   7   8
HETATM    8  C   UNL     1      46.430 -28.665  -1.445  1.00  0.00     0.074 A 
HETATM    9  N   UNL     1      46.558 -29.065  -2.720  1.00  0.00    -0.171 NA
HETATM   10  N   UNL     1      45.430 -29.779  -2.985  1.00  0.00    -0.245 N 
HETATM   11  C   UNL     1      44.581 -29.781  -1.899  1.00  0.00     0.121 A 
HETATM   12  C   UNL     1      45.201 -29.081  -0.894  1.00  0.00     0.050 A 
BRANCH  10  13
HETATM   13  C   UNL     1      45.243 -30.412  -4.246  1.00  0.00     0.058 A 
HETATM   14  C   UNL     1      46.189 -31.347  -4.696  1.00  0.00     0.031 A 
HETATM   15  C   UNL     1      46.016 -31.990  -5.924  1.00  0.00     0.002 A 
HETATM   16  C   UNL     1      44.903 -31.704  -6.711  1.00  0.00     0.000 A 
HETATM   17  C   UNL     1      43.961 -30.775  -6.274  1.00  0.00     0.002 A 
HETATM   18  C   UNL     1      44.126 -30.129  -5.044  1.00  0.00     0.031 A 
ENDBRANCH  10  13
ENDBRANCH   7   8
ENDBRANCH   1   7
BRANCH   3  19
HETATM   19  C   UNL     1      48.488 -29.139   3.844  1.00  0.00     0.144 C 
BRANCH  19  20
HETATM   20  C   UNL     1      47.659 -30.333   4.334  1.00  0.00     0.142 C 
BRANCH  20  21
HETATM   21  N   UNL     1      46.271 -30.272   3.892  1.00  0.00    -0.355 N 
HETATM   22  C   UNL     1      45.850 -30.955   2.772  1.00  0.00     0.254 C 
HETATM   23  O   UNL     1      46.610 -31.634   2.083  1.00  0.00    -0.268 OA
HETATM   24  H   UNL     1      45.606 -29.853   4.526  1.00  0.00     0.162 HD
BRANCH  22  25
HETATM   25  C   UNL     1      44.407 -30.885   2.403  1.00  0.00     0.065 A 
HETATM   26  C   UNL     1      43.732 -29.656   2.495  1.00  0.00     0.081 A 
HETATM   27  C   UNL     1      42.384 -29.553   2.155  1.00  0.00     0.037 A 
HETATM   28  C   UNL     1      41.686 -30.682   1.735  1.00  0.00     0.003 A 
HETATM   29  C   UNL     1      42.334 -31.914   1.659  1.00  0.00     0.001 A 
HETATM   30  C   UNL     1      43.688 -32.020   1.994  1.00  0.00     0.020 A 
BRANCH  26  31
HETATM   31  O   UNL     1      44.332 -28.497   2.916  1.00  0.00    -0.360 OA
HETATM   32  H   UNL     1      43.741 -28.079   3.583  1.00  0.00     0.217 HD
ENDBRANCH  26  31
ENDBRANCH  22  25
ENDBRANCH  20  21
ENDBRANCH  19  20
ENDBRANCH   3  19
TORSDOF 8
ENDMDL
MODEL 10
REMARK VINA RESULT:      -7.4      2.166      2.527
REMARK  8 active torsions:
REMARK  status: ('A' for Active; 'I' for Inactive)
REMARK    1  A    between atoms: C_4  and  N_5 
REMARK    2  A    between atoms: C_7  and  C_8 
REMARK    3  A    between atoms: C_8  and  N_9 
REMARK       I    between atoms: N_9  and  C_10 
REMARK       I    between atoms: C_10  and  N_11 
REMARK    4  A    between atoms: N_11  and  C_12 
REMARK    5  A    between atoms: C_12  and  C_13 
REMARK    6  A    between atoms: C_13  and  N_14 
REMARK       I    between atoms: N_14  and  C_15 
REMARK    7  A    between atoms: C_15  and  C_16 
REMARK    8  A    between atoms: C_17  and  O_18 
ROOT
HETATM    1  N   UNL     1      43.555 -12.596   4.511  1.00  0.00    -0.337 N 
HETATM    2  C   UNL     1      43.740 -12.415   5.847  1.00  0.00     0.316 C 
HETATM    3  N   UNL     1      44.791 -11.581   6.108  1.00  0.00    -0.342 N 
HETATM    4  O   UNL     1      43.050 -12.941   6.710  1.00  0.00    -0.248 OA
HETATM    5  H   UNL     1      43.932 -11.914   3.867  1.00  0.00     0.164 HD
HETATM    6  H   UNL     1      45.490 -11.492   5.385  1.00  0.00     0.164 HD
ENDROOT
BRANCH   1   7
HETATM    7  C   UNL     1      42.393 -13.308   4.029  1.00  0.00     0.185 C 
BRANCH   7   8
HETATM    8  C   UNL     1      42.810 -14.537   3.279  1.00  0.00     0.074 A 
HETATM    9  N   UNL     1      42.959 -15.724   3.888  1.00  0.00    -0.171 NA
HETATM   10  N   UNL     1      43.318 -16.589   2.900  1.00  0.00    -0.245 N 
HETATM   11  C   UNL     1      43.443 -15.936   1.693  1.00  0.00     0.121 A 
HETATM   12  C   UNL     1      43.116 -14.619   1.905  1.00  0.00     0.050 A 
BRANCH  10  13
HETATM   13  C   UNL     1      43.510 -17.973   3.172  1.00  0.00     0.058 A 
HETATM   14  C   UNL     1      43.219 -18.919   2.176  1.00  0.00     0.031 A 
HETATM   15  C   UNL     1      43.413 -20.281   2.418  1.00  0.00     0.002 A 
HETATM   16  C   UNL     1      43.896 -20.708   3.653  1.00  0.00     0.000 A 
HETATM   17  C   UNL     1      44.184 -19.777   4.649  1.00  0.00     0.002 A 
HETATM   18  C   UNL     1      43.994 -18.411   4.413  1.00  0.00     0.031 A 
ENDBRANCH  10  13
ENDBRANCH   7   8
ENDBRANCH   1   7
BRANCH   3  19
HETATM   19  C   UNL     1      45.219 -11.322   7.474  1.00  0.00     0.144 C 
BRANCH  19  20
HETATM   20  C   UNL     1      44.940  -9.879   7.910  1.00  0.00     0.142 C 
BRANCH  20  21
HETATM   21  N   UNL     1      43.623  -9.721   8.518  1.00  0.00    -0.355 N 
HETATM   22  C   UNL     1      42.949  -8.521   8.451  1.00  0.00     0.254 C 
HETATM   23  O   UNL     1      43.414  -7.527   7.898  1.00  0.00    -0.268 OA
HETATM   24  H   UNL     1      43.162 -10.560   8.836  1.00  0.00     0.162 HD
BRANCH  22  25
HETATM   25  C   UNL     1      41.587  -8.443   9.055  1.00  0.00     0.065 A 
HETATM   26  C   UNL     1      40.591  -9.335   8.624  1.00  0.00     0.081 A 
HETATM   27  C   UNL     1      39.309  -9.292   9.168  1.00  0.00     0.037 A 
HETATM   28  C   UNL     1      38.998  -8.345  10.141  1.00  0.00     0.003 A 
HETATM   29  C   UNL     1      39.969  -7.439  10.565  1.00  0.00     0.001 A 
HETATM   30  C   UNL     1      41.258  -7.482  10.024  1.00  0.00     0.020 A 
BRANCH  26  31
HETATM   31  O   UNL     1      40.799 -10.287   7.659  1.00  0.00    -0.360 OA
HETATM   32  H   UNL     1      41.615 -10.783   7.897  1.00  0.00     0.217 HD
ENDBRANCH  26  31
ENDBRANCH  22  25
ENDBRANCH  20  21
ENDBRANCH  19  20
ENDBRANCH   3  19
TORSDOF 8
ENDMDL
