MODEL 1
REMARK VINA RESULT:      -8.8      0.000      0.000
REMARK  10 active torsions:
REMARK  status: ('A' for Active; 'I' for Inactive)
REMARK    1  A    between atoms: C_2  and  C_3 
REMARK    2  A    between atoms: C_3  and  O_4 
REMARK    3  A    between atoms: O_4  and  C_5 
REMARK    4  A    between atoms: C_7  and  C_8 
REMARK       I    between atoms: C_8  and  N_9 
REMARK    5  A    between atoms: N_9  and  C_10 
REMARK    6  A    between atoms: C_10  and  N_11 
REMARK    7  A    between atoms: N_11  and  C_12 
REMARK    8  A    between atoms: C_15  and  N_16 
REMARK    9  A    between atoms: N_19  and  C_21 
REMARK   10  A    between atoms: C_21  and  C_22 
ROOT
HETATM    1  C   UNL     1      41.780 -12.539   2.322  1.00  0.00     0.034 A 
HETATM    2  C   UNL     1      40.888 -11.944   3.214  1.00  0.00     0.032 A 
HETATM    3  C   UNL     1      41.319 -11.533   4.482  1.00  0.00     0.031 A 
HETATM    4  C   UNL     1      42.639 -11.729   4.916  1.00  0.00     0.030 A 
HETATM    5  C   UNL     1      43.506 -12.372   4.020  1.00  0.00     0.031 A 
HETATM    6  C   UNL     1      43.084 -12.777   2.743  1.00  0.00     0.032 A 
ENDROOT
BRANCH   1   7
HETATM    7  N   UNL     1      41.279 -12.922   1.063  1.00  0.00    -0.333 N 
HETATM    8  H   UNL     1      40.954 -12.154   0.485  1.00  0.00     0.168 HD
BRANCH   7   9
HETATM    9  C   UNL     1      40.898 -14.136   0.611  1.00  0.00     0.179 C 
HETATM   10  S   UNL     1      39.862 -14.221  -0.702  1.00  0.00    -0.040 SA
BRANCH   9  11
HETATM   11  N   UNL     1      41.381 -15.308   1.113  1.00  0.00    -0.299 N 
HETATM   12  C   UNL     1      41.073 -15.928   2.324  1.00  0.00     0.257 C 
HETATM   13  O   UNL     1      40.020 -15.870   2.943  1.00  0.00    -0.267 OA
HETATM   14  H   UNL     1      42.311 -15.496   0.760  1.00  0.00     0.171 HD
BRANCH  12  15
HETATM   15  C   UNL     1      42.141 -16.820   2.843  1.00  0.00     0.035 A 
HETATM   16  C   UNL     1      42.735 -16.590   4.091  1.00  0.00     0.053 A 
HETATM   17  C   UNL     1      43.723 -17.462   4.548  1.00  0.00     0.069 A 
HETATM   18  C   UNL     1      44.141 -18.531   3.754  1.00  0.00     0.037 A 
HETATM   19  C   UNL     1      43.531 -18.775   2.524  1.00  0.00     0.004 A 
HETATM   20  C   UNL     1      42.521 -17.926   2.071  1.00  0.00     0.017 A 
BRANCH  17  21
HETATM   21  O   UNL     1      44.369 -17.312   5.743  1.00  0.00    -0.351 OA
BRANCH  21  22
HETATM   22  C   UNL     1      43.543 -17.563   6.887  1.00  0.00     0.175 C 
BRANCH  22  23
HETATM   23  C   UNL     1      43.563 -16.309   7.756  1.00  0.00     0.022 C 
HETATM   24  C   UNL     1      42.382 -15.401   7.467  1.00  0.00     0.007 C 
ENDBRANCH  22  23
ENDBRANCH  21  22
ENDBRANCH  17  21
ENDBRANCH  12  15
ENDBRANCH   9  11
ENDBRANCH   7   9
ENDBRANCH   1   7
BRANCH   4  25
HETATM   25  N   UNL     1      43.049 -11.232   6.157  1.00  0.00    -0.378 N 
HETATM   26  C   UNL     1      42.044 -10.473   6.926  1.00  0.00     0.150 C 
HETATM   27  C   UNL     1      42.750  -9.549   7.942  1.00  0.00     0.255 C 
HETATM   28  N   UNL     1      43.707 -10.337   8.832  1.00  0.00    -0.064 N 
HETATM   29  H   UNL     1      43.140 -11.003   9.375  1.00  0.00     0.280 HD
HETATM   30  C   UNL     1      44.696 -11.148   7.996  1.00  0.00     0.255 C 
HETATM   31  C   UNL     1      43.961 -12.044   6.979  1.00  0.00     0.150 C 
BRANCH  28  32
HETATM   32  C   UNL     1      44.395  -9.437   9.831  1.00  0.00     0.276 C 
BRANCH  32  33
HETATM   33  C   UNL     1      43.562  -9.116  11.036  1.00  0.00     0.006 A 
HETATM   34  C   UNL     1      43.254 -10.125  11.953  1.00  0.00     0.124 A 
HETATM   35  F   UNL     1      43.749 -11.356  11.752  1.00  0.00    -0.206 F 
HETATM   36  C   UNL     1      42.482  -9.875  13.081  1.00  0.00     0.043 A 
HETATM   37  C   UNL     1      42.003  -8.586  13.307  1.00  0.00     0.003 A 
HETATM   38  C   UNL     1      42.298  -7.564  12.404  1.00  0.00     0.001 A 
HETATM   39  C   UNL     1      43.072  -7.825  11.270  1.00  0.00     0.012 A 
ENDBRANCH  32  33
ENDBRANCH  28  32
ENDBRANCH   4  25
TORSDOF 10
ENDMDL
MODEL 2
REMARK VINA RESULT:      -8.5      3.983      9.055
REMARK  10 active torsions:
REMARK  status: ('A' for Active; 'I' for Inactive)
REMARK    1  A    between atoms: C_2  and  C_3 
REMARK    2  A    between atoms: C_3  and  O_4 
REMARK    3  A    between atoms: O_4  and  C_5 
REMARK    4  A    between atoms: C_7  and  C_8 
REMARK       I    between atoms: C_8  and  N_9 
REMARK    5  A    between atoms: N_9  and  C_10 
REMARK    6  A    between atoms: C_10  and  N_11 
REMARK    7  A    between atoms: N_11  and  C_12 
REMARK    8  A    between atoms: C_15  and  N_16 
REMARK    9  A    between atoms: N_19  and  C_21 
REMARK   10  A    between atoms: C_21  and  C_22 
ROOT
HETATM    1  C   UNL     1      40.043  -9.869   5.240  1.00  0.00     0.034 A 
HETATM    2  C   UNL     1      39.390 -11.063   5.543  1.00  0.00     0.032 A 
HETATM    3  C   UNL     1      39.890 -12.286   5.074  1.00  0.00     0.031 A 
HETATM    4  C   UNL     1      41.033 -12.357   4.264  1.00  0.00     0.030 A 
HETATM    5  C   UNL     1      41.645 -11.139   3.933  1.00  0.00     0.031 A 
HETATM    6  C   UNL     1      41.157  -9.911   4.408  1.00  0.00     0.032 A 
ENDROOT
BRANCH   1   7
HETATM    7  N   UNL     1      39.488  -8.680   5.749  1.00  0.00    -0.333 N 
HETATM    8  H   UNL     1      38.942  -8.146   5.081  1.00  0.00     0.168 HD
BRANCH   7   9
HETATM    9  C   UNL     1      39.788  -7.992   6.873  1.00  0.00     0.179 C 
HETATM   10  S   UNL     1      38.740  -6.791   7.388  1.00  0.00    -0.040 SA
BRANCH   9  11
HETATM   11  N   UNL     1      40.860  -8.280   7.664  1.00  0.00    -0.299 N 
HETATM   12  C   UNL     1      42.168  -7.807   7.563  1.00  0.00     0.257 C 
HETATM   13  O   UNL     1      42.536  -6.728   7.120  1.00  0.00    -0.267 OA
HETATM   14  H   UNL     1      40.768  -9.200   8.076  1.00  0.00     0.171 HD
BRANCH  12  15
HETATM   15  C   UNL     1      43.192  -8.708   8.151  1.00  0.00     0.035 A 
HETATM   16  C   UNL     1      43.599  -9.873   7.487  1.00  0.00     0.053 A 
HETATM   17  C   UNL     1      44.575 -10.683   8.067  1.00  0.00     0.069 A 
HETATM   18  C   UNL     1      45.113 -10.356   9.312  1.00  0.00     0.037 A 
HETATM   19  C   UNL     1      44.727  -9.183   9.959  1.00  0.00     0.004 A 
HETATM   20  C   UNL     1      43.773  -8.350   9.374  1.00  0.00     0.017 A 
BRANCH  17  21
HETATM   21  O   UNL     1      45.025 -11.844   7.503  1.00  0.00    -0.351 OA
BRANCH  21  22
HETATM   22  C   UNL     1      44.150 -12.383   6.504  1.00  0.00     0.175 C 
BRANCH  22  23
HETATM   23  C   UNL     1      43.431 -13.582   7.117  1.00  0.00     0.022 C 
HETATM   24  C   UNL     1      44.034 -14.898   6.659  1.00  0.00     0.007 C 
ENDBRANCH  22  23
ENDBRANCH  21  22
ENDBRANCH  17  21
ENDBRANCH  12  15
ENDBRANCH   9  11
ENDBRANCH   7   9
ENDBRANCH   1   7
BRANCH   4  25
HETATM   25  N   UNL     1      41.545 -13.602   3.884  1.00  0.00    -0.378 N 
HETATM   26  C   UNL     1      42.935 -13.618   3.390  1.00  0.00     0.150 C 
HETATM   27  C   UNL     1      43.167 -14.871   2.519  1.00  0.00     0.255 C 
HETATM   28  N   UNL     1      42.790 -16.145   3.271  1.00  0.00    -0.064 N 
HETATM   29  H   UNL     1      43.423 -16.219   4.080  1.00  0.00     0.280 HD
HETATM   30  C   UNL     1      41.362 -16.064   3.810  1.00  0.00     0.255 C 
HETATM   31  C   UNL     1      41.158 -14.793   4.658  1.00  0.00     0.150 C 
BRANCH  28  32
HETATM   32  C   UNL     1      43.021 -17.373   2.423  1.00  0.00     0.276 C 
BRANCH  32  33
HETATM   33  C   UNL     1      43.444 -18.581   3.204  1.00  0.00     0.006 A 
HETATM   34  C   UNL     1      43.516 -19.825   2.569  1.00  0.00     0.124 A 
HETATM   35  F   UNL     1      43.245 -19.899   1.258  1.00  0.00    -0.206 F 
HETATM   36  C   UNL     1      43.899 -20.972   3.253  1.00  0.00     0.043 A 
HETATM   37  C   UNL     1      44.218 -20.883   4.607  1.00  0.00     0.003 A 
HETATM   38  C   UNL     1      44.152 -19.653   5.260  1.00  0.00     0.001 A 
HETATM   39  C   UNL     1      43.763 -18.504   4.566  1.00  0.00     0.012 A 
ENDBRANCH  32  33
ENDBRANCH  28  32
ENDBRANCH   4  25
TORSDOF 10
ENDMDL
MODEL 3
REMARK VINA RESULT:      -8.4      1.817      3.377
REMARK  10 active torsions:
REMARK  status: ('A' for Active; 'I' for Inactive)
REMARK    1  A    between atoms: C_2  and  C_3 
REMARK    2  A    between atoms: C_3  and  O_4 
REMARK    3  A    between atoms: O_4  and  C_5 
REMARK    4  A    between atoms: C_7  and  C_8 
REMARK       I    between atoms: C_8  and  N_9 
REMARK    5  A    between atoms: N_9  and  C_10 
REMARK    6  A    between atoms: C_10  and  N_11 
REMARK    7  A    between atoms: N_11  and  C_12 
REMARK    8  A    between atoms: C_15  and  N_16 
REMARK    9  A    between atoms: N_19  and  C_21 
REMARK   10  A    between atoms: C_21  and  C_22 
ROOT
HETATM    1  C   UNL     1      42.400 -10.670   4.007  1.00  0.00     0.034 A 
HETATM    2  C   UNL     1      43.402 -11.280   4.759  1.00  0.00     0.032 A 
HETATM    3  C   UNL     1      43.501 -11.044   6.137  1.00  0.00     0.031 A 
HETATM    4  C   UNL     1      42.629 -10.170   6.803  1.00  0.00     0.030 A 
HETATM    5  C   UNL     1      41.659  -9.530   6.017  1.00  0.00     0.031 A 
HETATM    6  C   UNL     1      41.547  -9.771   4.638  1.00  0.00     0.032 A 
ENDROOT
BRANCH   1   7
HETATM    7  N   UNL     1      42.356 -10.958   2.629  1.00  0.00    -0.333 N 
HETATM    8  H   UNL     1      42.429 -10.147   2.024  1.00  0.00     0.168 HD
BRANCH   7   9
HETATM    9  C   UNL     1      41.954 -12.076   1.987  1.00  0.00     0.179 C 
HETATM   10  S   UNL     1      41.168 -11.923   0.516  1.00  0.00    -0.040 SA
BRANCH   9  11
HETATM   11  N   UNL     1      42.229 -13.335   2.430  1.00  0.00    -0.299 N 
HETATM   12  C   UNL     1      41.610 -14.051   3.454  1.00  0.00     0.257 C 
HETATM   13  O   UNL     1      40.448 -13.963   3.826  1.00  0.00    -0.267 OA
HETATM   14  H   UNL     1      43.200 -13.570   2.270  1.00  0.00     0.171 HD
BRANCH  12  15
HETATM   15  C   UNL     1      42.467 -15.091   4.079  1.00  0.00     0.035 A 
HETATM   16  C   UNL     1      42.761 -16.287   3.409  1.00  0.00     0.053 A 
HETATM   17  C   UNL     1      43.583 -17.229   4.026  1.00  0.00     0.069 A 
HETATM   18  C   UNL     1      44.078 -17.000   5.311  1.00  0.00     0.037 A 
HETATM   19  C   UNL     1      43.806 -15.799   5.965  1.00  0.00     0.004 A 
HETATM   20  C   UNL     1      43.009 -14.836   5.345  1.00  0.00     0.017 A 
BRANCH  17  21
HETATM   21  O   UNL     1      43.914 -18.428   3.459  1.00  0.00    -0.351 OA
BRANCH  21  22
HETATM   22  C   UNL     1      43.135 -18.760   2.304  1.00  0.00     0.175 C 
BRANCH  22  23
HETATM   23  C   UNL     1      43.244 -20.267   2.089  1.00  0.00     0.022 C 
HETATM   24  C   UNL     1      43.840 -20.969   3.296  1.00  0.00     0.007 C 
ENDBRANCH  22  23
ENDBRANCH  21  22
ENDBRANCH  17  21
ENDBRANCH  12  15
ENDBRANCH   9  11
ENDBRANCH   7   9
ENDBRANCH   1   7
BRANCH   4  25
HETATM   25  N   UNL     1      42.710 -10.023   8.192  1.00  0.00    -0.378 N 
HETATM   26  C   UNL     1      44.055 -10.140   8.787  1.00  0.00     0.150 C 
HETATM   27  C   UNL     1      43.936 -10.512  10.281  1.00  0.00     0.255 C 
HETATM   28  N   UNL     1      43.040  -9.526  11.026  1.00  0.00    -0.064 N 
HETATM   29  H   UNL     1      43.498  -8.605  10.981  1.00  0.00     0.280 HD
HETATM   30  C   UNL     1      41.678  -9.397  10.346  1.00  0.00     0.255 C 
HETATM   31  C   UNL     1      41.832  -9.045   8.854  1.00  0.00     0.150 C 
BRANCH  28  32
HETATM   32  C   UNL     1      42.926  -9.884  12.489  1.00  0.00     0.276 C 
BRANCH  32  33
HETATM   33  C   UNL     1      42.457  -8.756  13.358  1.00  0.00     0.006 A 
HETATM   34  C   UNL     1      41.217  -8.846  13.998  1.00  0.00     0.124 A 
HETATM   35  F   UNL     1      40.492  -9.965  13.852  1.00  0.00    -0.206 F 
HETATM   36  C   UNL     1      40.740  -7.824  14.810  1.00  0.00     0.043 A 
HETATM   37  C   UNL     1      41.515  -6.679  14.990  1.00  0.00     0.003 A 
HETATM   38  C   UNL     1      42.754  -6.569  14.359  1.00  0.00     0.001 A 
HETATM   39  C   UNL     1      43.226  -7.600  13.543  1.00  0.00     0.012 A 
ENDBRANCH  32  33
ENDBRANCH  28  32
ENDBRANCH   4  25
TORSDOF 10
ENDMDL
MODEL 4
REMARK VINA RESULT:      -8.1      4.297      9.456
REMARK  10 active torsions:
REMARK  status: ('A' for Active; 'I' for Inactive)
REMARK    1  A    between atoms: C_2  and  C_3 
REMARK    2  A    between atoms: C_3  and  O_4 
REMARK    3  A    between atoms: O_4  and  C_5 
REMARK    4  A    between atoms: C_7  and  C_8 
REMARK       I    between atoms: C_8  and  N_9 
REMARK    5  A    between atoms: N_9  and  C_10 
REMARK    6  A    between atoms: C_10  and  N_11 
REMARK    7  A    between atoms: N_11  and  C_12 
REMARK    8  A    between atoms: C_15  and  N_16 
REMARK    9  A    between atoms: N_19  and  C_21 
REMARK   10  A    between atoms: C_21  and  C_22 
ROOT
HETATM    1  C   UNL     1      39.879  -9.495   6.026  1.00  0.00     0.034 A 
HETATM    2  C   UNL     1      41.230  -9.644   5.714  1.00  0.00     0.032 A 
HETATM    3  C   UNL     1      41.731 -10.883   5.293  1.00  0.00     0.031 A 
HETATM    4  C   UNL     1      40.914 -12.019   5.200  1.00  0.00     0.030 A 
HETATM    5  C   UNL     1      39.569 -11.857   5.564  1.00  0.00     0.031 A 
HETATM    6  C   UNL     1      39.057 -10.616   5.977  1.00  0.00     0.032 A 
ENDROOT
BRANCH   1   7
HETATM    7  N   UNL     1      39.444  -8.221   6.435  1.00  0.00    -0.333 N 
HETATM    8  H   UNL     1      39.133  -7.616   5.682  1.00  0.00     0.168 HD
BRANCH   7   9
HETATM    9  C   UNL     1      39.633  -7.572   7.605  1.00  0.00     0.179 C 
HETATM   10  S   UNL     1      38.492  -6.450   8.100  1.00  0.00    -0.040 SA
BRANCH   9  11
HETATM   11  N   UNL     1      40.666  -7.842   8.453  1.00  0.00    -0.299 N 
HETATM   12  C   UNL     1      41.815  -7.090   8.691  1.00  0.00     0.257 C 
HETATM   13  O   UNL     1      41.939  -5.875   8.613  1.00  0.00    -0.267 OA
HETATM   14  H   UNL     1      40.771  -8.839   8.587  1.00  0.00     0.171 HD
BRANCH  12  15
HETATM   15  C   UNL     1      42.975  -7.881   9.176  1.00  0.00     0.035 A 
HETATM   16  C   UNL     1      44.056  -8.173   8.334  1.00  0.00     0.053 A 
HETATM   17  C   UNL     1      45.132  -8.906   8.835  1.00  0.00     0.069 A 
HETATM   18  C   UNL     1      45.115  -9.374  10.149  1.00  0.00     0.037 A 
HETATM   19  C   UNL     1      44.050  -9.061  10.994  1.00  0.00     0.004 A 
HETATM   20  C   UNL     1      42.983  -8.303  10.512  1.00  0.00     0.017 A 
BRANCH  17  21
HETATM   21  O   UNL     1      46.223  -9.252   8.087  1.00  0.00    -0.351 OA
BRANCH  21  22
HETATM   22  C   UNL     1      46.374 -10.664   7.896  1.00  0.00     0.175 C 
BRANCH  22  23
HETATM   23  C   UNL     1      45.498 -11.066   6.713  1.00  0.00     0.022 C 
HETATM   24  C   UNL     1      44.483 -12.128   7.095  1.00  0.00     0.007 C 
ENDBRANCH  22  23
ENDBRANCH  21  22
ENDBRANCH  17  21
ENDBRANCH  12  15
ENDBRANCH   9  11
ENDBRANCH   7   9
ENDBRANCH   1   7
BRANCH   4  25
HETATM   25  N   UNL     1      41.435 -13.217   4.699  1.00  0.00    -0.378 N 
HETATM   26  C   UNL     1      42.847 -13.192   4.273  1.00  0.00     0.150 C 
HETATM   27  C   UNL     1      43.112 -14.336   3.270  1.00  0.00     0.255 C 
HETATM   28  N   UNL     1      42.690 -15.685   3.847  1.00  0.00    -0.064 N 
HETATM   29  H   UNL     1      43.282 -15.863   4.670  1.00  0.00     0.280 HD
HETATM   30  C   UNL     1      41.238 -15.650   4.324  1.00  0.00     0.255 C 
HETATM   31  C   UNL     1      41.002 -14.486   5.307  1.00  0.00     0.150 C 
BRANCH  28  32
HETATM   32  C   UNL     1      42.953 -16.806   2.871  1.00  0.00     0.276 C 
BRANCH  32  33
HETATM   33  C   UNL     1      43.368 -18.093   3.519  1.00  0.00     0.006 A 
HETATM   34  C   UNL     1      43.468 -19.255   2.748  1.00  0.00     0.124 A 
HETATM   35  F   UNL     1      43.231 -19.180   1.430  1.00  0.00    -0.206 F 
HETATM   36  C   UNL     1      43.845 -20.471   3.306  1.00  0.00     0.043 A 
HETATM   37  C   UNL     1      44.130 -20.535   4.669  1.00  0.00     0.003 A 
HETATM   38  C   UNL     1      44.034 -19.388   5.457  1.00  0.00     0.001 A 
HETATM   39  C   UNL     1      43.652 -18.170   4.889  1.00  0.00     0.012 A 
ENDBRANCH  32  33
ENDBRANCH  28  32
ENDBRANCH   4  25
TORSDOF 10
ENDMDL
MODEL 5
REMARK VINA RESULT:      -8.0      4.108      9.651
REMARK  10 active torsions:
REMARK  status: ('A' for Active; 'I' for Inactive)
REMARK    1  A    between atoms: C_2  and  C_3 
REMARK    2  A    between atoms: C_3  and  O_4 
REMARK    3  A    between atoms: O_4  and  C_5 
REMARK    4  A    between atoms: C_7  and  C_8 
REMARK       I    between atoms: C_8  and  N_9 
REMARK    5  A    between atoms: N_9  and  C_10 
REMARK    6  A    between atoms: C_10  and  N_11 
REMARK    7  A    between atoms: N_11  and  C_12 
REMARK    8  A    between atoms: C_15  and  N_16 
REMARK    9  A    between atoms: N_19  and  C_21 
REMARK   10  A    between atoms: C_21  and  C_22 
ROOT
HETATM    1  C   UNL     1      39.838  -9.971   6.230  1.00  0.00     0.034 A 
HETATM    2  C   UNL     1      41.222 -10.128   6.268  1.00  0.00     0.032 A 
HETATM    3  C   UNL     1      41.797 -11.400   6.152  1.00  0.00     0.031 A 
HETATM    4  C   UNL     1      41.015 -12.559   6.027  1.00  0.00     0.030 A 
HETATM    5  C   UNL     1      39.624 -12.381   6.039  1.00  0.00     0.031 A 
HETATM    6  C   UNL     1      39.040 -11.108   6.144  1.00  0.00     0.032 A 
ENDROOT
BRANCH   1   7
HETATM    7  N   UNL     1      39.329  -8.663   6.346  1.00  0.00    -0.333 N 
HETATM    8  H   UNL     1      39.270  -8.152   5.471  1.00  0.00     0.168 HD
BRANCH   7   9
HETATM    9  C   UNL     1      39.177  -7.884   7.438  1.00  0.00     0.179 C 
HETATM   10  S   UNL     1      38.279  -6.476   7.306  1.00  0.00    -0.040 SA
BRANCH   9  11
HETATM   11  N   UNL     1      39.645  -8.223   8.672  1.00  0.00    -0.299 N 
HETATM   12  C   UNL     1      40.550  -7.534   9.479  1.00  0.00     0.257 C 
HETATM   13  O   UNL     1      40.735  -6.326   9.527  1.00  0.00    -0.267 OA
HETATM   14  H   UNL     1      39.638  -9.228   8.797  1.00  0.00     0.171 HD
BRANCH  12  15
HETATM   15  C   UNL     1      41.291  -8.393  10.438  1.00  0.00     0.035 A 
HETATM   16  C   UNL     1      42.286  -9.278  10.000  1.00  0.00     0.053 A 
HETATM   17  C   UNL     1      42.969 -10.054  10.936  1.00  0.00     0.069 A 
HETATM   18  C   UNL     1      42.640  -9.977  12.290  1.00  0.00     0.037 A 
HETATM   19  C   UNL     1      41.668  -9.078  12.728  1.00  0.00     0.004 A 
HETATM   20  C   UNL     1      41.000  -8.275  11.803  1.00  0.00     0.017 A 
BRANCH  17  21
HETATM   21  O   UNL     1      43.943 -10.954  10.603  1.00  0.00    -0.351 OA
BRANCH  21  22
HETATM   22  C   UNL     1      45.217 -10.358  10.329  1.00  0.00     0.175 C 
BRANCH  22  23
HETATM   23  C   UNL     1      45.402 -10.340   8.814  1.00  0.00     0.022 C 
HETATM   24  C   UNL     1      45.798  -8.964   8.308  1.00  0.00     0.007 C 
ENDBRANCH  22  23
ENDBRANCH  21  22
ENDBRANCH  17  21
ENDBRANCH  12  15
ENDBRANCH   9  11
ENDBRANCH   7   9
ENDBRANCH   1   7
BRANCH   4  25
HETATM   25  N   UNL     1      41.629 -13.800   5.833  1.00  0.00    -0.378 N 
HETATM   26  C   UNL     1      40.927 -14.974   6.384  1.00  0.00     0.150 C 
HETATM   27  C   UNL     1      41.927 -16.132   6.595  1.00  0.00     0.255 C 
HETATM   28  N   UNL     1      42.687 -16.445   5.309  1.00  0.00    -0.064 N 
HETATM   29  H   UNL     1      41.996 -16.767   4.617  1.00  0.00     0.280 HD
HETATM   30  C   UNL     1      43.355 -15.192   4.745  1.00  0.00     0.255 C 
HETATM   31  C   UNL     1      42.335 -14.051   4.565  1.00  0.00     0.150 C 
BRANCH  28  32
HETATM   32  C   UNL     1      43.662 -17.581   5.511  1.00  0.00     0.276 C 
BRANCH  32  33
HETATM   33  C   UNL     1      43.659 -18.591   4.402  1.00  0.00     0.006 A 
HETATM   34  C   UNL     1      43.915 -19.935   4.690  1.00  0.00     0.124 A 
HETATM   35  F   UNL     1      44.117 -20.297   5.965  1.00  0.00    -0.206 F 
HETATM   36  C   UNL     1      43.926 -20.904   3.694  1.00  0.00     0.043 A 
HETATM   37  C   UNL     1      43.677 -20.529   2.375  1.00  0.00     0.003 A 
HETATM   38  C   UNL     1      43.420 -19.193   2.066  1.00  0.00     0.001 A 
HETATM   39  C   UNL     1      43.414 -18.224   3.072  1.00  0.00     0.012 A 
ENDBRANCH  32  33
ENDBRANCH  28  32
ENDBRANCH   4  25
TORSDOF 10
ENDMDL
MODEL 6
REMARK VINA RESULT:      -8.0      1.677      2.564
REMARK  10 active torsions:
REMARK  status: ('A' for Active; 'I' for Inactive)
REMARK    1  A    between atoms: C_2  and  C_3 
REMARK    2  A    between atoms: C_3  and  O_4 
REMARK    3  A    between atoms: O_4  and  C_5 
REMARK    4  A    between atoms: C_7  and  C_8 
REMARK       I    between atoms: C_8  and  N_9 
REMARK    5  A    between atoms: N_9  and  C_10 
REMARK    6  A    between atoms: C_10  and  N_11 
REMARK    7  A    between atoms: N_11  and  C_12 
REMARK    8  A    between atoms: C_15  and  N_16 
REMARK    9  A    between atoms: N_19  and  C_21 
REMARK   10  A    between atoms: C_21  and  C_22 
ROOT
HETATM    1  C   UNL     1      41.216 -11.144   1.993  1.00  0.00     0.034 A 
HETATM    2  C   UNL     1      42.498 -11.541   2.370  1.00  0.00     0.032 A 
HETATM    3  C   UNL     1      43.000 -11.215   3.637  1.00  0.00     0.031 A 
HETATM    4  C   UNL     1      42.258 -10.458   4.555  1.00  0.00     0.030 A 
HETATM    5  C   UNL     1      40.990 -10.028   4.136  1.00  0.00     0.031 A 
HETATM    6  C   UNL     1      40.476 -10.360   2.872  1.00  0.00     0.032 A 
ENDROOT
BRANCH   1   7
HETATM    7  N   UNL     1      40.774 -11.511   0.708  1.00  0.00    -0.333 N 
HETATM    8  H   UNL     1      40.081 -10.891   0.304  1.00  0.00     0.168 HD
BRANCH   7   9
HETATM    9  C   UNL     1      40.899 -12.683   0.048  1.00  0.00     0.179 C 
HETATM   10  S   UNL     1      40.382 -12.773  -1.543  1.00  0.00    -0.040 SA
BRANCH   9  11
HETATM   11  N   UNL     1      41.506 -13.782   0.579  1.00  0.00    -0.299 N 
HETATM   12  C   UNL     1      40.917 -14.920   1.128  1.00  0.00     0.257 C 
HETATM   13  O   UNL     1      39.839 -15.417   0.831  1.00  0.00    -0.267 OA
HETATM   14  H   UNL     1      42.414 -13.545   0.957  1.00  0.00     0.171 HD
BRANCH  12  15
HETATM   15  C   UNL     1      41.765 -15.631   2.119  1.00  0.00     0.035 A 
HETATM   16  C   UNL     1      42.306 -16.893   1.838  1.00  0.00     0.053 A 
HETATM   17  C   UNL     1      43.110 -17.518   2.790  1.00  0.00     0.069 A 
HETATM   18  C   UNL     1      43.343 -16.910   4.025  1.00  0.00     0.037 A 
HETATM   19  C   UNL     1      42.825 -15.643   4.293  1.00  0.00     0.004 A 
HETATM   20  C   UNL     1      42.044 -14.996   3.335  1.00  0.00     0.017 A 
BRANCH  17  21
HETATM   21  O   UNL     1      43.669 -18.753   2.613  1.00  0.00    -0.351 OA
BRANCH  21  22
HETATM   22  C   UNL     1      44.414 -19.222   3.744  1.00  0.00     0.175 C 
BRANCH  22  23
HETATM   23  C   UNL     1      43.955 -20.647   4.041  1.00  0.00     0.022 C 
HETATM   24  C   UNL     1      43.946 -20.939   5.531  1.00  0.00     0.007 C 
ENDBRANCH  22  23
ENDBRANCH  21  22
ENDBRANCH  17  21
ENDBRANCH  12  15
ENDBRANCH   9  11
ENDBRANCH   7   9
ENDBRANCH   1   7
BRANCH   4  25
HETATM   25  N   UNL     1      42.763 -10.223   5.839  1.00  0.00    -0.378 N 
HETATM   26  C   UNL     1      41.798  -9.747   6.848  1.00  0.00     0.150 C 
HETATM   27  C   UNL     1      42.546  -9.022   7.987  1.00  0.00     0.255 C 
HETATM   28  N   UNL     1      43.638  -9.908   8.582  1.00  0.00    -0.064 N 
HETATM   29  H   UNL     1      43.174 -10.726   8.999  1.00  0.00     0.280 HD
HETATM   30  C   UNL     1      44.584 -10.420   7.496  1.00  0.00     0.255 C 
HETATM   31  C   UNL     1      43.805 -11.120   6.365  1.00  0.00     0.150 C 
BRANCH  28  32
HETATM   32  C   UNL     1      44.368  -9.203   9.701  1.00  0.00     0.276 C 
BRANCH  32  33
HETATM   33  C   UNL     1      43.621  -9.188  11.000  1.00  0.00     0.006 A 
HETATM   34  C   UNL     1      43.097  -7.985  11.483  1.00  0.00     0.124 A 
HETATM   35  F   UNL     1      43.240  -6.874  10.745  1.00  0.00    -0.206 F 
HETATM   36  C   UNL     1      42.401  -7.923  12.684  1.00  0.00     0.043 A 
HETATM   37  C   UNL     1      42.221  -9.087  13.429  1.00  0.00     0.003 A 
HETATM   38  C   UNL     1      42.737 -10.298  12.966  1.00  0.00     0.001 A 
HETATM   39  C   UNL     1      43.438 -10.352  11.759  1.00  0.00     0.012 A 
ENDBRANCH  32  33
ENDBRANCH  28  32
ENDBRANCH   4  25
TORSDOF 10
ENDMDL
MODEL 7
REMARK VINA RESULT:      -7.9      4.001      6.909
REMARK  10 active torsions:
REMARK  status: ('A' for Active; 'I' for Inactive)
REMARK    1  A    between atoms: C_2  and  C_3 
REMARK    2  A    between atoms: C_3  and  O_4 
REMARK    3  A    between atoms: O_4  and  C_5 
REMARK    4  A    between atoms: C_7  and  C_8 
REMARK       I    between atoms: C_8  and  N_9 
REMARK    5  A    between atoms: N_9  and  C_10 
REMARK    6  A    between atoms: C_10  and  N_11 
REMARK    7  A    between atoms: N_11  and  C_12 
REMARK    8  A    between atoms: C_15  and  N_16 
REMARK    9  A    between atoms: N_19  and  C_21 
REMARK   10  A    between atoms: C_21  and  C_22 
ROOT
HETATM    1  C   UNL     1      43.107  -9.280   9.153  1.00  0.00     0.034 A 
HETATM    2  C   UNL     1      41.792  -9.149   9.598  1.00  0.00     0.032 A 
HETATM    3  C   UNL     1      41.522  -8.809  10.930  1.00  0.00     0.031 A 
HETATM    4  C   UNL     1      42.548  -8.622  11.869  1.00  0.00     0.030 A 
HETATM    5  C   UNL     1      43.861  -8.805  11.410  1.00  0.00     0.031 A 
HETATM    6  C   UNL     1      44.139  -9.135  10.074  1.00  0.00     0.032 A 
ENDROOT
BRANCH   1   7
HETATM    7  N   UNL     1      43.304  -9.617   7.800  1.00  0.00    -0.333 N 
HETATM    8  H   UNL     1      44.001  -9.056   7.321  1.00  0.00     0.168 HD
BRANCH   7   9
HETATM    9  C   UNL     1      42.538 -10.353   6.967  1.00  0.00     0.179 C 
HETATM   10  S   UNL     1      41.723  -9.580   5.725  1.00  0.00    -0.040 SA
BRANCH   9  11
HETATM   11  N   UNL     1      42.457 -11.713   7.029  1.00  0.00    -0.299 N 
HETATM   12  C   UNL     1      43.483 -12.650   6.924  1.00  0.00     0.257 C 
HETATM   13  O   UNL     1      44.655 -12.510   7.245  1.00  0.00    -0.267 OA
HETATM   14  H   UNL     1      41.549 -12.034   6.718  1.00  0.00     0.171 HD
BRANCH  12  15
HETATM   15  C   UNL     1      43.044 -13.987   6.445  1.00  0.00     0.035 A 
HETATM   16  C   UNL     1      43.925 -15.076   6.429  1.00  0.00     0.053 A 
HETATM   17  C   UNL     1      43.468 -16.317   5.987  1.00  0.00     0.069 A 
HETATM   18  C   UNL     1      42.157 -16.463   5.531  1.00  0.00     0.037 A 
HETATM   19  C   UNL     1      41.274 -15.385   5.572  1.00  0.00     0.004 A 
HETATM   20  C   UNL     1      41.713 -14.146   6.040  1.00  0.00     0.017 A 
BRANCH  17  21
HETATM   21  O   UNL     1      44.256 -17.432   5.921  1.00  0.00    -0.351 OA
BRANCH  21  22
HETATM   22  C   UNL     1      44.166 -18.136   4.677  1.00  0.00     0.175 C 
BRANCH  22  23
HETATM   23  C   UNL     1      44.155 -19.630   4.989  1.00  0.00     0.022 C 
HETATM   24  C   UNL     1      43.878 -20.465   3.753  1.00  0.00     0.007 C 
ENDBRANCH  22  23
ENDBRANCH  21  22
ENDBRANCH  17  21
ENDBRANCH  12  15
ENDBRANCH   9  11
ENDBRANCH   7   9
ENDBRANCH   1   7
BRANCH   4  25
HETATM   25  N   UNL     1      42.240  -8.205  13.168  1.00  0.00    -0.378 N 
HETATM   26  C   UNL     1      41.338  -9.079  13.943  1.00  0.00     0.150 C 
HETATM   27  C   UNL     1      40.663  -8.268  15.069  1.00  0.00     0.255 C 
HETATM   28  N   UNL     1      41.699  -7.564  15.941  1.00  0.00    -0.064 N 
HETATM   29  H   UNL     1      42.264  -8.295  16.394  1.00  0.00     0.280 HD
HETATM   30  C   UNL     1      42.643  -6.712  15.094  1.00  0.00     0.255 C 
HETATM   31  C   UNL     1      43.285  -7.545  13.967  1.00  0.00     0.150 C 
BRANCH  28  32
HETATM   32  C   UNL     1      41.041  -6.774  17.048  1.00  0.00     0.276 C 
BRANCH  32  33
HETATM   33  C   UNL     1      40.857  -7.546  18.320  1.00  0.00     0.006 A 
HETATM   34  C   UNL     1      41.960  -7.807  19.137  1.00  0.00     0.124 A 
HETATM   35  F   UNL     1      43.158  -7.320  18.782  1.00  0.00    -0.206 F 
HETATM   36  C   UNL     1      41.837  -8.521  20.323  1.00  0.00     0.043 A 
HETATM   37  C   UNL     1      40.583  -8.991  20.708  1.00  0.00     0.003 A 
HETATM   38  C   UNL     1      39.468  -8.743  19.906  1.00  0.00     0.001 A 
HETATM   39  C   UNL     1      39.601  -8.027  18.714  1.00  0.00     0.012 A 
ENDBRANCH  32  33
ENDBRANCH  28  32
ENDBRANCH   4  25
TORSDOF 10
ENDMDL
MODEL 8
REMARK VINA RESULT:      -7.8      2.873      4.766
REMARK  10 active torsions:
REMARK  status: ('A' for Active; 'I' for Inactive)
REMARK    1  A    between atoms: C_2  and  C_3 
REMARK    2  A    between atoms: C_3  and  O_4 
REMARK    3  A    between atoms: O_4  and  C_5 
REMARK    4  A    between atoms: C_7  and  C_8 
REMARK       I    between atoms: C_8  and  N_9 
REMARK    5  A    between atoms: N_9  and  C_10 
REMARK    6  A    between atoms: C_10  and  N_11 
REMARK    7  A    between atoms: N_11  and  C_12 
REMARK    8  A    between atoms: C_15  and  N_16 
REMARK    9  A    between atoms: N_19  and  C_21 
REMARK   10  A    between atoms: C_21  and  C_22 
ROOT
HETATM    1  C   UNL     1      42.538 -10.269   6.363  1.00  0.00     0.034 A 
HETATM    2  C   UNL     1      41.401  -9.657   6.887  1.00  0.00     0.032 A 
HETATM    3  C   UNL     1      41.388  -9.195   8.210  1.00  0.00     0.031 A 
HETATM    4  C   UNL     1      42.491  -9.355   9.062  1.00  0.00     0.030 A 
HETATM    5  C   UNL     1      43.607 -10.016   8.526  1.00  0.00     0.031 A 
HETATM    6  C   UNL     1      43.631 -10.472   7.199  1.00  0.00     0.032 A 
ENDROOT
BRANCH   1   7
HETATM    7  N   UNL     1      42.482 -10.703   5.024  1.00  0.00    -0.333 N 
HETATM    8  H   UNL     1      43.087 -10.194   4.388  1.00  0.00     0.168 HD
BRANCH   7   9
HETATM    9  C   UNL     1      41.569 -11.477   4.399  1.00  0.00     0.179 C 
HETATM   10  S   UNL     1      40.207 -10.752   3.747  1.00  0.00    -0.040 SA
BRANCH   9  11
HETATM   11  N   UNL     1      41.736 -12.814   4.191  1.00  0.00    -0.299 N 
HETATM   12  C   UNL     1      42.795 -13.629   4.585  1.00  0.00     0.257 C 
HETATM   13  O   UNL     1      43.516 -13.493   5.564  1.00  0.00    -0.267 OA
HETATM   14  H   UNL     1      41.254 -13.111   3.352  1.00  0.00     0.171 HD
BRANCH  12  15
HETATM   15  C   UNL     1      42.983 -14.839   3.742  1.00  0.00     0.035 A 
HETATM   16  C   UNL     1      43.165 -16.103   4.319  1.00  0.00     0.053 A 
HETATM   17  C   UNL     1      43.321 -17.214   3.491  1.00  0.00     0.069 A 
HETATM   18  C   UNL     1      43.333 -17.063   2.103  1.00  0.00     0.037 A 
HETATM   19  C   UNL     1      43.125 -15.808   1.531  1.00  0.00     0.004 A 
HETATM   20  C   UNL     1      42.938 -14.695   2.350  1.00  0.00     0.017 A 
BRANCH  17  21
HETATM   21  O   UNL     1      43.518 -18.483   3.960  1.00  0.00    -0.351 OA
BRANCH  21  22
HETATM   22  C   UNL     1      43.925 -19.418   2.953  1.00  0.00     0.175 C 
BRANCH  22  23
HETATM   23  C   UNL     1      43.774 -20.820   3.537  1.00  0.00     0.022 C 
HETATM   24  C   UNL     1      44.045 -20.844   5.030  1.00  0.00     0.007 C 
ENDBRANCH  22  23
ENDBRANCH  21  22
ENDBRANCH  17  21
ENDBRANCH  12  15
ENDBRANCH   9  11
ENDBRANCH   7   9
ENDBRANCH   1   7
BRANCH   4  25
HETATM   25  N   UNL     1      42.467  -8.808  10.349  1.00  0.00    -0.378 N 
HETATM   26  C   UNL     1      41.775  -7.514  10.501  1.00  0.00     0.150 C 
HETATM   27  C   UNL     1      42.288  -6.791  11.764  1.00  0.00     0.255 C 
HETATM   28  N   UNL     1      42.162  -7.680  12.999  1.00  0.00    -0.064 N 
HETATM   29  H   UNL     1      41.159  -7.861  13.143  1.00  0.00     0.280 HD
HETATM   30  C   UNL     1      42.847  -9.028  12.779  1.00  0.00     0.255 C 
HETATM   31  C   UNL     1      42.328  -9.714  11.501  1.00  0.00     0.150 C 
BRANCH  28  32
HETATM   32  C   UNL     1      42.658  -6.972  14.238  1.00  0.00     0.276 C 
BRANCH  32  33
HETATM   33  C   UNL     1      41.633  -6.859  15.326  1.00  0.00     0.006 A 
HETATM   34  C   UNL     1      40.684  -5.833  15.279  1.00  0.00     0.124 A 
HETATM   35  F   UNL     1      40.688  -4.995  14.233  1.00  0.00    -0.206 F 
HETATM   36  C   UNL     1      39.718  -5.687  16.268  1.00  0.00     0.043 A 
HETATM   37  C   UNL     1      39.693  -6.585  17.334  1.00  0.00     0.003 A 
HETATM   38  C   UNL     1      40.631  -7.615  17.400  1.00  0.00     0.001 A 
HETATM   39  C   UNL     1      41.602  -7.753  16.404  1.00  0.00     0.012 A 
ENDBRANCH  32  33
ENDBRANCH  28  32
ENDBRANCH   4  25
TORSDOF 10
ENDMDL
MODEL 9
REMARK VINA RESULT:      -7.7      4.124      6.962
REMARK  10 active torsions:
REMARK  status: ('A' for Active; 'I' for Inactive)
REMARK    1  A    between atoms: C_2  and  C_3 
REMARK    2  A    between atoms: C_3  and  O_4 
REMARK    3  A    between atoms: O_4  and  C_5 
REMARK    4  A    between atoms: C_7  and  C_8 
REMARK       I    between atoms: C_8  and  N_9 
REMARK    5  A    between atoms: N_9  and  C_10 
REMARK    6  A    between atoms: C_10  and  N_11 
REMARK    7  A    between atoms: N_11  and  C_12 
REMARK    8  A    between atoms: C_15  and  N_16 
REMARK    9  A    between atoms: N_19  and  C_21 
REMARK   10  A    between atoms: C_21  and  C_22 
ROOT
HETATM    1  C   UNL     1      43.304  -9.328   8.878  1.00  0.00     0.034 A 
HETATM    2  C   UNL     1      43.168 -10.219   9.942  1.00  0.00     0.032 A 
HETATM    3  C   UNL     1      42.831  -9.754  11.220  1.00  0.00     0.031 A 
HETATM    4  C   UNL     1      42.650  -8.389  11.488  1.00  0.00     0.030 A 
HETATM    5  C   UNL     1      42.839  -7.507  10.413  1.00  0.00     0.031 A 
HETATM    6  C   UNL     1      43.167  -7.966   9.127  1.00  0.00     0.032 A 
ENDROOT
BRANCH   1   7
HETATM    7  N   UNL     1      43.639  -9.866   7.620  1.00  0.00    -0.333 N 
HETATM    8  H   UNL     1      42.917  -9.771   6.914  1.00  0.00     0.168 HD
BRANCH   7   9
HETATM    9  C   UNL     1      44.623 -10.724   7.276  1.00  0.00     0.179 C 
HETATM   10  S   UNL     1      46.168 -10.461   7.868  1.00  0.00    -0.040 SA
BRANCH   9  11
HETATM   11  N   UNL     1      44.412 -11.849   6.536  1.00  0.00    -0.299 N 
HETATM   12  C   UNL     1      43.201 -12.453   6.198  1.00  0.00     0.257 C 
HETATM   13  O   UNL     1      42.117 -11.909   6.041  1.00  0.00    -0.267 OA
HETATM   14  H   UNL     1      45.201 -12.479   6.604  1.00  0.00     0.171 HD
BRANCH  12  15
HETATM   15  C   UNL     1      43.300 -13.909   5.922  1.00  0.00     0.035 A 
HETATM   16  C   UNL     1      42.827 -14.452   4.720  1.00  0.00     0.053 A 
HETATM   17  C   UNL     1      42.954 -15.822   4.494  1.00  0.00     0.069 A 
HETATM   18  C   UNL     1      43.513 -16.649   5.470  1.00  0.00     0.037 A 
HETATM   19  C   UNL     1      44.007 -16.103   6.654  1.00  0.00     0.004 A 
HETATM   20  C   UNL     1      43.912 -14.730   6.878  1.00  0.00     0.017 A 
BRANCH  17  21
HETATM   21  O   UNL     1      42.510 -16.445   3.360  1.00  0.00    -0.351 OA
BRANCH  21  22
HETATM   22  C   UNL     1      43.501 -17.253   2.714  1.00  0.00     0.175 C 
BRANCH  22  23
HETATM   23  C   UNL     1      42.808 -18.511   2.198  1.00  0.00     0.022 C 
HETATM   24  C   UNL     1      43.612 -19.763   2.499  1.00  0.00     0.007 C 
ENDBRANCH  22  23
ENDBRANCH  21  22
ENDBRANCH  17  21
ENDBRANCH  12  15
ENDBRANCH   9  11
ENDBRANCH   7   9
ENDBRANCH   1   7
BRANCH   4  25
HETATM   25  N   UNL     1      42.235  -7.974  12.758  1.00  0.00    -0.378 N 
HETATM   26  C   UNL     1      42.387  -8.952  13.851  1.00  0.00     0.150 C 
HETATM   27  C   UNL     1      41.422  -8.602  15.005  1.00  0.00     0.255 C 
HETATM   28  N   UNL     1      41.614  -7.160  15.467  1.00  0.00    -0.064 N 
HETATM   29  H   UNL     1      42.570  -7.085  15.842  1.00  0.00     0.280 HD
HETATM   30  C   UNL     1      41.501  -6.186  14.296  1.00  0.00     0.255 C 
HETATM   31  C   UNL     1      42.461  -6.574  13.154  1.00  0.00     0.150 C 
BRANCH  28  32
HETATM   32  C   UNL     1      40.675  -6.817  16.600  1.00  0.00     0.276 C 
BRANCH  32  33
HETATM   33  C   UNL     1      41.155  -7.269  17.946  1.00  0.00     0.006 A 
HETATM   34  C   UNL     1      40.275  -7.932  18.807  1.00  0.00     0.124 A 
HETATM   35  F   UNL     1      39.027  -8.188  18.387  1.00  0.00    -0.206 F 
HETATM   36  C   UNL     1      40.674  -8.365  20.066  1.00  0.00     0.043 A 
HETATM   37  C   UNL     1      41.983  -8.133  20.483  1.00  0.00     0.003 A 
HETATM   38  C   UNL     1      42.877  -7.471  19.641  1.00  0.00     0.001 A 
HETATM   39  C   UNL     1      42.467  -7.036  18.378  1.00  0.00     0.012 A 
ENDBRANCH  32  33
ENDBRANCH  28  32
ENDBRANCH   4  25
TORSDOF 10
ENDMDL
MODEL 10
REMARK VINA RESULT:      -7.7      4.750      9.707
REMARK  10 active torsions:
REMARK  status: ('A' for Active; 'I' for Inactive)
REMARK    1  A    between atoms: C_2  and  C_3 
REMARK    2  A    between atoms: C_3  and  O_4 
REMARK    3  A    between atoms: O_4  and  C_5 
REMARK    4  A    between atoms: C_7  and  C_8 
REMARK       I    between atoms: C_8  and  N_9 
REMARK    5  A    between atoms: N_9  and  C_10 
REMARK    6  A    between atoms: C_10  and  N_11 
REMARK    7  A    between atoms: N_11  and  C_12 
REMARK    8  A    between atoms: C_15  and  N_16 
REMARK    9  A    between atoms: N_19  and  C_21 
REMARK   10  A    between atoms: C_21  and  C_22 
ROOT
HETATM    1  C   UNL     1      42.426 -16.726   3.178  1.00  0.00     0.034 A 
HETATM    2  C   UNL     1      43.241 -16.216   2.168  1.00  0.00     0.032 A 
HETATM    3  C   UNL     1      42.704 -15.398   1.165  1.00  0.00     0.031 A 
HETATM    4  C   UNL     1      41.336 -15.088   1.116  1.00  0.00     0.030 A 
HETATM    5  C   UNL     1      40.528 -15.650   2.114  1.00  0.00     0.031 A 
HETATM    6  C   UNL     1      41.061 -16.462   3.129  1.00  0.00     0.032 A 
ENDROOT
BRANCH   1   7
HETATM    7  N   UNL     1      43.034 -17.535   4.156  1.00  0.00    -0.333 N 
HETATM    8  H   UNL     1      43.092 -18.519   3.916  1.00  0.00     0.168 HD
BRANCH   7   9
HETATM    9  C   UNL     1      43.292 -17.281   5.457  1.00  0.00     0.179 C 
HETATM   10  S   UNL     1      43.421 -18.569   6.521  1.00  0.00    -0.040 SA
BRANCH   9  11
HETATM   11  N   UNL     1      43.539 -16.032   5.942  1.00  0.00    -0.299 N 
HETATM   12  C   UNL     1      42.642 -14.984   6.144  1.00  0.00     0.257 C 
HETATM   13  O   UNL     1      41.451 -15.065   6.412  1.00  0.00    -0.267 OA
HETATM   14  H   UNL     1      44.490 -15.749   5.743  1.00  0.00     0.171 HD
BRANCH  12  15
HETATM   15  C   UNL     1      43.259 -13.633   6.107  1.00  0.00     0.035 A 
HETATM   16  C   UNL     1      43.954 -13.123   7.212  1.00  0.00     0.053 A 
HETATM   17  C   UNL     1      44.532 -11.857   7.129  1.00  0.00     0.069 A 
HETATM   18  C   UNL     1      44.389 -11.092   5.970  1.00  0.00     0.037 A 
HETATM   19  C   UNL     1      43.721 -11.611   4.862  1.00  0.00     0.004 A 
HETATM   20  C   UNL     1      43.164 -12.888   4.924  1.00  0.00     0.017 A 
BRANCH  17  21
HETATM   21  O   UNL     1      45.215 -11.270   8.157  1.00  0.00    -0.351 OA
BRANCH  21  22
HETATM   22  C   UNL     1      45.937 -10.091   7.779  1.00  0.00     0.175 C 
BRANCH  22  23
HETATM   23  C   UNL     1      45.646  -9.016   8.823  1.00  0.00     0.022 C 
HETATM   24  C   UNL     1      45.322  -9.616  10.179  1.00  0.00     0.007 C 
ENDBRANCH  22  23
ENDBRANCH  21  22
ENDBRANCH  17  21
ENDBRANCH  12  15
ENDBRANCH   9  11
ENDBRANCH   7   9
ENDBRANCH   1   7
BRANCH   4  25
HETATM   25  N   UNL     1      40.854 -14.203   0.145  1.00  0.00    -0.378 N 
HETATM   26  C   UNL     1      39.671 -14.644  -0.616  1.00  0.00     0.150 C 
HETATM   27  C   UNL     1      39.597 -13.882  -1.957  1.00  0.00     0.255 C 
HETATM   28  N   UNL     1      39.633 -12.372  -1.738  1.00  0.00    -0.064 N 
HETATM   29  H   UNL     1      38.789 -12.122  -1.203  1.00  0.00     0.280 HD
HETATM   30  C   UNL     1      40.845 -11.966  -0.901  1.00  0.00     0.255 C 
HETATM   31  C   UNL     1      40.900 -12.757   0.421  1.00  0.00     0.150 C 
BRANCH  28  32
HETATM   32  C   UNL     1      39.555 -11.625  -3.048  1.00  0.00     0.276 C 
BRANCH  32  33
HETATM   33  C   UNL     1      38.493 -10.567  -3.084  1.00  0.00     0.006 A 
HETATM   34  C   UNL     1      38.840  -9.247  -3.387  1.00  0.00     0.124 A 
HETATM   35  F   UNL     1      40.118  -8.966  -3.682  1.00  0.00    -0.206 F 
HETATM   36  C   UNL     1      37.890  -8.234  -3.428  1.00  0.00     0.043 A 
HETATM   37  C   UNL     1      36.557  -8.539  -3.160  1.00  0.00     0.003 A 
HETATM   38  C   UNL     1      36.189  -9.849  -2.854  1.00  0.00     0.001 A 
HETATM   39  C   UNL     1      37.151 -10.862  -2.811  1.00  0.00     0.012 A 
ENDBRANCH  32  33
ENDBRANCH  28  32
ENDBRANCH   4  25
TORSDOF 10
ENDMDL
