MODEL 1
REMARK VINA RESULT:      -9.6      0.000      0.000
REMARK  6 active torsions:
REMARK  status: ('A' for Active; 'I' for Inactive)
REMARK    1  A    between atoms: C_2  and  C_3 
REMARK    2  A    between atoms: C_3  and  C_4 
REMARK    3  A    between atoms: N_7  and  C_9 
REMARK    4  A    between atoms: C_9  and  C_10 
REMARK    5  A    between atoms: N_23  and  C_24 
REMARK    6  A    between atoms: C_24  and  C_25 
ROOT
HETATM    1  C   UNL     1      40.659 -12.816   4.920  1.00  0.00     0.119 A 
HETATM    2  N   UNL     1      41.853 -12.506   4.171  1.00  0.00    -0.324 N 
HETATM    3  C   UNL     1      42.390 -11.284   4.528  1.00  0.00     0.326 A 
HETATM    4  O   UNL     1      43.446 -10.886   4.070  1.00  0.00    -0.247 OA
HETATM    5  N   UNL     1      41.609 -10.724   5.486  1.00  0.00    -0.264 N 
HETATM    6  C   UNL     1      40.524 -11.514   5.746  1.00  0.00     0.257 A 
HETATM    7  O   UNL     1      39.638 -11.296   6.558  1.00  0.00    -0.270 OA
HETATM    8  H   UNL     1      42.098 -12.865   3.255  1.00  0.00     0.165 HD
ENDROOT
BRANCH   1   9
HETATM    9  C   UNL     1      39.439 -13.017   4.002  1.00  0.00     0.037 C 
HETATM   10  C   UNL     1      39.759 -13.095   2.511  1.00  0.00     0.008 C 
ENDBRANCH   1   9
BRANCH   1  11
HETATM   11  C   UNL     1      40.875 -14.018   5.916  1.00  0.00     0.026 C 
HETATM   12  C   UNL     1      42.321 -14.223   6.419  1.00  0.00     0.035 C 
HETATM   13  C   UNL     1      43.268 -14.847   5.402  1.00  0.00     0.235 C 
HETATM   14  N   UNL     1      42.707 -16.128   4.837  1.00  0.00    -0.067 N 
HETATM   15  H   UNL     1      42.751 -16.823   5.593  1.00  0.00     0.280 HD
HETATM   16  C   UNL     1      41.268 -16.039   4.382  1.00  0.00     0.235 C 
HETATM   17  C   UNL     1      40.377 -15.390   5.430  1.00  0.00     0.035 C 
BRANCH  14  18
HETATM   18  C   UNL     1      43.558 -16.673   3.694  1.00  0.00     0.273 C 
BRANCH  18  19
HETATM   19  C   UNL     1      43.670 -18.172   3.634  1.00  0.00    -0.027 A 
HETATM   20  C   UNL     1      44.062 -18.917   4.754  1.00  0.00     0.051 A 
HETATM   21  C   UNL     1      44.168 -20.307   4.665  1.00  0.00     0.119 A 
HETATM   22  F   UNL     1      44.545 -20.998   5.747  1.00  0.00    -0.206 F 
HETATM   23  C   UNL     1      43.900 -20.979   3.482  1.00  0.00     0.084 A 
HETATM   24  C   UNL     1      43.513 -20.242   2.374  1.00  0.00     0.119 A 
HETATM   25  F   UNL     1      43.256 -20.866   1.219  1.00  0.00    -0.206 F 
HETATM   26  C   UNL     1      43.396 -18.855   2.436  1.00  0.00     0.051 A 
ENDBRANCH  18  19
ENDBRANCH  14  18
ENDBRANCH   1  11
BRANCH   5  27
HETATM   27  C   UNL     1      41.918  -9.497   6.186  1.00  0.00     0.175 C 
BRANCH  27  28
HETATM   28  C   UNL     1      42.546  -9.728   7.536  1.00  0.00    -0.037 A 
HETATM   29  C   UNL     1      41.915  -9.245   8.695  1.00  0.00     0.048 A 
HETATM   30  C   UNL     1      42.548  -9.428   9.905  1.00  0.00     0.105 A 
HETATM   31  C   UNL     1      43.755 -10.076  10.000  1.00  0.00     0.105 A 
HETATM   32  O   UNL     1      42.091  -8.998  11.111  1.00  0.00    -0.323 OA
HETATM   33  O   UNL     1      44.212 -10.135  11.279  1.00  0.00    -0.323 OA
HETATM   34  C   UNL     1      44.393 -10.586   8.890  1.00  0.00     0.040 A 
HETATM   35  C   UNL     1      43.171  -9.416  11.974  1.00  0.00     0.352 A 
HETATM   36  C   UNL     1      43.780 -10.409   7.645  1.00  0.00     0.012 A 
ENDBRANCH  27  28
ENDBRANCH   5  27
TORSDOF 6
ENDMDL
MODEL 2
REMARK VINA RESULT:      -9.4      1.692      2.260
REMARK  6 active torsions:
REMARK  status: ('A' for Active; 'I' for Inactive)
REMARK    1  A    between atoms: C_2  and  C_3 
REMARK    2  A    between atoms: C_3  and  C_4 
REMARK    3  A    between atoms: N_7  and  C_9 
REMARK    4  A    between atoms: C_9  and  C_10 
REMARK    5  A    between atoms: N_23  and  C_24 
REMARK    6  A    between atoms: C_24  and  C_25 
ROOT
HETATM    1  C   UNL     1      43.113 -12.040   5.855  1.00  0.00     0.119 A 
HETATM    2  N   UNL     1      44.527 -11.885   6.100  1.00  0.00    -0.324 N 
HETATM    3  C   UNL     1      44.799 -10.812   6.926  1.00  0.00     0.326 A 
HETATM    4  O   UNL     1      45.927 -10.571   7.318  1.00  0.00    -0.247 OA
HETATM    5  N   UNL     1      43.632 -10.203   7.254  1.00  0.00    -0.264 N 
HETATM    6  C   UNL     1      42.580 -10.807   6.624  1.00  0.00     0.257 A 
HETATM    7  O   UNL     1      41.400 -10.504   6.715  1.00  0.00    -0.270 OA
HETATM    8  H   UNL     1      45.279 -12.206   5.500  1.00  0.00     0.165 HD
ENDROOT
BRANCH   1   9
HETATM    9  C   UNL     1      42.774 -11.944   4.356  1.00  0.00     0.037 C 
HETATM   10  C   UNL     1      43.981 -11.860   3.425  1.00  0.00     0.008 C 
ENDBRANCH   1   9
BRANCH   1  11
HETATM   11  C   UNL     1      42.529 -13.339   6.529  1.00  0.00     0.026 C 
HETATM   12  C   UNL     1      43.554 -14.449   6.848  1.00  0.00     0.035 C 
HETATM   13  C   UNL     1      44.029 -15.245   5.640  1.00  0.00     0.235 C 
HETATM   14  N   UNL     1      42.869 -15.793   4.847  1.00  0.00    -0.067 N 
HETATM   15  H   UNL     1      42.454 -16.540   5.418  1.00  0.00     0.280 HD
HETATM   16  C   UNL     1      41.779 -14.789   4.547  1.00  0.00     0.235 C 
HETATM   17  C   UNL     1      41.362 -14.013   5.787  1.00  0.00     0.035 C 
BRANCH  14  18
HETATM   18  C   UNL     1      43.320 -16.444   3.542  1.00  0.00     0.273 C 
BRANCH  18  19
HETATM   19  C   UNL     1      43.490 -17.937   3.593  1.00  0.00    -0.027 A 
HETATM   20  C   UNL     1      43.867 -18.586   4.776  1.00  0.00     0.051 A 
HETATM   21  C   UNL     1      44.028 -19.973   4.789  1.00  0.00     0.119 A 
HETATM   22  F   UNL     1      44.389 -20.572   5.931  1.00  0.00    -0.206 F 
HETATM   23  C   UNL     1      43.829 -20.737   3.649  1.00  0.00     0.084 A 
HETATM   24  C   UNL     1      43.457 -20.095   2.479  1.00  0.00     0.119 A 
HETATM   25  F   UNL     1      43.267 -20.808   1.362  1.00  0.00    -0.206 F 
HETATM   26  C   UNL     1      43.287 -18.712   2.438  1.00  0.00     0.051 A 
ENDBRANCH  18  19
ENDBRANCH  14  18
ENDBRANCH   1  11
BRANCH   5  27
HETATM   27  C   UNL     1      43.509  -9.112   8.195  1.00  0.00     0.175 C 
BRANCH  27  28
HETATM   28  C   UNL     1      43.024  -9.553   9.552  1.00  0.00    -0.037 A 
HETATM   29  C   UNL     1      41.705  -9.274   9.950  1.00  0.00     0.048 A 
HETATM   30  C   UNL     1      41.317  -9.645  11.220  1.00  0.00     0.105 A 
HETATM   31  C   UNL     1      42.173 -10.285  12.081  1.00  0.00     0.105 A 
HETATM   32  O   UNL     1      40.093  -9.423  11.769  1.00  0.00    -0.323 OA
HETATM   33  O   UNL     1      41.597 -10.547  13.284  1.00  0.00    -0.323 OA
HETATM   34  C   UNL     1      43.465 -10.599  11.719  1.00  0.00     0.040 A 
HETATM   35  C   UNL     1      40.290  -9.963  13.094  1.00  0.00     0.352 A 
HETATM   36  C   UNL     1      43.893 -10.229  10.439  1.00  0.00     0.012 A 
ENDBRANCH  27  28
ENDBRANCH   5  27
TORSDOF 6
ENDMDL
MODEL 3
REMARK VINA RESULT:      -9.2      3.715      7.177
REMARK  6 active torsions:
REMARK  status: ('A' for Active; 'I' for Inactive)
REMARK    1  A    between atoms: C_2  and  C_3 
REMARK    2  A    between atoms: C_3  and  C_4 
REMARK    3  A    between atoms: N_7  and  C_9 
REMARK    4  A    between atoms: C_9  and  C_10 
REMARK    5  A    between atoms: N_23  and  C_24 
REMARK    6  A    between atoms: C_24  and  C_25 
ROOT
HETATM    1  C   UNL     1      41.751 -14.133   3.615  1.00  0.00     0.119 A 
HETATM    2  N   UNL     1      42.676 -13.035   3.474  1.00  0.00    -0.324 N 
HETATM    3  C   UNL     1      42.194 -12.052   2.631  1.00  0.00     0.326 A 
HETATM    4  O   UNL     1      42.792 -11.006   2.453  1.00  0.00    -0.247 OA
HETATM    5  N   UNL     1      40.976 -12.430   2.168  1.00  0.00    -0.264 N 
HETATM    6  C   UNL     1      40.646 -13.671   2.635  1.00  0.00     0.257 A 
HETATM    7  O   UNL     1      39.617 -14.289   2.409  1.00  0.00    -0.270 OA
HETATM    8  H   UNL     1      43.681 -13.075   3.606  1.00  0.00     0.165 HD
ENDROOT
BRANCH   1   9
HETATM    9  C   UNL     1      42.368 -15.469   3.162  1.00  0.00     0.037 C 
HETATM   10  C   UNL     1      43.092 -15.423   1.818  1.00  0.00     0.008 C 
ENDBRANCH   1   9
BRANCH   1  11
HETATM   11  C   UNL     1      41.133 -14.209   5.063  1.00  0.00     0.026 C 
HETATM   12  C   UNL     1      42.054 -13.748   6.213  1.00  0.00     0.035 C 
HETATM   13  C   UNL     1      43.150 -14.737   6.589  1.00  0.00     0.235 C 
HETATM   14  N   UNL     1      42.586 -16.108   6.866  1.00  0.00    -0.067 N 
HETATM   15  H   UNL     1      42.077 -16.038   7.756  1.00  0.00     0.280 HD
HETATM   16  C   UNL     1      41.616 -16.614   5.824  1.00  0.00     0.235 C 
HETATM   17  C   UNL     1      40.559 -15.576   5.476  1.00  0.00     0.035 C 
BRANCH  14  18
HETATM   18  C   UNL     1      43.683 -17.150   7.073  1.00  0.00     0.273 C 
BRANCH  18  19
HETATM   19  C   UNL     1      43.823 -18.163   5.971  1.00  0.00    -0.027 A 
HETATM   20  C   UNL     1      44.153 -17.777   4.666  1.00  0.00     0.051 A 
HETATM   21  C   UNL     1      44.265 -18.740   3.660  1.00  0.00     0.119 A 
HETATM   22  F   UNL     1      44.582 -18.347   2.420  1.00  0.00    -0.206 F 
HETATM   23  C   UNL     1      44.048 -20.085   3.919  1.00  0.00     0.084 A 
HETATM   24  C   UNL     1      43.720 -20.467   5.209  1.00  0.00     0.119 A 
HETATM   25  F   UNL     1      43.498 -21.758   5.483  1.00  0.00    -0.206 F 
HETATM   26  C   UNL     1      43.605 -19.527   6.232  1.00  0.00     0.051 A 
ENDBRANCH  18  19
ENDBRANCH  14  18
ENDBRANCH   1  11
BRANCH   5  27
HETATM   27  C   UNL     1      40.114 -11.604   1.352  1.00  0.00     0.175 C 
BRANCH  27  28
HETATM   28  C   UNL     1      39.907 -12.152  -0.036  1.00  0.00    -0.037 A 
HETATM   29  C   UNL     1      38.623 -12.545  -0.450  1.00  0.00     0.048 A 
HETATM   30  C   UNL     1      38.484 -13.092  -1.708  1.00  0.00     0.105 A 
HETATM   31  C   UNL     1      39.555 -13.243  -2.554  1.00  0.00     0.105 A 
HETATM   32  O   UNL     1      37.324 -13.550  -2.248  1.00  0.00    -0.323 OA
HETATM   33  O   UNL     1      39.204 -13.816  -3.735  1.00  0.00    -0.323 OA
HETATM   34  C   UNL     1      40.825 -12.846  -2.194  1.00  0.00     0.040 A 
HETATM   35  C   UNL     1      37.795 -14.043  -3.521  1.00  0.00     0.352 A 
HETATM   36  C   UNL     1      41.000 -12.294  -0.921  1.00  0.00     0.012 A 
ENDBRANCH  27  28
ENDBRANCH   5  27
TORSDOF 6
ENDMDL
MODEL 4
REMARK VINA RESULT:      -9.2      2.333      3.459
REMARK  6 active torsions:
REMARK  status: ('A' for Active; 'I' for Inactive)
REMARK    1  A    between atoms: C_2  and  C_3 
REMARK    2  A    between atoms: C_3  and  C_4 
REMARK    3  A    between atoms: N_7  and  C_9 
REMARK    4  A    between atoms: C_9  and  C_10 
REMARK    5  A    between atoms: N_23  and  C_24 
REMARK    6  A    between atoms: C_24  and  C_25 
ROOT
HETATM    1  C   UNL     1      40.205 -13.164   1.666  1.00  0.00     0.119 A 
HETATM    2  N   UNL     1      41.590 -12.778   1.789  1.00  0.00    -0.324 N 
HETATM    3  C   UNL     1      41.731 -11.463   2.189  1.00  0.00     0.326 A 
HETATM    4  O   UNL     1      42.822 -10.978   2.432  1.00  0.00    -0.247 OA
HETATM    5  N   UNL     1      40.500 -10.914   2.336  1.00  0.00    -0.264 N 
HETATM    6  C   UNL     1      39.528 -11.810   1.991  1.00  0.00     0.257 A 
HETATM    7  O   UNL     1      38.320 -11.628   2.020  1.00  0.00    -0.270 OA
HETATM    8  H   UNL     1      42.375 -13.198   1.304  1.00  0.00     0.165 HD
ENDROOT
BRANCH   1   9
HETATM    9  C   UNL     1      39.859 -13.626   0.238  1.00  0.00     0.037 C 
HETATM   10  C   UNL     1      40.583 -12.874  -0.876  1.00  0.00     0.008 C 
ENDBRANCH   1   9
BRANCH   1  11
HETATM   11  C   UNL     1      39.778 -14.211   2.764  1.00  0.00     0.026 C 
HETATM   12  C   UNL     1      40.527 -14.115   4.111  1.00  0.00     0.035 C 
HETATM   13  C   UNL     1      41.949 -14.661   4.091  1.00  0.00     0.235 C 
HETATM   14  N   UNL     1      41.994 -16.067   3.546  1.00  0.00    -0.067 N 
HETATM   15  H   UNL     1      41.568 -16.669   4.262  1.00  0.00     0.280 HD
HETATM   16  C   UNL     1      41.226 -16.271   2.260  1.00  0.00     0.235 C 
HETATM   17  C   UNL     1      39.823 -15.688   2.335  1.00  0.00     0.035 C 
BRANCH  14  18
HETATM   18  C   UNL     1      43.425 -16.564   3.356  1.00  0.00     0.273 C 
BRANCH  18  19
HETATM   19  C   UNL     1      43.594 -18.058   3.376  1.00  0.00    -0.027 A 
HETATM   20  C   UNL     1      43.390 -18.829   2.224  1.00  0.00     0.051 A 
HETATM   21  C   UNL     1      43.542 -20.215   2.276  1.00  0.00     0.119 A 
HETATM   22  F   UNL     1      43.342 -20.931   1.162  1.00  0.00    -0.206 F 
HETATM   23  C   UNL     1      43.888 -20.862   3.453  1.00  0.00     0.084 A 
HETATM   24  C   UNL     1      44.089 -20.101   4.593  1.00  0.00     0.119 A 
HETATM   25  F   UNL     1      44.415 -20.702   5.743  1.00  0.00    -0.206 F 
HETATM   26  C   UNL     1      43.946 -18.715   4.568  1.00  0.00     0.051 A 
ENDBRANCH  18  19
ENDBRANCH  14  18
ENDBRANCH   1  11
BRANCH   5  27
HETATM   27  C   UNL     1      40.247  -9.588   2.855  1.00  0.00     0.175 C 
BRANCH  27  28
HETATM   28  C   UNL     1      40.375  -9.505   4.355  1.00  0.00    -0.037 A 
HETATM   29  C   UNL     1      39.400 -10.098   5.175  1.00  0.00     0.048 A 
HETATM   30  C   UNL     1      39.524  -9.953   6.540  1.00  0.00     0.105 A 
HETATM   31  C   UNL     1      40.570  -9.266   7.104  1.00  0.00     0.105 A 
HETATM   32  O   UNL     1      38.656 -10.435   7.469  1.00  0.00    -0.323 OA
HETATM   33  O   UNL     1      40.494  -9.228   8.461  1.00  0.00    -0.323 OA
HETATM   34  C   UNL     1      41.559  -8.692   6.334  1.00  0.00     0.040 A 
HETATM   35  C   UNL     1      39.257  -9.938   8.685  1.00  0.00     0.352 A 
HETATM   36  C   UNL     1      41.459  -8.815   4.944  1.00  0.00     0.012 A 
ENDBRANCH  27  28
ENDBRANCH   5  27
TORSDOF 6
ENDMDL
MODEL 5
REMARK VINA RESULT:      -9.2      1.285      2.273
REMARK  6 active torsions:
REMARK  status: ('A' for Active; 'I' for Inactive)
REMARK    1  A    between atoms: C_2  and  C_3 
REMARK    2  A    between atoms: C_3  and  C_4 
REMARK    3  A    between atoms: N_7  and  C_9 
REMARK    4  A    between atoms: C_9  and  C_10 
REMARK    5  A    between atoms: N_23  and  C_24 
REMARK    6  A    between atoms: C_24  and  C_25 
ROOT
HETATM    1  C   UNL     1      40.622 -12.507   5.309  1.00  0.00     0.119 A 
HETATM    2  N   UNL     1      41.687 -11.571   5.040  1.00  0.00    -0.324 N 
HETATM    3  C   UNL     1      41.456 -10.339   5.620  1.00  0.00     0.326 A 
HETATM    4  O   UNL     1      42.282  -9.444   5.578  1.00  0.00    -0.247 OA
HETATM    5  N   UNL     1      40.266 -10.375   6.270  1.00  0.00    -0.264 N 
HETATM    6  C   UNL     1      39.659 -11.587   6.098  1.00  0.00     0.257 A 
HETATM    7  O   UNL     1      38.585 -11.940   6.559  1.00  0.00    -0.270 OA
HETATM    8  H   UNL     1      42.323 -11.597   4.251  1.00  0.00     0.165 HD
ENDROOT
BRANCH   1   9
HETATM    9  C   UNL     1      39.962 -13.018   4.015  1.00  0.00     0.037 C 
HETATM   10  C   UNL     1      39.333 -11.935   3.141  1.00  0.00     0.008 C 
ENDBRANCH   1   9
BRANCH   1  11
HETATM   11  C   UNL     1      41.083 -13.678   6.260  1.00  0.00     0.026 C 
HETATM   12  C   UNL     1      42.609 -13.851   6.421  1.00  0.00     0.035 C 
HETATM   13  C   UNL     1      43.307 -14.494   5.230  1.00  0.00     0.235 C 
HETATM   14  N   UNL     1      42.654 -15.797   4.842  1.00  0.00    -0.067 N 
HETATM   15  H   UNL     1      42.883 -16.469   5.585  1.00  0.00     0.280 HD
HETATM   16  C   UNL     1      41.148 -15.738   4.728  1.00  0.00     0.235 C 
HETATM   17  C   UNL     1      40.510 -15.068   5.936  1.00  0.00     0.035 C 
BRANCH  14  18
HETATM   18  C   UNL     1      43.230 -16.365   3.548  1.00  0.00     0.273 C 
BRANCH  18  19
HETATM   19  C   UNL     1      43.454 -17.852   3.543  1.00  0.00    -0.027 A 
HETATM   20  C   UNL     1      43.215 -18.621   2.397  1.00  0.00     0.051 A 
HETATM   21  C   UNL     1      43.421 -20.002   2.427  1.00  0.00     0.119 A 
HETATM   22  F   UNL     1      43.187 -20.716   1.319  1.00  0.00    -0.206 F 
HETATM   23  C   UNL     1      43.855 -20.644   3.577  1.00  0.00     0.084 A 
HETATM   24  C   UNL     1      44.090 -19.885   4.711  1.00  0.00     0.119 A 
HETATM   25  F   UNL     1      44.501 -20.482   5.836  1.00  0.00    -0.206 F 
HETATM   26  C   UNL     1      43.895 -18.505   4.708  1.00  0.00     0.051 A 
ENDBRANCH  18  19
ENDBRANCH  14  18
ENDBRANCH   1  11
BRANCH   5  27
HETATM   27  C   UNL     1      39.746  -9.305   7.093  1.00  0.00     0.175 C 
BRANCH  27  28
HETATM   28  C   UNL     1      40.122  -9.438   8.546  1.00  0.00    -0.037 A 
HETATM   29  C   UNL     1      41.450  -9.216   8.949  1.00  0.00     0.048 A 
HETATM   30  C   UNL     1      41.765  -9.401  10.278  1.00  0.00     0.105 A 
HETATM   31  C   UNL     1      40.820  -9.774  11.201  1.00  0.00     0.105 A 
HETATM   32  O   UNL     1      43.002  -9.259  10.825  1.00  0.00    -0.323 OA
HETATM   33  O   UNL     1      41.343  -9.916  12.448  1.00  0.00    -0.323 OA
HETATM   34  C   UNL     1      39.503  -9.975  10.850  1.00  0.00     0.040 A 
HETATM   35  C   UNL     1      42.734  -9.625  12.196  1.00  0.00     0.352 A 
HETATM   36  C   UNL     1      39.152  -9.804   9.507  1.00  0.00     0.012 A 
ENDBRANCH  27  28
ENDBRANCH   5  27
TORSDOF 6
ENDMDL
MODEL 6
REMARK VINA RESULT:      -9.0      5.036      8.699
REMARK  6 active torsions:
REMARK  status: ('A' for Active; 'I' for Inactive)
REMARK    1  A    between atoms: C_2  and  C_3 
REMARK    2  A    between atoms: C_3  and  C_4 
REMARK    3  A    between atoms: N_7  and  C_9 
REMARK    4  A    between atoms: C_9  and  C_10 
REMARK    5  A    between atoms: N_23  and  C_24 
REMARK    6  A    between atoms: C_24  and  C_25 
ROOT
HETATM    1  C   UNL     1      40.607 -13.488   2.634  1.00  0.00     0.119 A 
HETATM    2  N   UNL     1      39.971 -14.226   3.698  1.00  0.00    -0.324 N 
HETATM    3  C   UNL     1      40.854 -15.062   4.353  1.00  0.00     0.326 A 
HETATM    4  O   UNL     1      40.526 -15.702   5.336  1.00  0.00    -0.247 OA
HETATM    5  N   UNL     1      42.078 -14.947   3.778  1.00  0.00    -0.264 N 
HETATM    6  C   UNL     1      42.030 -14.092   2.712  1.00  0.00     0.257 A 
HETATM    7  O   UNL     1      42.962 -13.770   1.990  1.00  0.00    -0.270 OA
HETATM    8  H   UNL     1      38.986 -14.456   3.763  1.00  0.00     0.165 HD
ENDROOT
BRANCH   1   9
HETATM    9  C   UNL     1      39.961 -13.775   1.265  1.00  0.00     0.037 C 
HETATM   10  C   UNL     1      40.144 -15.202   0.752  1.00  0.00     0.008 C 
ENDBRANCH   1   9
BRANCH   1  11
HETATM   11  C   UNL     1      40.702 -11.947   2.950  1.00  0.00     0.026 C 
HETATM   12  C   UNL     1      39.373 -11.164   2.879  1.00  0.00     0.035 C 
HETATM   13  C   UNL     1      38.874 -10.881   1.468  1.00  0.00     0.235 C 
HETATM   14  N   UNL     1      39.936 -10.219   0.627  1.00  0.00    -0.067 N 
HETATM   15  H   UNL     1      40.039  -9.262   0.989  1.00  0.00     0.280 HD
HETATM   16  C   UNL     1      41.294 -10.880   0.690  1.00  0.00     0.235 C 
HETATM   17  C   UNL     1      41.729 -11.155   2.122  1.00  0.00     0.035 C 
BRANCH  14  18
HETATM   18  C   UNL     1      39.513 -10.087  -0.834  1.00  0.00     0.273 C 
BRANCH  18  19
HETATM   19  C   UNL     1      39.314 -11.386  -1.565  1.00  0.00    -0.027 A 
HETATM   20  C   UNL     1      40.401 -12.112  -2.068  1.00  0.00     0.051 A 
HETATM   21  C   UNL     1      40.184 -13.309  -2.753  1.00  0.00     0.119 A 
HETATM   22  F   UNL     1      41.239 -13.986  -3.225  1.00  0.00    -0.206 F 
HETATM   23  C   UNL     1      38.905 -13.804  -2.959  1.00  0.00     0.084 A 
HETATM   24  C   UNL     1      37.829 -13.086  -2.463  1.00  0.00     0.119 A 
HETATM   25  F   UNL     1      36.584 -13.537  -2.655  1.00  0.00    -0.206 F 
HETATM   26  C   UNL     1      38.018 -11.889  -1.773  1.00  0.00     0.051 A 
ENDBRANCH  18  19
ENDBRANCH  14  18
ENDBRANCH   1  11
BRANCH   5  27
HETATM   27  C   UNL     1      43.280 -15.582   4.268  1.00  0.00     0.175 C 
BRANCH  27  28
HETATM   28  C   UNL     1      43.372 -17.041   3.901  1.00  0.00    -0.037 A 
HETATM   29  C   UNL     1      43.770 -17.982   4.866  1.00  0.00     0.048 A 
HETATM   30  C   UNL     1      43.894 -19.299   4.476  1.00  0.00     0.105 A 
HETATM   31  C   UNL     1      43.626 -19.702   3.192  1.00  0.00     0.105 A 
HETATM   32  O   UNL     1      44.296 -20.325   5.273  1.00  0.00    -0.323 OA
HETATM   33  O   UNL     1      43.826 -21.036   3.016  1.00  0.00    -0.323 OA
HETATM   34  C   UNL     1      43.209 -18.814   2.225  1.00  0.00     0.040 A 
HETATM   35  C   UNL     1      44.288 -21.418   4.329  1.00  0.00     0.352 A 
HETATM   36  C   UNL     1      43.081 -17.468   2.586  1.00  0.00     0.012 A 
ENDBRANCH  27  28
ENDBRANCH   5  27
TORSDOF 6
ENDMDL
MODEL 7
REMARK VINA RESULT:      -9.0      2.523      3.730
REMARK  6 active torsions:
REMARK  status: ('A' for Active; 'I' for Inactive)
REMARK    1  A    between atoms: C_2  and  C_3 
REMARK    2  A    between atoms: C_3  and  C_4 
REMARK    3  A    between atoms: N_7  and  C_9 
REMARK    4  A    between atoms: C_9  and  C_10 
REMARK    5  A    between atoms: N_23  and  C_24 
REMARK    6  A    between atoms: C_24  and  C_25 
ROOT
HETATM    1  C   UNL     1      42.041 -11.248   5.567  1.00  0.00     0.119 A 
HETATM    2  N   UNL     1      43.037 -12.089   6.187  1.00  0.00    -0.324 N 
HETATM    3  C   UNL     1      43.702 -11.442   7.210  1.00  0.00     0.326 A 
HETATM    4  O   UNL     1      44.518 -12.014   7.911  1.00  0.00    -0.247 OA
HETATM    5  N   UNL     1      43.220 -10.178   7.317  1.00  0.00    -0.264 N 
HETATM    6  C   UNL     1      42.281  -9.937   6.354  1.00  0.00     0.257 A 
HETATM    7  O   UNL     1      41.654  -8.903   6.185  1.00  0.00    -0.270 OA
HETATM    8  H   UNL     1      43.509 -12.877   5.757  1.00  0.00     0.165 HD
ENDROOT
BRANCH   1   9
HETATM    9  C   UNL     1      42.311 -11.047   4.064  1.00  0.00     0.037 C 
HETATM   10  C   UNL     1      43.626 -11.638   3.560  1.00  0.00     0.008 C 
ENDBRANCH   1   9
BRANCH   1  11
HETATM   11  C   UNL     1      40.574 -11.745   5.861  1.00  0.00     0.026 C 
HETATM   12  C   UNL     1      40.406 -13.268   6.052  1.00  0.00     0.035 C 
HETATM   13  C   UNL     1      40.464 -14.082   4.766  1.00  0.00     0.235 C 
HETATM   14  N   UNL     1      39.497 -13.558   3.734  1.00  0.00    -0.067 N 
HETATM   15  H   UNL     1      38.556 -13.796   4.070  1.00  0.00     0.280 HD
HETATM   16  C   UNL     1      39.543 -12.061   3.530  1.00  0.00     0.235 C 
HETATM   17  C   UNL     1      39.503 -11.303   4.849  1.00  0.00     0.035 C 
BRANCH  14  18
HETATM   18  C   UNL     1      39.665 -14.250   2.384  1.00  0.00     0.273 C 
BRANCH  18  19
HETATM   19  C   UNL     1      40.949 -15.014   2.209  1.00  0.00    -0.027 A 
HETATM   20  C   UNL     1      42.149 -14.359   1.902  1.00  0.00     0.051 A 
HETATM   21  C   UNL     1      43.322 -15.096   1.734  1.00  0.00     0.119 A 
HETATM   22  F   UNL     1      44.457 -14.449   1.441  1.00  0.00    -0.206 F 
HETATM   23  C   UNL     1      43.334 -16.478   1.855  1.00  0.00     0.084 A 
HETATM   24  C   UNL     1      42.147 -17.126   2.157  1.00  0.00     0.119 A 
HETATM   25  F   UNL     1      42.129 -18.459   2.273  1.00  0.00    -0.206 F 
HETATM   26  C   UNL     1      40.962 -16.414   2.334  1.00  0.00     0.051 A 
ENDBRANCH  18  19
ENDBRANCH  14  18
ENDBRANCH   1  11
BRANCH   5  27
HETATM   27  C   UNL     1      43.594  -9.240   8.353  1.00  0.00     0.175 C 
BRANCH  27  28
HETATM   28  C   UNL     1      42.890  -9.491   9.661  1.00  0.00    -0.037 A 
HETATM   29  C   UNL     1      41.536  -9.144   9.807  1.00  0.00     0.048 A 
HETATM   30  C   UNL     1      40.944  -9.339  11.036  1.00  0.00     0.105 A 
HETATM   31  C   UNL     1      41.634  -9.869  12.097  1.00  0.00     0.105 A 
HETATM   32  O   UNL     1      39.658  -9.030  11.352  1.00  0.00    -0.323 OA
HETATM   33  O   UNL     1      40.870  -9.962  13.218  1.00  0.00    -0.323 OA
HETATM   34  C   UNL     1      42.955 -10.245  11.987  1.00  0.00     0.040 A 
HETATM   35  C   UNL     1      39.629  -9.392  12.750  1.00  0.00     0.352 A 
HETATM   36  C   UNL     1      43.589 -10.054  10.754  1.00  0.00     0.012 A 
ENDBRANCH  27  28
ENDBRANCH   5  27
TORSDOF 6
ENDMDL
MODEL 8
REMARK VINA RESULT:      -9.0      3.199      4.411
REMARK  6 active torsions:
REMARK  status: ('A' for Active; 'I' for Inactive)
REMARK    1  A    between atoms: C_2  and  C_3 
REMARK    2  A    between atoms: C_3  and  C_4 
REMARK    3  A    between atoms: N_7  and  C_9 
REMARK    4  A    between atoms: C_9  and  C_10 
REMARK    5  A    between atoms: N_23  and  C_24 
REMARK    6  A    between atoms: C_24  and  C_25 
ROOT
HETATM    1  C   UNL     1      40.326 -12.449   1.772  1.00  0.00     0.119 A 
HETATM    2  N   UNL     1      41.758 -12.281   1.718  1.00  0.00    -0.324 N 
HETATM    3  C   UNL     1      42.309 -12.096   2.972  1.00  0.00     0.326 A 
HETATM    4  O   UNL     1      43.513 -12.023   3.141  1.00  0.00    -0.247 OA
HETATM    5  N   UNL     1      41.315 -12.112   3.895  1.00  0.00    -0.264 N 
HETATM    6  C   UNL     1      40.097 -12.250   3.290  1.00  0.00     0.257 A 
HETATM    7  O   UNL     1      39.008 -12.307   3.841  1.00  0.00    -0.270 OA
HETATM    8  H   UNL     1      42.293 -11.944   0.926  1.00  0.00     0.165 HD
ENDROOT
BRANCH   1   9
HETATM    9  C   UNL     1      39.588 -11.370   0.957  1.00  0.00     0.037 C 
HETATM   10  C   UNL     1      39.834  -9.934   1.415  1.00  0.00     0.008 C 
ENDBRANCH   1   9
BRANCH   1  11
HETATM   11  C   UNL     1      39.881 -13.911   1.389  1.00  0.00     0.026 C 
HETATM   12  C   UNL     1      39.641 -14.873   2.573  1.00  0.00     0.035 C 
HETATM   13  C   UNL     1      40.908 -15.393   3.239  1.00  0.00     0.235 C 
HETATM   14  N   UNL     1      41.853 -16.001   2.233  1.00  0.00    -0.067 N 
HETATM   15  H   UNL     1      41.422 -16.882   1.925  1.00  0.00     0.280 HD
HETATM   16  C   UNL     1      42.093 -15.157   1.002  1.00  0.00     0.235 C 
HETATM   17  C   UNL     1      40.794 -14.650   0.395  1.00  0.00     0.035 C 
BRANCH  14  18
HETATM   18  C   UNL     1      43.197 -16.369   2.855  1.00  0.00     0.273 C 
BRANCH  18  19
HETATM   19  C   UNL     1      43.447 -17.843   3.021  1.00  0.00    -0.027 A 
HETATM   20  C   UNL     1      43.266 -18.735   1.956  1.00  0.00     0.051 A 
HETATM   21  C   UNL     1      43.494 -20.100   2.144  1.00  0.00     0.119 A 
HETATM   22  F   UNL     1      43.314 -20.935   1.113  1.00  0.00    -0.206 F 
HETATM   23  C   UNL     1      43.894 -20.605   3.372  1.00  0.00     0.084 A 
HETATM   24  C   UNL     1      44.072 -19.723   4.425  1.00  0.00     0.119 A 
HETATM   25  F   UNL     1      44.449 -20.186   5.622  1.00  0.00    -0.206 F 
HETATM   26  C   UNL     1      43.854 -18.356   4.265  1.00  0.00     0.051 A 
ENDBRANCH  18  19
ENDBRANCH  14  18
ENDBRANCH   1  11
BRANCH   5  27
HETATM   27  C   UNL     1      41.520 -12.064   5.325  1.00  0.00     0.175 C 
BRANCH  27  28
HETATM   28  C   UNL     1      41.822 -13.413   5.926  1.00  0.00    -0.037 A 
HETATM   29  C   UNL     1      43.155 -13.839   6.059  1.00  0.00     0.048 A 
HETATM   30  C   UNL     1      43.387 -15.100   6.563  1.00  0.00     0.105 A 
HETATM   31  C   UNL     1      42.361 -15.928   6.945  1.00  0.00     0.105 A 
HETATM   32  O   UNL     1      44.609 -15.674   6.727  1.00  0.00    -0.323 OA
HETATM   33  O   UNL     1      42.806 -17.130   7.398  1.00  0.00    -0.323 OA
HETATM   34  C   UNL     1      41.043 -15.537   6.855  1.00  0.00     0.040 A 
HETATM   35  C   UNL     1      44.231 -16.978   7.221  1.00  0.00     0.352 A 
HETATM   36  C   UNL     1      40.772 -14.265   6.340  1.00  0.00     0.012 A 
ENDBRANCH  27  28
ENDBRANCH   5  27
TORSDOF 6
ENDMDL
MODEL 9
REMARK VINA RESULT:      -8.8      2.498      6.198
REMARK  6 active torsions:
REMARK  status: ('A' for Active; 'I' for Inactive)
REMARK    1  A    between atoms: C_2  and  C_3 
REMARK    2  A    between atoms: C_3  and  C_4 
REMARK    3  A    between atoms: N_7  and  C_9 
REMARK    4  A    between atoms: C_9  and  C_10 
REMARK    5  A    between atoms: N_23  and  C_24 
REMARK    6  A    between atoms: C_24  and  C_25 
ROOT
HETATM    1  C   UNL     1      42.208 -10.824   6.126  1.00  0.00     0.119 A 
HETATM    2  N   UNL     1      41.328 -11.808   6.710  1.00  0.00    -0.324 N 
HETATM    3  C   UNL     1      40.154 -11.946   5.997  1.00  0.00     0.326 A 
HETATM    4  O   UNL     1      39.322 -12.789   6.283  1.00  0.00    -0.247 OA
HETATM    5  N   UNL     1      40.173 -11.087   4.948  1.00  0.00    -0.264 N 
HETATM    6  C   UNL     1      41.312 -10.330   4.965  1.00  0.00     0.257 A 
HETATM    7  O   UNL     1      41.633  -9.473   4.157  1.00  0.00    -0.270 OA
HETATM    8  H   UNL     1      41.314 -12.098   7.682  1.00  0.00     0.165 HD
ENDROOT
BRANCH   1   9
HETATM    9  C   UNL     1      42.524  -9.679   7.106  1.00  0.00     0.037 C 
HETATM   10  C   UNL     1      41.303  -9.026   7.751  1.00  0.00     0.008 C 
ENDBRANCH   1   9
BRANCH   1  11
HETATM   11  C   UNL     1      43.506 -11.474   5.512  1.00  0.00     0.026 C 
HETATM   12  C   UNL     1      43.300 -12.289   4.216  1.00  0.00     0.035 C 
HETATM   13  C   UNL     1      42.666 -13.659   4.418  1.00  0.00     0.235 C 
HETATM   14  N   UNL     1      43.409 -14.467   5.452  1.00  0.00    -0.067 N 
HETATM   15  H   UNL     1      44.305 -14.732   5.024  1.00  0.00     0.280 HD
HETATM   16  C   UNL     1      43.717 -13.724   6.732  1.00  0.00     0.235 C 
HETATM   17  C   UNL     1      44.329 -12.357   6.466  1.00  0.00     0.035 C 
BRANCH  14  18
HETATM   18  C   UNL     1      42.688 -15.769   5.792  1.00  0.00     0.273 C 
BRANCH  18  19
HETATM   19  C   UNL     1      43.120 -16.969   4.997  1.00  0.00    -0.027 A 
HETATM   20  C   UNL     1      42.974 -17.011   3.604  1.00  0.00     0.051 A 
HETATM   21  C   UNL     1      43.374 -18.144   2.894  1.00  0.00     0.119 A 
HETATM   22  F   UNL     1      43.224 -18.161   1.564  1.00  0.00    -0.206 F 
HETATM   23  C   UNL     1      43.912 -19.249   3.537  1.00  0.00     0.084 A 
HETATM   24  C   UNL     1      44.055 -19.210   4.914  1.00  0.00     0.119 A 
HETATM   25  F   UNL     1      44.565 -20.266   5.559  1.00  0.00    -0.206 F 
HETATM   26  C   UNL     1      43.668 -18.090   5.647  1.00  0.00     0.051 A 
ENDBRANCH  18  19
ENDBRANCH  14  18
ENDBRANCH   1  11
BRANCH   5  27
HETATM   27  C   UNL     1      39.165 -11.029   3.913  1.00  0.00     0.175 C 
BRANCH  27  28
HETATM   28  C   UNL     1      39.516 -11.847   2.697  1.00  0.00    -0.037 A 
HETATM   29  C   UNL     1      39.824 -11.205   1.485  1.00  0.00     0.048 A 
HETATM   30  C   UNL     1      40.086 -11.990   0.382  1.00  0.00     0.105 A 
HETATM   31  C   UNL     1      40.069 -13.361   0.448  1.00  0.00     0.105 A 
HETATM   32  O   UNL     1      40.370 -11.530  -0.866  1.00  0.00    -0.323 OA
HETATM   33  O   UNL     1      40.339 -13.940  -0.752  1.00  0.00    -0.323 OA
HETATM   34  C   UNL     1      39.798 -14.027   1.624  1.00  0.00     0.040 A 
HETATM   35  C   UNL     1      40.491 -12.774  -1.590  1.00  0.00     0.352 A 
HETATM   36  C   UNL     1      39.519 -13.260   2.760  1.00  0.00     0.012 A 
ENDBRANCH  27  28
ENDBRANCH   5  27
TORSDOF 6
ENDMDL
MODEL 10
REMARK VINA RESULT:      -8.8      1.768      2.605
REMARK  6 active torsions:
REMARK  status: ('A' for Active; 'I' for Inactive)
REMARK    1  A    between atoms: C_2  and  C_3 
REMARK    2  A    between atoms: C_3  and  C_4 
REMARK    3  A    between atoms: N_7  and  C_9 
REMARK    4  A    between atoms: C_9  and  C_10 
REMARK    5  A    between atoms: N_23  and  C_24 
REMARK    6  A    between atoms: C_24  and  C_25 
ROOT
HETATM    1  C   UNL     1      40.698 -12.507   2.493  1.00  0.00     0.119 A 
HETATM    2  N   UNL     1      42.125 -12.316   2.390  1.00  0.00    -0.324 N 
HETATM    3  C   UNL     1      42.741 -12.304   3.626  1.00  0.00     0.326 A 
HETATM    4  O   UNL     1      43.952 -12.241   3.741  1.00  0.00    -0.247 OA
HETATM    5  N   UNL     1      41.798 -12.465   4.588  1.00  0.00    -0.264 N 
HETATM    6  C   UNL     1      40.550 -12.530   4.034  1.00  0.00     0.257 A 
HETATM    7  O   UNL     1      39.493 -12.679   4.627  1.00  0.00    -0.270 OA
HETATM    8  H   UNL     1      42.615 -11.862   1.627  1.00  0.00     0.165 HD
ENDROOT
BRANCH   1   9
HETATM    9  C   UNL     1      39.913 -11.332   1.881  1.00  0.00     0.037 C 
HETATM   10  C   UNL     1      38.497 -11.674   1.421  1.00  0.00     0.008 C 
ENDBRANCH   1   9
BRANCH   1  11
HETATM   11  C   UNL     1      40.241 -13.905   1.928  1.00  0.00     0.026 C 
HETATM   12  C   UNL     1      39.877 -14.971   2.985  1.00  0.00     0.035 C 
HETATM   13  C   UNL     1      41.070 -15.604   3.689  1.00  0.00     0.235 C 
HETATM   14  N   UNL     1      42.074 -16.144   2.701  1.00  0.00    -0.067 N 
HETATM   15  H   UNL     1      41.642 -16.973   2.271  1.00  0.00     0.280 HD
HETATM   16  C   UNL     1      42.438 -15.190   1.586  1.00  0.00     0.235 C 
HETATM   17  C   UNL     1      41.208 -14.576   0.936  1.00  0.00     0.035 C 
BRANCH  14  18
HETATM   18  C   UNL     1      43.352 -16.625   3.383  1.00  0.00     0.273 C 
BRANCH  18  19
HETATM   19  C   UNL     1      43.546 -18.116   3.407  1.00  0.00    -0.027 A 
HETATM   20  C   UNL     1      43.984 -18.774   4.564  1.00  0.00     0.051 A 
HETATM   21  C   UNL     1      44.167 -20.158   4.552  1.00  0.00     0.119 A 
HETATM   22  F   UNL     1      44.586 -20.766   5.669  1.00  0.00    -0.206 F 
HETATM   23  C   UNL     1      43.931 -20.910   3.411  1.00  0.00     0.084 A 
HETATM   24  C   UNL     1      43.499 -20.260   2.267  1.00  0.00     0.119 A 
HETATM   25  F   UNL     1      43.272 -20.961   1.150  1.00  0.00    -0.206 F 
HETATM   26  C   UNL     1      43.306 -18.879   2.252  1.00  0.00     0.051 A 
ENDBRANCH  18  19
ENDBRANCH  14  18
ENDBRANCH   1  11
BRANCH   5  27
HETATM   27  C   UNL     1      42.079 -12.619   5.998  1.00  0.00     0.175 C 
BRANCH  27  28
HETATM   28  C   UNL     1      42.752 -11.414   6.604  1.00  0.00    -0.037 A 
HETATM   29  C   UNL     1      44.107 -11.477   6.968  1.00  0.00     0.048 A 
HETATM   30  C   UNL     1      44.671 -10.372   7.569  1.00  0.00     0.105 A 
HETATM   31  C   UNL     1      43.950  -9.227   7.800  1.00  0.00     0.105 A 
HETATM   32  O   UNL     1      45.954 -10.278   8.008  1.00  0.00    -0.323 OA
HETATM   33  O   UNL     1      44.689  -8.265   8.415  1.00  0.00    -0.323 OA
HETATM   34  C   UNL     1      42.626  -9.117   7.434  1.00  0.00     0.040 A 
HETATM   35  C   UNL     1      45.948  -8.952   8.579  1.00  0.00     0.352 A 
HETATM   36  C   UNL     1      42.022 -10.224   6.829  1.00  0.00     0.012 A 
ENDBRANCH  27  28
ENDBRANCH   5  27
TORSDOF 6
ENDMDL
