MODEL 1
REMARK VINA RESULT:      -9.9      0.000      0.000
REMARK  5 active torsions:
REMARK  status: ('A' for Active; 'I' for Inactive)
REMARK    1  A    between atoms: C_6  and  C_7 
REMARK    2  A    between atoms: C_7  and  N_8 
REMARK    3  A    between atoms: C_17  and  C_18 
REMARK    4  A    between atoms: C_18  and  N_19 
REMARK    5  A    between atoms: C_22  and  C_23 
REMARK       I    between atoms: C_23  and  N_24 
ROOT
HETATM    1  N   UNL     1      41.453 -15.258   2.642  1.00  0.00    -0.061 N 
HETATM    2  H   UNL     1      40.967 -16.161   2.600  1.00  0.00     0.280 HD
HETATM    3  C   UNL     1      40.796 -14.476   3.769  1.00  0.00     0.276 C 
HETATM    4  C   UNL     1      41.574 -13.240   4.144  1.00  0.00     0.002 A 
HETATM    5  C   UNL     1      41.665 -12.193   3.228  1.00  0.00     0.076 A 
HETATM    6  O   UNL     1      41.026 -12.283   2.022  1.00  0.00    -0.349 OA
HETATM    7  C   UNL     1      41.723 -13.189   1.148  1.00  0.00     0.203 C 
HETATM    8  C   UNL     1      41.200 -14.626   1.278  1.00  0.00     0.262 C 
HETATM    9  C   UNL     1      42.344 -13.173   5.321  1.00  0.00     0.020 A 
HETATM   10  C   UNL     1      43.204 -12.083   5.570  1.00  0.00    -0.032 A 
HETATM   11  C   UNL     1      43.227 -11.027   4.644  1.00  0.00     0.011 A 
HETATM   12  C   UNL     1      42.441 -11.071   3.490  1.00  0.00     0.038 A 
ENDROOT
BRANCH  10  13
HETATM   13  C   UNL     1      44.191 -12.165   6.717  1.00  0.00     0.273 C 
BRANCH  13  14
HETATM   14  N   UNL     1      44.547 -10.885   7.422  1.00  0.00    -0.066 N 
HETATM   15  H   UNL     1      44.139 -10.103   6.874  1.00  0.00     0.280 HD
HETATM   16  C   UNL     1      43.928 -10.763   8.800  1.00  0.00     0.249 C 
HETATM   17  C   UNL     1      44.229  -9.388   9.404  1.00  0.00     0.103 C 
HETATM   18  C   UNL     1      45.736  -9.119   9.424  1.00  0.00     0.017 C 
HETATM   19  C   UNL     1      46.374  -9.316   8.048  1.00  0.00     0.029 C 
HETATM   20  C   UNL     1      46.043 -10.674   7.446  1.00  0.00     0.235 C 
BRANCH  17  21
HETATM   21  C   UNL     1      43.505  -8.324   8.600  1.00  0.00     0.221 C 
HETATM   22  N   UNL     1      43.645  -7.046   9.028  1.00  0.00    -0.370 N 
HETATM   23  H   UNL     1      44.130  -6.774   9.876  1.00  0.00     0.159 HD
HETATM   24  H   UNL     1      43.187  -6.301   8.511  1.00  0.00     0.159 HD
HETATM   25  O   UNL     1      42.896  -8.608   7.570  1.00  0.00    -0.273 OA
ENDBRANCH  17  21
ENDBRANCH  13  14
ENDBRANCH  10  13
BRANCH   1  26
HETATM   26  C   UNL     1      42.891 -15.579   2.965  1.00  0.00     0.274 C 
BRANCH  26  27
HETATM   27  C   UNL     1      43.193 -16.952   3.491  1.00  0.00    -0.026 A 
HETATM   28  C   UNL     1      43.146 -18.026   2.578  1.00  0.00     0.016 A 
HETATM   29  C   UNL     1      43.542 -19.321   2.934  1.00  0.00    -0.056 A 
HETATM   30  C   UNL     1      44.016 -19.549   4.235  1.00  0.00    -0.056 A 
HETATM   31  C   UNL     1      43.533 -20.404   1.889  1.00  0.00     0.049 C 
HETATM   32  C   UNL     1      44.521 -20.903   4.661  1.00  0.00     0.049 C 
HETATM   33  C   UNL     1      44.011 -18.495   5.162  1.00  0.00     0.014 A 
HETATM   34  C   UNL     1      43.619 -17.193   4.809  1.00  0.00    -0.053 A 
HETATM   35  C   UNL     1      43.681 -16.123   5.864  1.00  0.00     0.049 C 
ENDBRANCH  26  27
ENDBRANCH   1  26
TORSDOF 5
ENDMDL
MODEL 2
REMARK VINA RESULT:      -9.0      2.895      7.299
REMARK  5 active torsions:
REMARK  status: ('A' for Active; 'I' for Inactive)
REMARK    1  A    between atoms: C_6  and  C_7 
REMARK    2  A    between atoms: C_7  and  N_8 
REMARK    3  A    between atoms: C_17  and  C_18 
REMARK    4  A    between atoms: C_18  and  N_19 
REMARK    5  A    between atoms: C_22  and  C_23 
REMARK       I    between atoms: C_23  and  N_24 
ROOT
HETATM    1  N   UNL     1      43.363 -12.880   4.230  1.00  0.00    -0.061 N 
HETATM    2  H   UNL     1      44.262 -13.326   4.015  1.00  0.00     0.280 HD
HETATM    3  C   UNL     1      43.145 -11.826   3.155  1.00  0.00     0.276 C 
HETATM    4  C   UNL     1      41.744 -11.271   3.166  1.00  0.00     0.002 A 
HETATM    5  C   UNL     1      41.327 -10.507   4.254  1.00  0.00     0.076 A 
HETATM    6  O   UNL     1      42.196 -10.242   5.276  1.00  0.00    -0.349 OA
HETATM    7  C   UNL     1      42.384 -11.412   6.094  1.00  0.00     0.203 C 
HETATM    8  C   UNL     1      43.566 -12.263   5.610  1.00  0.00     0.262 C 
HETATM    9  C   UNL     1      40.793 -11.632   2.192  1.00  0.00     0.020 A 
HETATM   10  C   UNL     1      39.441 -11.247   2.314  1.00  0.00    -0.032 A 
HETATM   11  C   UNL     1      39.075 -10.435   3.400  1.00  0.00     0.011 A 
HETATM   12  C   UNL     1      40.019 -10.046   4.352  1.00  0.00     0.038 A 
ENDROOT
BRANCH  10  13
HETATM   13  C   UNL     1      38.410 -11.857   1.385  1.00  0.00     0.273 C 
BRANCH  13  14
HETATM   14  N   UNL     1      38.772 -11.984  -0.069  1.00  0.00    -0.066 N 
HETATM   15  H   UNL     1      39.578 -11.354  -0.246  1.00  0.00     0.280 HD
HETATM   16  C   UNL     1      39.264 -13.366  -0.449  1.00  0.00     0.249 C 
HETATM   17  C   UNL     1      39.730 -13.388  -1.907  1.00  0.00     0.103 C 
HETATM   18  C   UNL     1      38.623 -12.893  -2.842  1.00  0.00     0.017 C 
HETATM   19  C   UNL     1      38.074 -11.532  -2.414  1.00  0.00     0.029 C 
HETATM   20  C   UNL     1      37.642 -11.515  -0.955  1.00  0.00     0.235 C 
BRANCH  17  21
HETATM   21  C   UNL     1      40.972 -12.525  -2.043  1.00  0.00     0.221 C 
HETATM   22  N   UNL     1      41.618 -12.583  -3.234  1.00  0.00    -0.370 N 
HETATM   23  H   UNL     1      41.371 -13.208  -3.992  1.00  0.00     0.159 HD
HETATM   24  H   UNL     1      42.446 -12.012  -3.371  1.00  0.00     0.159 HD
HETATM   25  O   UNL     1      41.316 -11.757  -1.146  1.00  0.00    -0.273 OA
ENDBRANCH  17  21
ENDBRANCH  13  14
ENDBRANCH  10  13
BRANCH   1  26
HETATM   26  C   UNL     1      42.328 -13.974   4.141  1.00  0.00     0.274 C 
BRANCH  26  27
HETATM   27  C   UNL     1      42.786 -15.324   3.671  1.00  0.00    -0.026 A 
HETATM   28  C   UNL     1      43.240 -16.235   4.648  1.00  0.00     0.016 A 
HETATM   29  C   UNL     1      43.559 -17.562   4.333  1.00  0.00    -0.056 A 
HETATM   30  C   UNL     1      43.404 -17.999   3.009  1.00  0.00    -0.056 A 
HETATM   31  C   UNL     1      43.969 -18.499   5.437  1.00  0.00     0.049 C 
HETATM   32  C   UNL     1      43.664 -19.430   2.617  1.00  0.00     0.049 C 
HETATM   33  C   UNL     1      43.007 -17.080   2.024  1.00  0.00     0.014 A 
HETATM   34  C   UNL     1      42.681 -15.749   2.336  1.00  0.00    -0.053 A 
HETATM   35  C   UNL     1      42.232 -14.849   1.217  1.00  0.00     0.049 C 
ENDBRANCH  26  27
ENDBRANCH   1  26
TORSDOF 5
ENDMDL
MODEL 3
REMARK VINA RESULT:      -9.0      3.487      6.026
REMARK  5 active torsions:
REMARK  status: ('A' for Active; 'I' for Inactive)
REMARK    1  A    between atoms: C_6  and  C_7 
REMARK    2  A    between atoms: C_7  and  N_8 
REMARK    3  A    between atoms: C_17  and  C_18 
REMARK    4  A    between atoms: C_18  and  N_19 
REMARK    5  A    between atoms: C_22  and  C_23 
REMARK       I    between atoms: C_23  and  N_24 
ROOT
HETATM    1  N   UNL     1      42.884 -15.338   6.008  1.00  0.00    -0.061 N 
HETATM    2  H   UNL     1      43.730 -15.764   6.403  1.00  0.00     0.280 HD
HETATM    3  C   UNL     1      42.825 -13.922   6.560  1.00  0.00     0.276 C 
HETATM    4  C   UNL     1      41.796 -13.072   5.862  1.00  0.00     0.002 A 
HETATM    5  C   UNL     1      40.445 -13.381   6.015  1.00  0.00     0.076 A 
HETATM    6  O   UNL     1      40.069 -14.422   6.817  1.00  0.00    -0.349 OA
HETATM    7  C   UNL     1      40.345 -15.680   6.173  1.00  0.00     0.203 C 
HETATM    8  C   UNL     1      41.743 -16.207   6.526  1.00  0.00     0.262 C 
HETATM    9  C   UNL     1      42.158 -12.077   4.932  1.00  0.00     0.020 A 
HETATM   10  C   UNL     1      41.184 -11.413   4.157  1.00  0.00    -0.032 A 
HETATM   11  C   UNL     1      39.832 -11.720   4.380  1.00  0.00     0.011 A 
HETATM   12  C   UNL     1      39.463 -12.682   5.323  1.00  0.00     0.038 A 
ENDROOT
BRANCH  10  13
HETATM   13  C   UNL     1      41.627 -10.534   3.005  1.00  0.00     0.273 C 
BRANCH  13  14
HETATM   14  N   UNL     1      41.092 -10.858   1.637  1.00  0.00    -0.066 N 
HETATM   15  H   UNL     1      40.057 -10.796   1.684  1.00  0.00     0.280 HD
HETATM   16  C   UNL     1      41.498  -9.853   0.577  1.00  0.00     0.249 C 
HETATM   17  C   UNL     1      40.818 -10.176  -0.756  1.00  0.00     0.103 C 
HETATM   18  C   UNL     1      41.112 -11.616  -1.185  1.00  0.00     0.017 C 
HETATM   19  C   UNL     1      40.774 -12.623  -0.087  1.00  0.00     0.029 C 
HETATM   20  C   UNL     1      41.431 -12.276   1.241  1.00  0.00     0.235 C 
BRANCH  17  21
HETATM   21  C   UNL     1      39.323  -9.953  -0.617  1.00  0.00     0.221 C 
HETATM   22  N   UNL     1      38.565 -10.257  -1.699  1.00  0.00    -0.370 N 
HETATM   23  H   UNL     1      38.936 -10.546  -2.597  1.00  0.00     0.159 HD
HETATM   24  H   UNL     1      37.558 -10.135  -1.644  1.00  0.00     0.159 HD
HETATM   25  O   UNL     1      38.829  -9.595   0.451  1.00  0.00    -0.273 OA
ENDBRANCH  17  21
ENDBRANCH  13  14
ENDBRANCH  10  13
BRANCH   1  26
HETATM   26  C   UNL     1      43.084 -15.334   4.512  1.00  0.00     0.274 C 
BRANCH  26  27
HETATM   27  C   UNL     1      43.367 -16.649   3.848  1.00  0.00    -0.026 A 
HETATM   28  C   UNL     1      43.786 -17.718   4.668  1.00  0.00     0.016 A 
HETATM   29  C   UNL     1      43.943 -19.017   4.170  1.00  0.00    -0.056 A 
HETATM   30  C   UNL     1      43.658 -19.263   2.819  1.00  0.00    -0.056 A 
HETATM   31  C   UNL     1      44.325 -20.123   5.117  1.00  0.00     0.049 C 
HETATM   32  C   UNL     1      43.741 -20.650   2.237  1.00  0.00     0.049 C 
HETATM   33  C   UNL     1      43.294 -18.192   1.987  1.00  0.00     0.014 A 
HETATM   34  C   UNL     1      43.131 -16.887   2.483  1.00  0.00    -0.053 A 
HETATM   35  C   UNL     1      42.706 -15.811   1.520  1.00  0.00     0.049 C 
ENDBRANCH  26  27
ENDBRANCH   1  26
TORSDOF 5
ENDMDL
MODEL 4
REMARK VINA RESULT:      -8.9      2.441      7.359
REMARK  5 active torsions:
REMARK  status: ('A' for Active; 'I' for Inactive)
REMARK    1  A    between atoms: C_6  and  C_7 
REMARK    2  A    between atoms: C_7  and  N_8 
REMARK    3  A    between atoms: C_17  and  C_18 
REMARK    4  A    between atoms: C_18  and  N_19 
REMARK    5  A    between atoms: C_22  and  C_23 
REMARK       I    between atoms: C_23  and  N_24 
ROOT
HETATM    1  N   UNL     1      43.131 -15.385   6.603  1.00  0.00    -0.061 N 
HETATM    2  H   UNL     1      42.965 -15.033   7.552  1.00  0.00     0.280 HD
HETATM    3  C   UNL     1      41.856 -16.103   6.187  1.00  0.00     0.276 C 
HETATM    4  C   UNL     1      41.834 -16.437   4.718  1.00  0.00     0.002 A 
HETATM    5  C   UNL     1      42.738 -17.376   4.223  1.00  0.00     0.076 A 
HETATM    6  O   UNL     1      43.606 -18.003   5.074  1.00  0.00    -0.349 OA
HETATM    7  C   UNL     1      44.660 -17.107   5.470  1.00  0.00     0.203 C 
HETATM    8  C   UNL     1      44.309 -16.342   6.753  1.00  0.00     0.262 C 
HETATM    9  C   UNL     1      41.043 -15.718   3.802  1.00  0.00     0.020 A 
HETATM   10  C   UNL     1      41.165 -15.924   2.411  1.00  0.00    -0.032 A 
HETATM   11  C   UNL     1      42.052 -16.914   1.960  1.00  0.00     0.011 A 
HETATM   12  C   UNL     1      42.817 -17.655   2.864  1.00  0.00     0.038 A 
ENDROOT
BRANCH  10  13
HETATM   13  C   UNL     1      40.481 -14.965   1.457  1.00  0.00     0.273 C 
BRANCH  13  14
HETATM   14  N   UNL     1      40.500 -13.503   1.807  1.00  0.00    -0.066 N 
HETATM   15  H   UNL     1      41.055 -13.397   2.679  1.00  0.00     0.280 HD
HETATM   16  C   UNL     1      41.216 -12.646   0.781  1.00  0.00     0.249 C 
HETATM   17  C   UNL     1      41.305 -11.196   1.262  1.00  0.00     0.103 C 
HETATM   18  C   UNL     1      39.918 -10.646   1.603  1.00  0.00     0.017 C 
HETATM   19  C   UNL     1      39.166 -11.550   2.580  1.00  0.00     0.029 C 
HETATM   20  C   UNL     1      39.109 -12.995   2.106  1.00  0.00     0.235 C 
BRANCH  17  21
HETATM   21  C   UNL     1      42.220 -11.130   2.471  1.00  0.00     0.221 C 
HETATM   22  N   UNL     1      42.169  -9.991   3.204  1.00  0.00    -0.370 N 
HETATM   23  H   UNL     1      41.625  -9.172   2.956  1.00  0.00     0.159 HD
HETATM   24  H   UNL     1      42.756  -9.910   4.030  1.00  0.00     0.159 HD
HETATM   25  O   UNL     1      42.905 -12.095   2.806  1.00  0.00    -0.273 OA
ENDBRANCH  17  21
ENDBRANCH  13  14
ENDBRANCH  10  13
BRANCH   1  26
HETATM   26  C   UNL     1      43.375 -14.166   5.748  1.00  0.00     0.274 C 
BRANCH  26  27
HETATM   27  C   UNL     1      43.273 -12.823   6.412  1.00  0.00    -0.026 A 
HETATM   28  C   UNL     1      44.423 -12.327   7.061  1.00  0.00     0.016 A 
HETATM   29  C   UNL     1      44.475 -11.032   7.590  1.00  0.00    -0.056 A 
HETATM   30  C   UNL     1      43.353 -10.201   7.454  1.00  0.00    -0.056 A 
HETATM   31  C   UNL     1      45.758 -10.543   8.207  1.00  0.00     0.049 C 
HETATM   32  C   UNL     1      43.367  -8.775   7.941  1.00  0.00     0.049 C 
HETATM   33  C   UNL     1      42.188 -10.710   6.859  1.00  0.00     0.014 A 
HETATM   34  C   UNL     1      42.132 -12.007   6.322  1.00  0.00    -0.053 A 
HETATM   35  C   UNL     1      40.850 -12.452   5.673  1.00  0.00     0.049 C 
ENDBRANCH  26  27
ENDBRANCH   1  26
TORSDOF 5
ENDMDL
MODEL 5
REMARK VINA RESULT:      -8.8      1.929      2.416
REMARK  5 active torsions:
REMARK  status: ('A' for Active; 'I' for Inactive)
REMARK    1  A    between atoms: C_6  and  C_7 
REMARK    2  A    between atoms: C_7  and  N_8 
REMARK    3  A    between atoms: C_17  and  C_18 
REMARK    4  A    between atoms: C_18  and  N_19 
REMARK    5  A    between atoms: C_22  and  C_23 
REMARK       I    between atoms: C_23  and  N_24 
ROOT
HETATM    1  N   UNL     1      40.886 -14.131   3.351  1.00  0.00    -0.061 N 
HETATM    2  H   UNL     1      40.479 -15.073   3.357  1.00  0.00     0.280 HD
HETATM    3  C   UNL     1      40.212 -13.371   4.484  1.00  0.00     0.276 C 
HETATM    4  C   UNL     1      40.894 -12.062   4.786  1.00  0.00     0.002 A 
HETATM    5  C   UNL     1      40.855 -11.042   3.837  1.00  0.00     0.076 A 
HETATM    6  O   UNL     1      40.176 -11.226   2.664  1.00  0.00    -0.349 OA
HETATM    7  C   UNL     1      40.912 -12.097   1.786  1.00  0.00     0.203 C 
HETATM    8  C   UNL     1      40.522 -13.568   1.982  1.00  0.00     0.262 C 
HETATM    9  C   UNL     1      41.705 -11.890   5.925  1.00  0.00     0.020 A 
HETATM   10  C   UNL     1      42.476 -10.722   6.104  1.00  0.00    -0.032 A 
HETATM   11  C   UNL     1      42.368  -9.700   5.147  1.00  0.00     0.011 A 
HETATM   12  C   UNL     1      41.541  -9.849   4.031  1.00  0.00     0.038 A 
ENDROOT
BRANCH  10  13
HETATM   13  C   UNL     1      43.515 -10.682   7.207  1.00  0.00     0.273 C 
BRANCH  13  14
HETATM   14  N   UNL     1      43.065 -10.231   8.569  1.00  0.00    -0.066 N 
HETATM   15  H   UNL     1      42.806 -11.079   9.109  1.00  0.00     0.280 HD
HETATM   16  C   UNL     1      44.164  -9.570   9.379  1.00  0.00     0.249 C 
HETATM   17  C   UNL     1      43.670  -9.252  10.793  1.00  0.00     0.103 C 
HETATM   18  C   UNL     1      42.398  -8.402  10.749  1.00  0.00     0.017 C 
HETATM   19  C   UNL     1      41.317  -9.031   9.870  1.00  0.00     0.029 C 
HETATM   20  C   UNL     1      41.826  -9.370   8.478  1.00  0.00     0.235 C 
BRANCH  17  21
HETATM   21  C   UNL     1      43.422 -10.552  11.536  1.00  0.00     0.221 C 
HETATM   22  N   UNL     1      42.522 -10.504  12.548  1.00  0.00    -0.370 N 
HETATM   23  H   UNL     1      42.074  -9.658  12.879  1.00  0.00     0.159 HD
HETATM   24  H   UNL     1      42.317 -11.355  13.064  1.00  0.00     0.159 HD
HETATM   25  O   UNL     1      43.951 -11.602  11.176  1.00  0.00    -0.273 OA
ENDBRANCH  17  21
ENDBRANCH  13  14
ENDBRANCH  10  13
BRANCH   1  26
HETATM   26  C   UNL     1      42.359 -14.317   3.619  1.00  0.00     0.274 C 
BRANCH  26  27
HETATM   27  C   UNL     1      42.823 -15.688   4.016  1.00  0.00    -0.026 A 
HETATM   28  C   UNL     1      42.706 -16.719   3.061  1.00  0.00     0.016 A 
HETATM   29  C   UNL     1      43.233 -17.998   3.281  1.00  0.00    -0.056 A 
HETATM   30  C   UNL     1      43.911 -18.252   4.482  1.00  0.00    -0.056 A 
HETATM   31  C   UNL     1      43.134 -19.029   2.189  1.00  0.00     0.049 C 
HETATM   32  C   UNL     1      44.560 -19.585   4.752  1.00  0.00     0.049 C 
HETATM   33  C   UNL     1      43.981 -17.245   5.458  1.00  0.00     0.014 A 
HETATM   34  C   UNL     1      43.458 -15.959   5.241  1.00  0.00    -0.053 A 
HETATM   35  C   UNL     1      43.611 -14.937   6.334  1.00  0.00     0.049 C 
ENDBRANCH  26  27
ENDBRANCH   1  26
TORSDOF 5
ENDMDL
MODEL 6
REMARK VINA RESULT:      -8.4      3.042      7.894
REMARK  5 active torsions:
REMARK  status: ('A' for Active; 'I' for Inactive)
REMARK    1  A    between atoms: C_6  and  C_7 
REMARK    2  A    between atoms: C_7  and  N_8 
REMARK    3  A    between atoms: C_17  and  C_18 
REMARK    4  A    between atoms: C_18  and  N_19 
REMARK    5  A    between atoms: C_22  and  C_23 
REMARK       I    between atoms: C_23  and  N_24 
ROOT
HETATM    1  N   UNL     1      42.279 -14.947   7.129  1.00  0.00    -0.061 N 
HETATM    2  H   UNL     1      41.682 -14.375   7.737  1.00  0.00     0.280 HD
HETATM    3  C   UNL     1      41.340 -15.836   6.328  1.00  0.00     0.276 C 
HETATM    4  C   UNL     1      42.039 -16.538   5.192  1.00  0.00     0.002 A 
HETATM    5  C   UNL     1      42.999 -17.505   5.482  1.00  0.00     0.076 A 
HETATM    6  O   UNL     1      43.273 -17.829   6.782  1.00  0.00    -0.349 OA
HETATM    7  C   UNL     1      44.044 -16.789   7.409  1.00  0.00     0.203 C 
HETATM    8  C   UNL     1      43.149 -15.746   8.093  1.00  0.00     0.262 C 
HETATM    9  C   UNL     1      41.870 -16.136   3.853  1.00  0.00     0.020 A 
HETATM   10  C   UNL     1      42.661 -16.684   2.821  1.00  0.00    -0.032 A 
HETATM   11  C   UNL     1      43.582 -17.691   3.151  1.00  0.00     0.011 A 
HETATM   12  C   UNL     1      43.733 -18.118   4.473  1.00  0.00     0.038 A 
ENDROOT
BRANCH  10  13
HETATM   13  C   UNL     1      42.621 -16.054   1.443  1.00  0.00     0.273 C 
BRANCH  13  14
HETATM   14  N   UNL     1      41.937 -14.723   1.306  1.00  0.00    -0.066 N 
HETATM   15  H   UNL     1      42.075 -14.399   0.329  1.00  0.00     0.280 HD
HETATM   16  C   UNL     1      40.433 -14.796   1.486  1.00  0.00     0.249 C 
HETATM   17  C   UNL     1      39.794 -13.432   1.211  1.00  0.00     0.103 C 
HETATM   18  C   UNL     1      40.426 -12.346   2.085  1.00  0.00     0.017 C 
HETATM   19  C   UNL     1      41.949 -12.322   1.961  1.00  0.00     0.029 C 
HETATM   20  C   UNL     1      42.571 -13.688   2.207  1.00  0.00     0.235 C 
BRANCH  17  21
HETATM   21  C   UNL     1      39.954 -13.097  -0.261  1.00  0.00     0.221 C 
HETATM   22  N   UNL     1      39.587 -11.848  -0.638  1.00  0.00    -0.370 N 
HETATM   23  H   UNL     1      39.153 -11.167  -0.025  1.00  0.00     0.159 HD
HETATM   24  H   UNL     1      39.690 -11.578  -1.612  1.00  0.00     0.159 HD
HETATM   25  O   UNL     1      40.467 -13.895  -1.044  1.00  0.00    -0.273 OA
ENDBRANCH  17  21
ENDBRANCH  13  14
ENDBRANCH  10  13
BRANCH   1  26
HETATM   26  C   UNL     1      43.007 -13.974   6.234  1.00  0.00     0.274 C 
BRANCH  26  27
HETATM   27  C   UNL     1      42.520 -12.554   6.213  1.00  0.00    -0.026 A 
HETATM   28  C   UNL     1      41.217 -12.319   5.725  1.00  0.00     0.016 A 
HETATM   29  C   UNL     1      40.618 -11.055   5.789  1.00  0.00    -0.056 A 
HETATM   30  C   UNL     1      41.332  -9.997   6.374  1.00  0.00    -0.056 A 
HETATM   31  C   UNL     1      39.199 -10.891   5.314  1.00  0.00     0.049 C 
HETATM   32  C   UNL     1      40.720  -8.630   6.536  1.00  0.00     0.049 C 
HETATM   33  C   UNL     1      42.648 -10.215   6.810  1.00  0.00     0.014 A 
HETATM   34  C   UNL     1      43.252 -11.483   6.752  1.00  0.00    -0.053 A 
HETATM   35  C   UNL     1      44.656 -11.624   7.275  1.00  0.00     0.049 C 
ENDBRANCH  26  27
ENDBRANCH   1  26
TORSDOF 5
ENDMDL
MODEL 7
REMARK VINA RESULT:      -8.2      2.515      5.352
REMARK  5 active torsions:
REMARK  status: ('A' for Active; 'I' for Inactive)
REMARK    1  A    between atoms: C_6  and  C_7 
REMARK    2  A    between atoms: C_7  and  N_8 
REMARK    3  A    between atoms: C_17  and  C_18 
REMARK    4  A    between atoms: C_18  and  N_19 
REMARK    5  A    between atoms: C_22  and  C_23 
REMARK       I    between atoms: C_23  and  N_24 
ROOT
HETATM    1  N   UNL     1      42.142 -15.507   1.734  1.00  0.00    -0.061 N 
HETATM    2  H   UNL     1      42.244 -15.481   0.713  1.00  0.00     0.280 HD
HETATM    3  C   UNL     1      43.202 -14.568   2.290  1.00  0.00     0.276 C 
HETATM    4  C   UNL     1      43.005 -14.280   3.756  1.00  0.00     0.002 A 
HETATM    5  C   UNL     1      43.176 -15.311   4.679  1.00  0.00     0.076 A 
HETATM    6  O   UNL     1      43.549 -16.555   4.251  1.00  0.00    -0.349 OA
HETATM    7  C   UNL     1      42.443 -17.224   3.618  1.00  0.00     0.203 C 
HETATM    8  C   UNL     1      42.406 -16.962   2.106  1.00  0.00     0.262 C 
HETATM    9  C   UNL     1      42.499 -13.047   4.211  1.00  0.00     0.020 A 
HETATM   10  C   UNL     1      42.154 -12.854   5.566  1.00  0.00    -0.032 A 
HETATM   11  C   UNL     1      42.389 -13.903   6.469  1.00  0.00     0.011 A 
HETATM   12  C   UNL     1      42.922 -15.118   6.031  1.00  0.00     0.038 A 
ENDROOT
BRANCH  10  13
HETATM   13  C   UNL     1      41.389 -11.608   5.966  1.00  0.00     0.273 C 
BRANCH  13  14
HETATM   14  N   UNL     1      41.950 -10.777   7.086  1.00  0.00    -0.066 N 
HETATM   15  H   UNL     1      42.143 -11.415   7.882  1.00  0.00     0.280 HD
HETATM   16  C   UNL     1      43.288 -10.145   6.757  1.00  0.00     0.249 C 
HETATM   17  C   UNL     1      43.854  -9.420   7.981  1.00  0.00     0.103 C 
HETATM   18  C   UNL     1      42.852  -8.397   8.523  1.00  0.00     0.017 C 
HETATM   19  C   UNL     1      41.480  -9.019   8.783  1.00  0.00     0.029 C 
HETATM   20  C   UNL     1      40.941  -9.762   7.570  1.00  0.00     0.235 C 
BRANCH  17  21
HETATM   21  C   UNL     1      44.204 -10.444   9.045  1.00  0.00     0.221 C 
HETATM   22  N   UNL     1      44.359  -9.973  10.307  1.00  0.00    -0.370 N 
HETATM   23  H   UNL     1      44.330  -8.992  10.562  1.00  0.00     0.159 HD
HETATM   24  H   UNL     1      44.581 -10.626  11.052  1.00  0.00     0.159 HD
HETATM   25  O   UNL     1      44.259 -11.644   8.782  1.00  0.00    -0.273 OA
ENDBRANCH  17  21
ENDBRANCH  13  14
ENDBRANCH  10  13
BRANCH   1  26
HETATM   26  C   UNL     1      40.752 -14.994   2.021  1.00  0.00     0.274 C 
BRANCH  26  27
HETATM   27  C   UNL     1      40.114 -14.108   0.991  1.00  0.00    -0.026 A 
HETATM   28  C   UNL     1      40.094 -14.568  -0.343  1.00  0.00     0.016 A 
HETATM   29  C   UNL     1      39.406 -13.885  -1.352  1.00  0.00    -0.056 A 
HETATM   30  C   UNL     1      38.702 -12.718  -1.021  1.00  0.00    -0.056 A 
HETATM   31  C   UNL     1      39.368 -14.471  -2.739  1.00  0.00     0.049 C 
HETATM   32  C   UNL     1      37.885 -11.974  -2.045  1.00  0.00     0.049 C 
HETATM   33  C   UNL     1      38.765 -12.227   0.293  1.00  0.00     0.014 A 
HETATM   34  C   UNL     1      39.451 -12.912   1.311  1.00  0.00    -0.053 A 
HETATM   35  C   UNL     1      39.433 -12.324   2.696  1.00  0.00     0.049 C 
ENDBRANCH  26  27
ENDBRANCH   1  26
TORSDOF 5
ENDMDL
MODEL 8
REMARK VINA RESULT:      -8.2      3.267      8.843
REMARK  5 active torsions:
REMARK  status: ('A' for Active; 'I' for Inactive)
REMARK    1  A    between atoms: C_6  and  C_7 
REMARK    2  A    between atoms: C_7  and  N_8 
REMARK    3  A    between atoms: C_17  and  C_18 
REMARK    4  A    between atoms: C_18  and  N_19 
REMARK    5  A    between atoms: C_22  and  C_23 
REMARK       I    between atoms: C_23  and  N_24 
ROOT
HETATM    1  N   UNL     1      42.282 -14.521   5.959  1.00  0.00    -0.061 N 
HETATM    2  H   UNL     1      42.247 -14.331   6.967  1.00  0.00     0.280 HD
HETATM    3  C   UNL     1      40.864 -14.891   5.548  1.00  0.00     0.276 C 
HETATM    4  C   UNL     1      40.689 -14.929   4.052  1.00  0.00     0.002 A 
HETATM    5  C   UNL     1      41.351 -15.912   3.317  1.00  0.00     0.076 A 
HETATM    6  O   UNL     1      42.119 -16.843   3.959  1.00  0.00    -0.349 OA
HETATM    7  C   UNL     1      43.357 -16.256   4.403  1.00  0.00     0.203 C 
HETATM    8  C   UNL     1      43.245 -15.696   5.827  1.00  0.00     0.262 C 
HETATM    9  C   UNL     1      40.009 -13.911   3.355  1.00  0.00     0.020 A 
HETATM   10  C   UNL     1      40.004 -13.869   1.945  1.00  0.00    -0.032 A 
HETATM   11  C   UNL     1      40.642 -14.906   1.245  1.00  0.00     0.011 A 
HETATM   12  C   UNL     1      41.290 -15.937   1.929  1.00  0.00     0.038 A 
ENDROOT
BRANCH  10  13
HETATM   13  C   UNL     1      39.477 -12.634   1.243  1.00  0.00     0.273 C 
BRANCH  13  14
HETATM   14  N   UNL     1      39.641 -12.559  -0.250  1.00  0.00    -0.066 N 
HETATM   15  H   UNL     1      40.031 -13.467  -0.568  1.00  0.00     0.280 HD
HETATM   16  C   UNL     1      38.328 -12.414  -0.994  1.00  0.00     0.249 C 
HETATM   17  C   UNL     1      38.560 -12.469  -2.507  1.00  0.00     0.103 C 
HETATM   18  C   UNL     1      39.586 -11.420  -2.941  1.00  0.00     0.017 C 
HETATM   19  C   UNL     1      40.883 -11.517  -2.137  1.00  0.00     0.029 C 
HETATM   20  C   UNL     1      40.638 -11.491  -0.636  1.00  0.00     0.235 C 
BRANCH  17  21
HETATM   21  C   UNL     1      39.025 -13.863  -2.886  1.00  0.00     0.221 C 
HETATM   22  N   UNL     1      38.078 -14.833  -2.894  1.00  0.00    -0.370 N 
HETATM   23  H   UNL     1      37.118 -14.701  -2.596  1.00  0.00     0.159 HD
HETATM   24  H   UNL     1      38.344 -15.778  -3.154  1.00  0.00     0.159 HD
HETATM   25  O   UNL     1      40.182 -14.074  -3.246  1.00  0.00    -0.273 OA
ENDBRANCH  17  21
ENDBRANCH  13  14
ENDBRANCH  10  13
BRANCH   1  26
HETATM   26  C   UNL     1      42.720 -13.231   5.311  1.00  0.00     0.274 C 
BRANCH  26  27
HETATM   27  C   UNL     1      42.960 -12.052   6.209  1.00  0.00    -0.026 A 
HETATM   28  C   UNL     1      44.251 -11.899   6.754  1.00  0.00     0.016 A 
HETATM   29  C   UNL     1      44.616 -10.765   7.490  1.00  0.00    -0.056 A 
HETATM   30  C   UNL     1      43.671  -9.745   7.673  1.00  0.00    -0.056 A 
HETATM   31  C   UNL     1      46.033 -10.635   7.982  1.00  0.00     0.049 C 
HETATM   32  C   UNL     1      44.020  -8.469   8.395  1.00  0.00     0.049 C 
HETATM   33  C   UNL     1      42.368  -9.918   7.179  1.00  0.00     0.014 A 
HETATM   34  C   UNL     1      41.998 -11.052   6.436  1.00  0.00    -0.053 A 
HETATM   35  C   UNL     1      40.587 -11.133   5.920  1.00  0.00     0.049 C 
ENDBRANCH  26  27
ENDBRANCH   1  26
TORSDOF 5
ENDMDL
MODEL 9
REMARK VINA RESULT:      -8.1     16.356     18.250
REMARK  5 active torsions:
REMARK  status: ('A' for Active; 'I' for Inactive)
REMARK    1  A    between atoms: C_6  and  C_7 
REMARK    2  A    between atoms: C_7  and  N_8 
REMARK    3  A    between atoms: C_17  and  C_18 
REMARK    4  A    between atoms: C_18  and  N_19 
REMARK    5  A    between atoms: C_22  and  C_23 
REMARK       I    between atoms: C_23  and  N_24 
ROOT
HETATM    1  N   UNL     1      44.000 -30.782  -2.197  1.00  0.00    -0.061 N 
HETATM    2  H   UNL     1      43.005 -30.998  -2.322  1.00  0.00     0.280 HD
HETATM    3  C   UNL     1      44.087 -29.277  -1.995  1.00  0.00     0.276 C 
HETATM    4  C   UNL     1      45.448 -28.836  -1.522  1.00  0.00     0.002 A 
HETATM    5  C   UNL     1      46.538 -28.965  -2.381  1.00  0.00     0.076 A 
HETATM    6  O   UNL     1      46.359 -29.455  -3.644  1.00  0.00    -0.349 OA
HETATM    7  C   UNL     1      46.143 -30.878  -3.607  1.00  0.00     0.203 C 
HETATM    8  C   UNL     1      44.652 -31.228  -3.501  1.00  0.00     0.262 C 
HETATM    9  C   UNL     1      45.683 -28.448  -0.189  1.00  0.00     0.020 A 
HETATM   10  C   UNL     1      46.991 -28.207   0.282  1.00  0.00    -0.032 A 
HETATM   11  C   UNL     1      48.055 -28.301  -0.630  1.00  0.00     0.011 A 
HETATM   12  C   UNL     1      47.827 -28.653  -1.962  1.00  0.00     0.038 A 
ENDROOT
BRANCH  10  13
HETATM   13  C   UNL     1      47.224 -28.034   1.769  1.00  0.00     0.273 C 
BRANCH  13  14
HETATM   14  N   UNL     1      47.875 -29.170   2.508  1.00  0.00    -0.066 N 
HETATM   15  H   UNL     1      48.415 -29.725   1.817  1.00  0.00     0.280 HD
HETATM   16  C   UNL     1      48.897 -28.717   3.532  1.00  0.00     0.249 C 
HETATM   17  C   UNL     1      49.606 -29.923   4.154  1.00  0.00     0.103 C 
HETATM   18  C   UNL     1      48.593 -30.905   4.748  1.00  0.00     0.017 C 
HETATM   19  C   UNL     1      47.517 -31.304   3.738  1.00  0.00     0.029 C 
HETATM   20  C   UNL     1      46.841 -30.097   3.105  1.00  0.00     0.235 C 
BRANCH  17  21
HETATM   21  C   UNL     1      50.451 -30.603   3.092  1.00  0.00     0.221 C 
HETATM   22  N   UNL     1      50.908 -31.844   3.389  1.00  0.00    -0.370 N 
HETATM   23  H   UNL     1      50.785 -32.302   4.284  1.00  0.00     0.159 HD
HETATM   24  H   UNL     1      51.468 -32.339   2.700  1.00  0.00     0.159 HD
HETATM   25  O   UNL     1      50.636 -30.081   1.994  1.00  0.00    -0.273 OA
ENDBRANCH  17  21
ENDBRANCH  13  14
ENDBRANCH  10  13
BRANCH   1  26
HETATM   26  C   UNL     1      44.430 -31.526  -0.957  1.00  0.00     0.274 C 
BRANCH  26  27
HETATM   27  C   UNL     1      43.375 -31.833   0.067  1.00  0.00    -0.026 A 
HETATM   28  C   UNL     1      43.163 -30.885   1.089  1.00  0.00     0.016 A 
HETATM   29  C   UNL     1      42.115 -31.009   2.010  1.00  0.00    -0.056 A 
HETATM   30  C   UNL     1      41.242 -32.102   1.898  1.00  0.00    -0.056 A 
HETATM   31  C   UNL     1      41.905 -29.924   3.031  1.00  0.00     0.049 C 
HETATM   32  C   UNL     1      40.056 -32.257   2.813  1.00  0.00     0.049 C 
HETATM   33  C   UNL     1      41.484 -33.076   0.916  1.00  0.00     0.014 A 
HETATM   34  C   UNL     1      42.531 -32.954  -0.013  1.00  0.00    -0.053 A 
HETATM   35  C   UNL     1      42.689 -34.033  -1.049  1.00  0.00     0.049 C 
ENDBRANCH  26  27
ENDBRANCH   1  26
TORSDOF 5
ENDMDL
MODEL 10
REMARK VINA RESULT:      -8.1      2.093      2.662
REMARK  5 active torsions:
REMARK  status: ('A' for Active; 'I' for Inactive)
REMARK    1  A    between atoms: C_6  and  C_7 
REMARK    2  A    between atoms: C_7  and  N_8 
REMARK    3  A    between atoms: C_17  and  C_18 
REMARK    4  A    between atoms: C_18  and  N_19 
REMARK    5  A    between atoms: C_22  and  C_23 
REMARK       I    between atoms: C_23  and  N_24 
ROOT
HETATM    1  N   UNL     1      40.144 -13.716   4.305  1.00  0.00    -0.061 N 
HETATM    2  H   UNL     1      39.852 -14.692   4.420  1.00  0.00     0.280 HD
HETATM    3  C   UNL     1      39.729 -12.996   5.579  1.00  0.00     0.276 C 
HETATM    4  C   UNL     1      40.332 -11.619   5.687  1.00  0.00     0.002 A 
HETATM    5  C   UNL     1      39.933 -10.633   4.786  1.00  0.00     0.076 A 
HETATM    6  O   UNL     1      38.984 -10.913   3.842  1.00  0.00    -0.349 OA
HETATM    7  C   UNL     1      39.539 -11.730   2.795  1.00  0.00     0.203 C 
HETATM    8  C   UNL     1      39.368 -13.227   3.087  1.00  0.00     0.262 C 
HETATM    9  C   UNL     1      41.399 -11.339   6.562  1.00  0.00     0.020 A 
HETATM   10  C   UNL     1      42.067 -10.097   6.526  1.00  0.00    -0.032 A 
HETATM   11  C   UNL     1      41.601  -9.115   5.637  1.00  0.00     0.011 A 
HETATM   12  C   UNL     1      40.522  -9.374   4.788  1.00  0.00     0.038 A 
ENDROOT
BRANCH  10  13
HETATM   13  C   UNL     1      43.356  -9.926   7.305  1.00  0.00     0.273 C 
BRANCH  13  14
HETATM   14  N   UNL     1      43.249  -9.491   8.740  1.00  0.00    -0.066 N 
HETATM   15  H   UNL     1      43.738  -8.579   8.827  1.00  0.00     0.280 HD
HETATM   16  C   UNL     1      41.825  -9.216   9.183  1.00  0.00     0.249 C 
HETATM   17  C   UNL     1      41.805  -8.660  10.609  1.00  0.00     0.103 C 
HETATM   18  C   UNL     1      42.535  -9.599  11.572  1.00  0.00     0.017 C 
HETATM   19  C   UNL     1      43.945  -9.937  11.087  1.00  0.00     0.029 C 
HETATM   20  C   UNL     1      43.956 -10.460   9.659  1.00  0.00     0.235 C 
BRANCH  17  21
HETATM   21  C   UNL     1      42.444  -7.283  10.613  1.00  0.00     0.221 C 
HETATM   22  N   UNL     1      42.433  -6.617  11.794  1.00  0.00    -0.370 N 
HETATM   23  H   UNL     1      41.968  -6.944  12.633  1.00  0.00     0.159 HD
HETATM   24  H   UNL     1      42.862  -5.698  11.844  1.00  0.00     0.159 HD
HETATM   25  O   UNL     1      43.012  -6.841   9.616  1.00  0.00    -0.273 OA
ENDBRANCH  17  21
ENDBRANCH  13  14
ENDBRANCH  10  13
BRANCH   1  26
HETATM   26  C   UNL     1      41.646 -13.749   4.161  1.00  0.00     0.274 C 
BRANCH  26  27
HETATM   27  C   UNL     1      42.330 -15.073   4.348  1.00  0.00    -0.026 A 
HETATM   28  C   UNL     1      42.177 -16.036   3.328  1.00  0.00     0.016 A 
HETATM   29  C   UNL     1      42.882 -17.245   3.340  1.00  0.00    -0.056 A 
HETATM   30  C   UNL     1      43.778 -17.496   4.390  1.00  0.00    -0.056 A 
HETATM   31  C   UNL     1      42.724 -18.197   2.184  1.00  0.00     0.049 C 
HETATM   32  C   UNL     1      44.617 -18.747   4.426  1.00  0.00     0.049 C 
HETATM   33  C   UNL     1      43.890 -16.565   5.435  1.00  0.00     0.014 A 
HETATM   34  C   UNL     1      43.189 -15.347   5.425  1.00  0.00    -0.053 A 
HETATM   35  C   UNL     1      43.401 -14.398   6.573  1.00  0.00     0.049 C 
ENDBRANCH  26  27
ENDBRANCH   1  26
TORSDOF 5
ENDMDL
