MODEL 1
REMARK VINA RESULT:      -9.8      0.000      0.000
REMARK  3 active torsions:
REMARK  status: ('A' for Active; 'I' for Inactive)
REMARK    1  A    between atoms: C_5  and  C_6 
REMARK    2  A    between atoms: C_10  and  N_11 
REMARK    3  A    between atoms: N_11  and  N_12 
ROOT
HETATM    1  N   UNL     1      39.789 -14.389   0.597  1.00  0.00    -0.261 N 
HETATM    2  H   UNL     1      39.418 -13.631   1.176  1.00  0.00     0.191 HD
ENDROOT
BRANCH   1   3
HETATM    3  C   UNL     1      40.818 -15.124   1.092  1.00  0.00     0.140 A 
HETATM    4  N   UNL     1      42.117 -14.760   0.890  1.00  0.00    -0.261 N 
HETATM    5  N   UNL     1      43.015 -15.582   1.450  1.00  0.00    -0.172 NA
HETATM    6  H   UNL     1      42.464 -13.962   0.374  1.00  0.00     0.191 HD
HETATM    7  C   UNL     1      42.277 -16.533   2.052  1.00  0.00     0.090 A 
HETATM    8  C   UNL     1      40.888 -16.282   1.837  1.00  0.00     0.085 A 
BRANCH   7   9
HETATM    9  C   UNL     1      42.919 -17.614   2.820  1.00  0.00    -0.006 A 
HETATM   10  C   UNL     1      43.296 -17.402   4.158  1.00  0.00     0.014 A 
HETATM   11  C   UNL     1      43.851 -18.429   4.929  1.00  0.00     0.007 A 
HETATM   12  C   UNL     1      44.050 -19.697   4.379  1.00  0.00    -0.062 A 
HETATM   13  C   UNL     1      44.597 -20.820   5.211  1.00  0.00     0.048 C 
HETATM   14  C   UNL     1      43.701 -19.913   3.040  1.00  0.00     0.007 A 
HETATM   15  C   UNL     1      43.143 -18.883   2.269  1.00  0.00     0.014 A 
ENDBRANCH   7   9
ENDBRANCH   1   3
BRANCH   1  16
HETATM   16  N   UNL     1      39.618 -14.263  -0.753  1.00  0.00    -0.166 NA
HETATM   17  C   UNL     1      39.789 -13.091  -1.301  1.00  0.00     0.169 C 
HETATM   18  C   UNL     1      39.711 -12.948  -2.809  1.00  0.00     0.278 C 
HETATM   19  C   UNL     1      40.038 -11.851  -0.519  1.00  0.00     0.067 C 
HETATM   20  O   UNL     1      39.218 -13.846  -3.485  1.00  0.00    -0.265 OA
HETATM   21  N   UNL     1      40.117 -11.780  -3.428  1.00  0.00    -0.319 N 
HETATM   22  C   UNL     1      40.763 -10.600  -2.972  1.00  0.00     0.064 A 
HETATM   23  H   UNL     1      39.909 -11.818  -4.420  1.00  0.00     0.169 HD
HETATM   24  C   UNL     1      41.290 -10.390  -1.675  1.00  0.00     0.084 A 
HETATM   25  C   UNL     1      40.886  -9.572  -3.921  1.00  0.00     0.032 A 
HETATM   26  C   UNL     1      41.949  -9.189  -1.381  1.00  0.00     0.034 A 
HETATM   27  N   UNL     1      41.227 -11.363  -0.662  1.00  0.00    -0.249 NA
HETATM   28  C   UNL     1      42.058  -8.181  -2.336  1.00  0.00     0.002 A 
HETATM   29  C   UNL     1      41.520  -8.368  -3.604  1.00  0.00     0.002 A 
HETATM   30  C   UNL     1      38.832 -11.069  -0.090  1.00  0.00     0.073 C 
ENDBRANCH   1  16
TORSDOF 3
ENDMDL
MODEL 2
REMARK VINA RESULT:      -9.5      2.329      3.703
REMARK  3 active torsions:
REMARK  status: ('A' for Active; 'I' for Inactive)
REMARK    1  A    between atoms: C_5  and  C_6 
REMARK    2  A    between atoms: C_10  and  N_11 
REMARK    3  A    between atoms: N_11  and  N_12 
ROOT
HETATM    1  N   UNL     1      42.101 -11.938   2.189  1.00  0.00    -0.261 N 
HETATM    2  H   UNL     1      42.740 -11.525   1.505  1.00  0.00     0.191 HD
ENDROOT
BRANCH   1   3
HETATM    3  C   UNL     1      42.436 -13.136   2.733  1.00  0.00     0.140 A 
HETATM    4  N   UNL     1      42.571 -13.295   4.080  1.00  0.00    -0.261 N 
HETATM    5  N   UNL     1      42.894 -14.538   4.461  1.00  0.00    -0.172 NA
HETATM    6  H   UNL     1      42.462 -12.593   4.802  1.00  0.00     0.191 HD
HETATM    7  C   UNL     1      42.973 -15.236   3.313  1.00  0.00     0.090 A 
HETATM    8  C   UNL     1      42.701 -14.380   2.202  1.00  0.00     0.085 A 
BRANCH   7   9
HETATM    9  C   UNL     1      43.277 -16.677   3.324  1.00  0.00    -0.006 A 
HETATM   10  C   UNL     1      43.881 -17.262   4.451  1.00  0.00     0.014 A 
HETATM   11  C   UNL     1      44.126 -18.638   4.515  1.00  0.00     0.007 A 
HETATM   12  C   UNL     1      43.776 -19.467   3.447  1.00  0.00    -0.062 A 
HETATM   13  C   UNL     1      43.986 -20.952   3.525  1.00  0.00     0.048 C 
HETATM   14  C   UNL     1      43.195 -18.893   2.310  1.00  0.00     0.007 A 
HETATM   15  C   UNL     1      42.950 -17.513   2.248  1.00  0.00     0.014 A 
ENDBRANCH   7   9
ENDBRANCH   1   3
BRANCH   1  16
HETATM   16  N   UNL     1      40.790 -11.562   2.100  1.00  0.00    -0.166 NA
HETATM   17  C   UNL     1      40.142 -11.805   0.994  1.00  0.00     0.169 C 
HETATM   18  C   UNL     1      38.658 -11.496   0.909  1.00  0.00     0.278 C 
HETATM   19  C   UNL     1      40.785 -12.356  -0.229  1.00  0.00     0.067 C 
HETATM   20  O   UNL     1      38.134 -10.774   1.751  1.00  0.00    -0.265 OA
HETATM   21  N   UNL     1      37.903 -11.956  -0.155  1.00  0.00    -0.319 N 
HETATM   22  C   UNL     1      38.168 -12.831  -1.242  1.00  0.00     0.064 A 
HETATM   23  H   UNL     1      36.962 -11.582  -0.104  1.00  0.00     0.169 HD
HETATM   24  C   UNL     1      39.346 -13.593  -1.427  1.00  0.00     0.084 A 
HETATM   25  C   UNL     1      37.141 -12.939  -2.195  1.00  0.00     0.032 A 
HETATM   26  C   UNL     1      39.448 -14.456  -2.526  1.00  0.00     0.034 A 
HETATM   27  N   UNL     1      40.421 -13.562  -0.522  1.00  0.00    -0.249 NA
HETATM   28  C   UNL     1      38.419 -14.547  -3.462  1.00  0.00     0.002 A 
HETATM   29  C   UNL     1      37.269 -13.783  -3.301  1.00  0.00     0.002 A 
HETATM   30  C   UNL     1      41.345 -11.363  -1.204  1.00  0.00     0.073 C 
ENDBRANCH   1  16
TORSDOF 3
ENDMDL
MODEL 3
REMARK VINA RESULT:      -9.3      6.214      8.006
REMARK  3 active torsions:
REMARK  status: ('A' for Active; 'I' for Inactive)
REMARK    1  A    between atoms: C_5  and  C_6 
REMARK    2  A    between atoms: C_10  and  N_11 
REMARK    3  A    between atoms: N_11  and  N_12 
ROOT
HETATM    1  N   UNL     1      43.072 -11.773   3.830  1.00  0.00    -0.261 N 
HETATM    2  H   UNL     1      43.534 -11.101   3.212  1.00  0.00     0.191 HD
ENDROOT
BRANCH   1   3
HETATM    3  C   UNL     1      43.022 -13.072   3.436  1.00  0.00     0.140 A 
HETATM    4  N   UNL     1      42.649 -13.419   2.171  1.00  0.00    -0.261 N 
HETATM    5  N   UNL     1      42.660 -14.738   1.934  1.00  0.00    -0.172 NA
HETATM    6  H   UNL     1      42.367 -12.807   1.417  1.00  0.00     0.191 HD
HETATM    7  C   UNL     1      43.063 -15.289   3.095  1.00  0.00     0.090 A 
HETATM    8  C   UNL     1      43.289 -14.268   4.067  1.00  0.00     0.085 A 
BRANCH   7   9
HETATM    9  C   UNL     1      43.236 -16.747   3.219  1.00  0.00    -0.006 A 
HETATM   10  C   UNL     1      42.909 -17.590   2.142  1.00  0.00     0.014 A 
HETATM   11  C   UNL     1      43.120 -18.972   2.210  1.00  0.00     0.007 A 
HETATM   12  C   UNL     1      43.661 -19.548   3.361  1.00  0.00    -0.062 A 
HETATM   13  C   UNL     1      43.940 -21.022   3.425  1.00  0.00     0.048 C 
HETATM   14  C   UNL     1      43.969 -18.721   4.448  1.00  0.00     0.007 A 
HETATM   15  C   UNL     1      43.757 -17.336   4.378  1.00  0.00     0.014 A 
ENDBRANCH   7   9
ENDBRANCH   1   3
BRANCH   1  16
HETATM   16  N   UNL     1      42.121 -11.271   4.673  1.00  0.00    -0.166 NA
HETATM   17  C   UNL     1      42.435 -11.067   5.923  1.00  0.00     0.169 C 
HETATM   18  C   UNL     1      41.432 -10.409   6.852  1.00  0.00     0.278 C 
HETATM   19  C   UNL     1      43.738 -11.469   6.516  1.00  0.00     0.067 C 
HETATM   20  O   UNL     1      40.253 -10.329   6.522  1.00  0.00    -0.265 OA
HETATM   21  N   UNL     1      41.816  -9.970   8.106  1.00  0.00    -0.319 N 
HETATM   22  C   UNL     1      43.068  -9.863   8.768  1.00  0.00     0.064 A 
HETATM   23  H   UNL     1      41.008  -9.646   8.626  1.00  0.00     0.169 HD
HETATM   24  C   UNL     1      44.337 -10.097   8.188  1.00  0.00     0.084 A 
HETATM   25  C   UNL     1      43.007  -9.473  10.117  1.00  0.00     0.032 A 
HETATM   26  C   UNL     1      45.495  -9.903   8.952  1.00  0.00     0.034 A 
HETATM   27  N   UNL     1      44.501 -10.477   6.844  1.00  0.00    -0.249 NA
HETATM   28  C   UNL     1      45.413  -9.518  10.290  1.00  0.00     0.002 A 
HETATM   29  C   UNL     1      44.169  -9.311  10.874  1.00  0.00     0.002 A 
HETATM   30  C   UNL     1      43.818 -12.847   7.101  1.00  0.00     0.073 C 
ENDBRANCH   1  16
TORSDOF 3
ENDMDL
MODEL 4
REMARK VINA RESULT:      -9.2      8.848     10.361
REMARK  3 active torsions:
REMARK  status: ('A' for Active; 'I' for Inactive)
REMARK    1  A    between atoms: C_5  and  C_6 
REMARK    2  A    between atoms: C_10  and  N_11 
REMARK    3  A    between atoms: N_11  and  N_12 
ROOT
HETATM    1  N   UNL     1      43.730 -11.385   7.540  1.00  0.00    -0.261 N 
HETATM    2  H   UNL     1      43.500 -10.452   7.187  1.00  0.00     0.191 HD
ENDROOT
BRANCH   1   3
HETATM    3  C   UNL     1      43.359 -12.458   6.794  1.00  0.00     0.140 A 
HETATM    4  N   UNL     1      42.065 -12.644   6.408  1.00  0.00    -0.261 N 
HETATM    5  N   UNL     1      41.861 -13.743   5.669  1.00  0.00    -0.172 NA
HETATM    6  H   UNL     1      41.265 -12.061   6.618  1.00  0.00     0.191 HD
HETATM    7  C   UNL     1      43.078 -14.309   5.558  1.00  0.00     0.090 A 
HETATM    8  C   UNL     1      44.044 -13.531   6.266  1.00  0.00     0.085 A 
BRANCH   7   9
HETATM    9  C   UNL     1      43.270 -15.540   4.772  1.00  0.00    -0.006 A 
HETATM   10  C   UNL     1      43.792 -16.693   5.383  1.00  0.00     0.014 A 
HETATM   11  C   UNL     1      43.929 -17.893   4.677  1.00  0.00     0.007 A 
HETATM   12  C   UNL     1      43.550 -17.970   3.335  1.00  0.00    -0.062 A 
HETATM   13  C   UNL     1      43.643 -19.265   2.582  1.00  0.00     0.048 C 
HETATM   14  C   UNL     1      43.050 -16.822   2.709  1.00  0.00     0.007 A 
HETATM   15  C   UNL     1      42.913 -15.619   3.419  1.00  0.00     0.014 A 
ENDBRANCH   7   9
ENDBRANCH   1   3
BRANCH   1  16
HETATM   16  N   UNL     1      43.881 -11.503   8.893  1.00  0.00    -0.166 NA
HETATM   17  C   UNL     1      43.771 -10.434   9.633  1.00  0.00     0.169 C 
HETATM   18  C   UNL     1      43.827 -10.557  11.144  1.00  0.00     0.278 C 
HETATM   19  C   UNL     1      43.616  -9.064   9.074  1.00  0.00     0.067 C 
HETATM   20  O   UNL     1      44.249 -11.587  11.660  1.00  0.00    -0.265 OA
HETATM   21  N   UNL     1      43.481  -9.488  11.950  1.00  0.00    -0.319 N 
HETATM   22  C   UNL     1      42.919  -8.208  11.698  1.00  0.00     0.064 A 
HETATM   23  H   UNL     1      43.665  -9.709  12.923  1.00  0.00     0.169 HD
HETATM   24  C   UNL     1      42.433  -7.745  10.451  1.00  0.00     0.084 A 
HETATM   25  C   UNL     1      42.840  -7.352  12.809  1.00  0.00     0.032 A 
HETATM   26  C   UNL     1      41.857  -6.472  10.362  1.00  0.00     0.034 A 
HETATM   27  N   UNL     1      42.457  -8.533   9.287  1.00  0.00    -0.249 NA
HETATM   28  C   UNL     1      41.790  -5.637  11.476  1.00  0.00     0.002 A 
HETATM   29  C   UNL     1      42.289  -6.074  12.698  1.00  0.00     0.002 A 
HETATM   30  C   UNL     1      44.877  -8.301   8.798  1.00  0.00     0.073 C 
ENDBRANCH   1  16
TORSDOF 3
ENDMDL
MODEL 5
REMARK VINA RESULT:      -9.0      9.951     12.009
REMARK  3 active torsions:
REMARK  status: ('A' for Active; 'I' for Inactive)
REMARK    1  A    between atoms: C_5  and  C_6 
REMARK    2  A    between atoms: C_10  and  N_11 
REMARK    3  A    between atoms: N_11  and  N_12 
ROOT
HETATM    1  N   UNL     1      44.101  -9.728   8.767  1.00  0.00    -0.261 N 
HETATM    2  H   UNL     1      45.022 -10.154   8.634  1.00  0.00     0.191 HD
ENDROOT
BRANCH   1   3
HETATM    3  C   UNL     1      43.625  -9.622  10.035  1.00  0.00     0.140 A 
HETATM    4  N   UNL     1      43.195 -10.714  10.729  1.00  0.00    -0.261 N 
HETATM    5  N   UNL     1      42.765 -10.447  11.969  1.00  0.00    -0.172 NA
HETATM    6  H   UNL     1      43.162 -11.675  10.414  1.00  0.00     0.191 HD
HETATM    7  C   UNL     1      42.920  -9.116  12.104  1.00  0.00     0.090 A 
HETATM    8  C   UNL     1      43.449  -8.562  10.899  1.00  0.00     0.085 A 
BRANCH   7   9
HETATM    9  C   UNL     1      42.584  -8.441  13.369  1.00  0.00    -0.006 A 
HETATM   10  C   UNL     1      41.555  -8.944  14.186  1.00  0.00     0.014 A 
HETATM   11  C   UNL     1      41.255  -8.360  15.421  1.00  0.00     0.007 A 
HETATM   12  C   UNL     1      41.974  -7.250  15.871  1.00  0.00    -0.062 A 
HETATM   13  C   UNL     1      41.695  -6.647  17.217  1.00  0.00     0.048 C 
HETATM   14  C   UNL     1      42.984  -6.726  15.056  1.00  0.00     0.007 A 
HETATM   15  C   UNL     1      43.285  -7.314  13.818  1.00  0.00     0.014 A 
ENDBRANCH   7   9
ENDBRANCH   1   3
BRANCH   1  16
HETATM   16  N   UNL     1      43.238  -9.801   7.710  1.00  0.00    -0.166 NA
HETATM   17  C   UNL     1      43.290 -10.845   6.928  1.00  0.00     0.169 C 
HETATM   18  C   UNL     1      42.272 -11.001   5.814  1.00  0.00     0.278 C 
HETATM   19  C   UNL     1      44.326 -11.905   7.047  1.00  0.00     0.067 C 
HETATM   20  O   UNL     1      41.592 -10.041   5.467  1.00  0.00    -0.265 OA
HETATM   21  N   UNL     1      42.157 -12.196   5.128  1.00  0.00    -0.319 N 
HETATM   22  C   UNL     1      42.731 -13.484   5.296  1.00  0.00     0.064 A 
HETATM   23  H   UNL     1      41.502 -12.098   4.360  1.00  0.00     0.169 HD
HETATM   24  C   UNL     1      43.538 -13.899   6.382  1.00  0.00     0.084 A 
HETATM   25  C   UNL     1      42.441 -14.413   4.282  1.00  0.00     0.032 A 
HETATM   26  C   UNL     1      43.995 -15.222   6.440  1.00  0.00     0.034 A 
HETATM   27  N   UNL     1      43.871 -13.048   7.450  1.00  0.00    -0.249 NA
HETATM   28  C   UNL     1      43.698 -16.127   5.423  1.00  0.00     0.002 A 
HETATM   29  C   UNL     1      42.928 -15.720   4.339  1.00  0.00     0.002 A 
HETATM   30  C   UNL     1      45.588 -11.709   6.262  1.00  0.00     0.073 C 
ENDBRANCH   1  16
TORSDOF 3
ENDMDL
MODEL 6
REMARK VINA RESULT:      -8.7      3.626      4.690
REMARK  3 active torsions:
REMARK  status: ('A' for Active; 'I' for Inactive)
REMARK    1  A    between atoms: C_5  and  C_6 
REMARK    2  A    between atoms: C_10  and  N_11 
REMARK    3  A    between atoms: N_11  and  N_12 
ROOT
HETATM    1  N   UNL     1      40.782 -14.021   0.940  1.00  0.00    -0.261 N 
HETATM    2  H   UNL     1      39.789 -14.156   1.147  1.00  0.00     0.191 HD
ENDROOT
BRANCH   1   3
HETATM    3  C   UNL     1      41.658 -14.962   1.379  1.00  0.00     0.140 A 
HETATM    4  N   UNL     1      42.994 -14.867   1.121  1.00  0.00    -0.261 N 
HETATM    5  N   UNL     1      43.727 -15.866   1.629  1.00  0.00    -0.172 NA
HETATM    6  H   UNL     1      43.475 -14.148   0.596  1.00  0.00     0.191 HD
HETATM    7  C   UNL     1      42.837 -16.657   2.257  1.00  0.00     0.090 A 
HETATM    8  C   UNL     1      41.521 -16.122   2.109  1.00  0.00     0.085 A 
BRANCH   7   9
HETATM    9  C   UNL     1      43.275 -17.862   2.983  1.00  0.00    -0.006 A 
HETATM   10  C   UNL     1      43.633 -17.776   4.340  1.00  0.00     0.014 A 
HETATM   11  C   UNL     1      43.994 -18.913   5.071  1.00  0.00     0.007 A 
HETATM   12  C   UNL     1      44.013 -20.169   4.460  1.00  0.00    -0.062 A 
HETATM   13  C   UNL     1      44.349 -21.402   5.246  1.00  0.00     0.048 C 
HETATM   14  C   UNL     1      43.682 -20.263   3.103  1.00  0.00     0.007 A 
HETATM   15  C   UNL     1      43.319 -19.122   2.372  1.00  0.00     0.014 A 
ENDBRANCH   7   9
ENDBRANCH   1   3
BRANCH   1  16
HETATM   16  N   UNL     1      41.194 -12.733   0.744  1.00  0.00    -0.166 NA
HETATM   17  C   UNL     1      41.049 -11.873   1.715  1.00  0.00     0.169 C 
HETATM   18  C   UNL     1      41.596 -10.466   1.561  1.00  0.00     0.278 C 
HETATM   19  C   UNL     1      40.343 -12.185   2.986  1.00  0.00     0.067 C 
HETATM   20  O   UNL     1      41.913 -10.051   0.451  1.00  0.00    -0.265 OA
HETATM   21  N   UNL     1      41.667  -9.616   2.649  1.00  0.00    -0.319 N 
HETATM   22  C   UNL     1      41.441  -9.780   4.042  1.00  0.00     0.064 A 
HETATM   23  H   UNL     1      41.964  -8.692   2.353  1.00  0.00     0.169 HD
HETATM   24  C   UNL     1      41.181 -11.005   4.702  1.00  0.00     0.084 A 
HETATM   25  C   UNL     1      41.502  -8.605   4.808  1.00  0.00     0.032 A 
HETATM   26  C   UNL     1      41.028 -11.023   6.094  1.00  0.00     0.034 A 
HETATM   27  N   UNL     1      41.114 -12.235   4.024  1.00  0.00    -0.249 NA
HETATM   28  C   UNL     1      41.090  -9.845   6.836  1.00  0.00     0.002 A 
HETATM   29  C   UNL     1      41.319  -8.634   6.192  1.00  0.00     0.002 A 
HETATM   30  C   UNL     1      38.867 -11.922   3.022  1.00  0.00     0.073 C 
ENDBRANCH   1  16
TORSDOF 3
ENDMDL
MODEL 7
REMARK VINA RESULT:      -8.7      2.095      2.823
REMARK  3 active torsions:
REMARK  status: ('A' for Active; 'I' for Inactive)
REMARK    1  A    between atoms: C_5  and  C_6 
REMARK    2  A    between atoms: C_10  and  N_11 
REMARK    3  A    between atoms: N_11  and  N_12 
ROOT
HETATM    1  N   UNL     1      40.574 -13.863   0.624  1.00  0.00    -0.261 N 
HETATM    2  H   UNL     1      39.597 -13.953   0.915  1.00  0.00     0.191 HD
ENDROOT
BRANCH   1   3
HETATM    3  C   UNL     1      41.486 -14.700   1.184  1.00  0.00     0.140 A 
HETATM    4  N   UNL     1      42.811 -14.383   1.229  1.00  0.00    -0.261 N 
HETATM    5  N   UNL     1      43.580 -15.306   1.821  1.00  0.00    -0.172 NA
HETATM    6  H   UNL     1      43.263 -13.553   0.867  1.00  0.00     0.191 HD
HETATM    7  C   UNL     1      42.724 -16.278   2.189  1.00  0.00     0.090 A 
HETATM    8  C   UNL     1      41.397 -15.933   1.792  1.00  0.00     0.085 A 
BRANCH   7   9
HETATM    9  C   UNL     1      43.199 -17.468   2.916  1.00  0.00    -0.006 A 
HETATM   10  C   UNL     1      43.624 -17.356   4.252  1.00  0.00     0.014 A 
HETATM   11  C   UNL     1      44.022 -18.478   4.986  1.00  0.00     0.007 A 
HETATM   12  C   UNL     1      44.010 -19.746   4.400  1.00  0.00    -0.062 A 
HETATM   13  C   UNL     1      44.386 -20.964   5.193  1.00  0.00     0.048 C 
HETATM   14  C   UNL     1      43.611 -19.867   3.063  1.00  0.00     0.007 A 
HETATM   15  C   UNL     1      43.212 -18.740   2.329  1.00  0.00     0.014 A 
ENDBRANCH   7   9
ENDBRANCH   1   3
BRANCH   1  16
HETATM   16  N   UNL     1      40.959 -12.638   0.155  1.00  0.00    -0.166 NA
HETATM   17  C   UNL     1      40.273 -12.093  -0.812  1.00  0.00     0.169 C 
HETATM   18  C   UNL     1      40.613 -10.689  -1.277  1.00  0.00     0.278 C 
HETATM   19  C   UNL     1      39.166 -12.787  -1.522  1.00  0.00     0.067 C 
HETATM   20  O   UNL     1      41.683 -10.181  -0.957  1.00  0.00    -0.265 OA
HETATM   21  N   UNL     1      39.764 -10.003  -2.126  1.00  0.00    -0.319 N 
HETATM   22  C   UNL     1      38.464 -10.262  -2.634  1.00  0.00     0.064 A 
HETATM   23  H   UNL     1      40.186  -9.126  -2.409  1.00  0.00     0.169 HD
HETATM   24  C   UNL     1      37.620 -11.332  -2.252  1.00  0.00     0.084 A 
HETATM   25  C   UNL     1      37.995  -9.347  -3.592  1.00  0.00     0.032 A 
HETATM   26  C   UNL     1      36.336 -11.434  -2.803  1.00  0.00     0.034 A 
HETATM   27  N   UNL     1      37.994 -12.290  -1.293  1.00  0.00    -0.249 NA
HETATM   28  C   UNL     1      35.891 -10.517  -3.754  1.00  0.00     0.002 A 
HETATM   29  C   UNL     1      36.724  -9.478  -4.155  1.00  0.00     0.002 A 
HETATM   30  C   UNL     1      39.538 -13.592  -2.732  1.00  0.00     0.073 C 
ENDBRANCH   1  16
TORSDOF 3
ENDMDL
MODEL 8
REMARK VINA RESULT:      -8.6      8.951     10.626
REMARK  3 active torsions:
REMARK  status: ('A' for Active; 'I' for Inactive)
REMARK    1  A    between atoms: C_5  and  C_6 
REMARK    2  A    between atoms: C_10  and  N_11 
REMARK    3  A    between atoms: N_11  and  N_12 
ROOT
HETATM    1  N   UNL     1      42.536 -10.739   7.311  1.00  0.00    -0.261 N 
HETATM    2  H   UNL     1      41.593 -10.551   7.659  1.00  0.00     0.191 HD
ENDROOT
BRANCH   1   3
HETATM    3  C   UNL     1      42.676 -11.632   6.297  1.00  0.00     0.140 A 
HETATM    4  N   UNL     1      43.026 -11.234   5.041  1.00  0.00    -0.261 N 
HETATM    5  N   UNL     1      43.133 -12.233   4.154  1.00  0.00    -0.172 NA
HETATM    6  H   UNL     1      43.202 -10.293   4.714  1.00  0.00     0.191 HD
HETATM    7  C   UNL     1      42.844 -13.344   4.857  1.00  0.00     0.090 A 
HETATM    8  C   UNL     1      42.539 -13.000   6.209  1.00  0.00     0.085 A 
BRANCH   7   9
HETATM    9  C   UNL     1      42.893 -14.674   4.224  1.00  0.00    -0.006 A 
HETATM   10  C   UNL     1      43.069 -14.786   2.833  1.00  0.00     0.014 A 
HETATM   11  C   UNL     1      43.180 -16.035   2.212  1.00  0.00     0.007 A 
HETATM   12  C   UNL     1      43.113 -17.208   2.967  1.00  0.00    -0.062 A 
HETATM   13  C   UNL     1      43.283 -18.551   2.320  1.00  0.00     0.048 C 
HETATM   14  C   UNL     1      42.915 -17.109   4.350  1.00  0.00     0.007 A 
HETATM   15  C   UNL     1      42.804 -15.856   4.971  1.00  0.00     0.014 A 
ENDBRANCH   7   9
ENDBRANCH   1   3
BRANCH   1  16
HETATM   16  N   UNL     1      43.563 -10.526   8.189  1.00  0.00    -0.166 NA
HETATM   17  C   UNL     1      43.353  -9.762   9.225  1.00  0.00     0.169 C 
HETATM   18  C   UNL     1      44.441  -9.597  10.270  1.00  0.00     0.278 C 
HETATM   19  C   UNL     1      42.092  -9.004   9.442  1.00  0.00     0.067 C 
HETATM   20  O   UNL     1      45.591  -9.938  10.015  1.00  0.00    -0.265 OA
HETATM   21  N   UNL     1      44.166  -8.992  11.483  1.00  0.00    -0.319 N 
HETATM   22  C   UNL     1      42.974  -8.542  12.109  1.00  0.00     0.064 A 
HETATM   23  H   UNL     1      45.020  -8.879  12.019  1.00  0.00     0.169 HD
HETATM   24  C   UNL     1      41.657  -8.740  11.628  1.00  0.00     0.084 A 
HETATM   25  C   UNL     1      43.149  -7.852  13.320  1.00  0.00     0.032 A 
HETATM   26  C   UNL     1      40.568  -8.282  12.380  1.00  0.00     0.034 A 
HETATM   27  N   UNL     1      41.380  -9.429  10.434  1.00  0.00    -0.249 NA
HETATM   28  C   UNL     1      40.764  -7.598  13.579  1.00  0.00     0.002 A 
HETATM   29  C   UNL     1      42.055  -7.375  14.045  1.00  0.00     0.002 A 
HETATM   30  C   UNL     1      42.029  -7.620   8.867  1.00  0.00     0.073 C 
ENDBRANCH   1  16
TORSDOF 3
ENDMDL
MODEL 9
REMARK VINA RESULT:      -8.6      8.758     10.686
REMARK  3 active torsions:
REMARK  status: ('A' for Active; 'I' for Inactive)
REMARK    1  A    between atoms: C_5  and  C_6 
REMARK    2  A    between atoms: C_10  and  N_11 
REMARK    3  A    between atoms: N_11  and  N_12 
ROOT
HETATM    1  N   UNL     1      42.618 -10.267   7.147  1.00  0.00    -0.261 N 
HETATM    2  H   UNL     1      43.457 -10.457   6.593  1.00  0.00     0.191 HD
ENDROOT
BRANCH   1   3
HETATM    3  C   UNL     1      42.761 -10.122   8.490  1.00  0.00     0.140 A 
HETATM    4  N   UNL     1      43.646 -10.879   9.199  1.00  0.00    -0.261 N 
HETATM    5  N   UNL     1      43.677 -10.610  10.511  1.00  0.00    -0.172 NA
HETATM    6  H   UNL     1      44.260 -11.605   8.851  1.00  0.00     0.191 HD
HETATM    7  C   UNL     1      42.773  -9.627  10.678  1.00  0.00     0.090 A 
HETATM    8  C   UNL     1      42.168  -9.303   9.426  1.00  0.00     0.085 A 
BRANCH   7   9
HETATM    9  C   UNL     1      42.545  -9.028  12.005  1.00  0.00    -0.006 A 
HETATM   10  C   UNL     1      41.508  -9.507  12.826  1.00  0.00     0.014 A 
HETATM   11  C   UNL     1      41.306  -9.000  14.114  1.00  0.00     0.007 A 
HETATM   12  C   UNL     1      42.134  -7.994  14.615  1.00  0.00    -0.062 A 
HETATM   13  C   UNL     1      41.960  -7.479  16.014  1.00  0.00     0.048 C 
HETATM   14  C   UNL     1      43.155  -7.493  13.798  1.00  0.00     0.007 A 
HETATM   15  C   UNL     1      43.357  -8.003  12.507  1.00  0.00     0.014 A 
ENDBRANCH   7   9
ENDBRANCH   1   3
BRANCH   1  16
HETATM   16  N   UNL     1      41.431 -10.695   6.622  1.00  0.00    -0.166 NA
HETATM   17  C   UNL     1      41.438 -11.706   5.797  1.00  0.00     0.169 C 
HETATM   18  C   UNL     1      40.125 -12.269   5.286  1.00  0.00     0.278 C 
HETATM   19  C   UNL     1      42.684 -12.344   5.294  1.00  0.00     0.067 C 
HETATM   20  O   UNL     1      39.091 -11.619   5.411  1.00  0.00    -0.265 OA
HETATM   21  N   UNL     1      40.091 -13.473   4.607  1.00  0.00    -0.319 N 
HETATM   22  C   UNL     1      41.059 -14.477   4.339  1.00  0.00     0.064 A 
HETATM   23  H   UNL     1      39.156 -13.651   4.256  1.00  0.00     0.169 HD
HETATM   24  C   UNL     1      42.374 -14.524   4.862  1.00  0.00     0.084 A 
HETATM   25  C   UNL     1      40.639 -15.511   3.486  1.00  0.00     0.032 A 
HETATM   26  C   UNL     1      43.205 -15.607   4.550  1.00  0.00     0.034 A 
HETATM   27  N   UNL     1      42.881 -13.545   5.734  1.00  0.00    -0.249 NA
HETATM   28  C   UNL     1      42.769 -16.622   3.699  1.00  0.00     0.002 A 
HETATM   29  C   UNL     1      41.489 -16.570   3.161  1.00  0.00     0.002 A 
HETATM   30  C   UNL     1      43.270 -11.781   4.034  1.00  0.00     0.073 C 
ENDBRANCH   1  16
TORSDOF 3
ENDMDL
MODEL 10
REMARK VINA RESULT:      -8.5      3.611      8.641
REMARK  3 active torsions:
REMARK  status: ('A' for Active; 'I' for Inactive)
REMARK    1  A    between atoms: C_5  and  C_6 
REMARK    2  A    between atoms: C_10  and  N_11 
REMARK    3  A    between atoms: N_11  and  N_12 
ROOT
HETATM    1  N   UNL     1      40.297 -12.928   4.802  1.00  0.00    -0.261 N 
HETATM    2  H   UNL     1      39.424 -13.115   5.303  1.00  0.00     0.191 HD
ENDROOT
BRANCH   1   3
HETATM    3  C   UNL     1      40.256 -12.876   3.446  1.00  0.00     0.140 A 
HETATM    4  N   UNL     1      41.144 -12.125   2.734  1.00  0.00    -0.261 N 
HETATM    5  N   UNL     1      40.980 -12.187   1.406  1.00  0.00    -0.172 NA
HETATM    6  H   UNL     1      41.888 -11.540   3.091  1.00  0.00     0.191 HD
HETATM    7  C   UNL     1      39.937 -13.019   1.230  1.00  0.00     0.090 A 
HETATM    8  C   UNL     1      39.448 -13.463   2.496  1.00  0.00     0.085 A 
BRANCH   7   9
HETATM    9  C   UNL     1      39.471 -13.371  -0.123  1.00  0.00    -0.006 A 
HETATM   10  C   UNL     1      39.830 -14.604  -0.694  1.00  0.00     0.014 A 
HETATM   11  C   UNL     1      39.353 -14.991  -1.951  1.00  0.00     0.007 A 
HETATM   12  C   UNL     1      38.505 -14.150  -2.674  1.00  0.00    -0.062 A 
HETATM   13  C   UNL     1      37.945 -14.576  -4.000  1.00  0.00     0.048 C 
HETATM   14  C   UNL     1      38.159 -12.909  -2.126  1.00  0.00     0.007 A 
HETATM   15  C   UNL     1      38.638 -12.523  -0.865  1.00  0.00     0.014 A 
ENDBRANCH   7   9
ENDBRANCH   1   3
BRANCH   1  16
HETATM   16  N   UNL     1      41.453 -13.272   5.445  1.00  0.00    -0.166 NA
HETATM   17  C   UNL     1      41.935 -14.472   5.269  1.00  0.00     0.169 C 
HETATM   18  C   UNL     1      43.272 -14.842   5.884  1.00  0.00     0.278 C 
HETATM   19  C   UNL     1      41.229 -15.534   4.505  1.00  0.00     0.067 C 
HETATM   20  O   UNL     1      43.759 -14.136   6.762  1.00  0.00    -0.265 OA
HETATM   21  N   UNL     1      43.913 -16.013   5.522  1.00  0.00    -0.319 N 
HETATM   22  C   UNL     1      43.667 -17.003   4.535  1.00  0.00     0.064 A 
HETATM   23  H   UNL     1      44.739 -16.150   6.094  1.00  0.00     0.169 HD
HETATM   24  C   UNL     1      42.677 -16.941   3.524  1.00  0.00     0.084 A 
HETATM   25  C   UNL     1      44.508 -18.127   4.582  1.00  0.00     0.032 A 
HETATM   26  C   UNL     1      42.582 -17.973   2.583  1.00  0.00     0.034 A 
HETATM   27  N   UNL     1      41.798 -15.852   3.387  1.00  0.00    -0.249 NA
HETATM   28  C   UNL     1      43.425 -19.081   2.648  1.00  0.00     0.002 A 
HETATM   29  C   UNL     1      44.383 -19.163   3.653  1.00  0.00     0.002 A 
HETATM   30  C   UNL     1      40.297 -16.418   5.279  1.00  0.00     0.073 C 
ENDBRANCH   1  16
TORSDOF 3
ENDMDL
