MODEL 1
REMARK VINA RESULT:      -9.0      0.000      0.000
REMARK  9 active torsions:
REMARK  status: ('A' for Active; 'I' for Inactive)
REMARK    1  A    between atoms: C_2  and  N_3 
REMARK    2  A    between atoms: N_3  and  C_4 
REMARK    3  A    between atoms: N_3  and  C_34 
REMARK    4  A    between atoms: C_6  and  O_7 
REMARK    5  A    between atoms: C_8  and  C_9 
REMARK    6  A    between atoms: N_10  and  N_11 
REMARK       I    between atoms: N_11  and  C_12 
REMARK    7  A    between atoms: C_12  and  C_13 
REMARK    8  A    between atoms: C_16  and  N_17 
REMARK    9  A    between atoms: C_21  and  C_22 
ROOT
HETATM    1  C   UNL     1      43.821 -10.750   7.791  1.00  0.00     0.033 A 
HETATM    2  C   UNL     1      44.756 -11.530   7.101  1.00  0.00     0.019 A 
HETATM    3  C   UNL     1      44.467 -11.990   5.809  1.00  0.00     0.030 A 
HETATM    4  C   UNL     1      43.245 -11.696   5.180  1.00  0.00     0.034 A 
HETATM    5  C   UNL     1      42.313 -10.936   5.897  1.00  0.00     0.030 A 
HETATM    6  C   UNL     1      42.595 -10.465   7.185  1.00  0.00     0.019 A 
ENDROOT
BRANCH   1   7
HETATM    7  C   UNL     1      44.064 -10.243   9.173  1.00  0.00     0.271 C 
HETATM    8  N   UNL     1      43.253  -9.183   9.567  1.00  0.00    -0.243 N 
HETATM    9  H   UNL     1      42.384  -9.045   9.062  1.00  0.00     0.192 HD
HETATM   10  O   UNL     1      44.912 -10.799   9.865  1.00  0.00    -0.266 OA
BRANCH   8  11
HETATM   11  N   UNL     1      43.228  -8.640  10.826  1.00  0.00    -0.183 NA
HETATM   12  C   UNL     1      42.354  -9.102  11.668  1.00  0.00     0.153 C 
BRANCH  12  13
HETATM   13  C   UNL     1      42.214  -8.533  13.026  1.00  0.00     0.016 A 
HETATM   14  C   UNL     1      41.209  -8.971  13.881  1.00  0.00     0.079 A 
HETATM   15  C   UNL     1      41.074  -8.416  15.163  1.00  0.00     0.066 A 
HETATM   16  C   UNL     1      41.927  -7.400  15.638  1.00  0.00     0.032 A 
HETATM   17  C   UNL     1      42.934  -6.986  14.746  1.00  0.00     0.030 A 
HETATM   18  C   UNL     1      43.082  -7.536  13.464  1.00  0.00     0.018 A 
BRANCH  14  19
HETATM   19  O   UNL     1      40.343  -9.950  13.476  1.00  0.00    -0.360 OA
HETATM   20  H   UNL     1      39.734 -10.161  14.202  1.00  0.00     0.217 HD
ENDBRANCH  14  19
BRANCH  16  21
HETATM   21  N   UNL     1      41.788  -6.845  16.908  1.00  0.00    -0.382 N 
BRANCH  21  22
HETATM   22  C   UNL     1      41.611  -5.400  17.114  1.00  0.00     0.118 C 
HETATM   23  C   UNL     1      40.410  -4.885  16.334  1.00  0.00     0.026 C 
ENDBRANCH  21  22
BRANCH  21  24
HETATM   24  C   UNL     1      41.744  -7.667  18.127  1.00  0.00     0.118 C 
HETATM   25  C   UNL     1      40.321  -7.770  18.657  1.00  0.00     0.026 C 
ENDBRANCH  21  24
ENDBRANCH  16  21
ENDBRANCH  12  13
ENDBRANCH   8  11
ENDBRANCH   1   7
BRANCH   4  26
HETATM   26  N   UNL     1      42.996 -12.237   3.907  1.00  0.00    -0.335 N 
HETATM   27  C   UNL     1      42.927 -13.540   3.543  1.00  0.00     0.171 A 
HETATM   28  S   UNL     1      42.473 -13.933   1.922  1.00  0.00    -0.061 SA
HETATM   29  N   UNL     1      43.204 -14.587   4.285  1.00  0.00    -0.223 NA
HETATM   30  C   UNL     1      42.665 -15.600   2.268  1.00  0.00     0.085 A 
HETATM   31  C   UNL     1      43.068 -15.772   3.576  1.00  0.00     0.076 A 
HETATM   32  H   UNL     1      42.842 -11.553   3.177  1.00  0.00     0.168 HD
BRANCH  31  33
HETATM   33  C   UNL     1      43.357 -17.058   4.213  1.00  0.00    -0.007 A 
HETATM   34  C   UNL     1      43.211 -17.272   5.592  1.00  0.00     0.014 A 
HETATM   35  C   UNL     1      43.491 -18.522   6.155  1.00  0.00     0.001 A 
HETATM   36  C   UNL     1      43.920 -19.575   5.350  1.00  0.00     0.000 A 
HETATM   37  C   UNL     1      44.072 -19.380   3.981  1.00  0.00     0.001 A 
HETATM   38  C   UNL     1      43.792 -18.132   3.419  1.00  0.00     0.014 A 
ENDBRANCH  31  33
ENDBRANCH   4  26
TORSDOF 9
ENDMDL
MODEL 2
REMARK VINA RESULT:      -8.7      0.647      1.349
REMARK  9 active torsions:
REMARK  status: ('A' for Active; 'I' for Inactive)
REMARK    1  A    between atoms: C_2  and  N_3 
REMARK    2  A    between atoms: N_3  and  C_4 
REMARK    3  A    between atoms: N_3  and  C_34 
REMARK    4  A    between atoms: C_6  and  O_7 
REMARK    5  A    between atoms: C_8  and  C_9 
REMARK    6  A    between atoms: N_10  and  N_11 
REMARK       I    between atoms: N_11  and  C_12 
REMARK    7  A    between atoms: C_12  and  C_13 
REMARK    8  A    between atoms: C_16  and  N_17 
REMARK    9  A    between atoms: C_21  and  C_22 
ROOT
HETATM    1  C   UNL     1      43.609 -10.996   7.575  1.00  0.00     0.033 A 
HETATM    2  C   UNL     1      42.288 -11.160   7.142  1.00  0.00     0.019 A 
HETATM    3  C   UNL     1      42.029 -11.613   5.841  1.00  0.00     0.030 A 
HETATM    4  C   UNL     1      43.070 -11.905   4.943  1.00  0.00     0.034 A 
HETATM    5  C   UNL     1      44.383 -11.710   5.387  1.00  0.00     0.030 A 
HETATM    6  C   UNL     1      44.653 -11.265   6.687  1.00  0.00     0.019 A 
ENDROOT
BRANCH   1   7
HETATM    7  C   UNL     1      43.948 -10.503   8.941  1.00  0.00     0.271 C 
HETATM    8  N   UNL     1      42.926  -9.828   9.600  1.00  0.00    -0.243 N 
HETATM    9  H   UNL     1      41.976  -9.987   9.280  1.00  0.00     0.192 HD
HETATM   10  O   UNL     1      45.061 -10.751   9.398  1.00  0.00    -0.266 OA
BRANCH   8  11
HETATM   11  N   UNL     1      42.982  -9.393  10.900  1.00  0.00    -0.183 NA
HETATM   12  C   UNL     1      41.866  -9.066  11.478  1.00  0.00     0.153 C 
BRANCH  12  13
HETATM   13  C   UNL     1      41.839  -8.528  12.856  1.00  0.00     0.016 A 
HETATM   14  C   UNL     1      40.931  -9.013  13.791  1.00  0.00     0.079 A 
HETATM   15  C   UNL     1      40.902  -8.488  15.092  1.00  0.00     0.066 A 
HETATM   16  C   UNL     1      41.768  -7.457  15.509  1.00  0.00     0.032 A 
HETATM   17  C   UNL     1      42.674  -6.995  14.536  1.00  0.00     0.030 A 
HETATM   18  C   UNL     1      42.716  -7.515  13.233  1.00  0.00     0.018 A 
BRANCH  14  19
HETATM   19  O   UNL     1      40.059 -10.009  13.447  1.00  0.00    -0.360 OA
HETATM   20  H   UNL     1      40.513 -10.865  13.498  1.00  0.00     0.217 HD
ENDBRANCH  14  19
BRANCH  16  21
HETATM   21  N   UNL     1      41.733  -6.932  16.798  1.00  0.00    -0.382 N 
BRANCH  21  22
HETATM   22  C   UNL     1      41.685  -5.484  17.051  1.00  0.00     0.118 C 
HETATM   23  C   UNL     1      42.111  -5.168  18.477  1.00  0.00     0.026 C 
ENDBRANCH  21  22
BRANCH  21  24
HETATM   24  C   UNL     1      41.679  -7.784  17.995  1.00  0.00     0.118 C 
HETATM   25  C   UNL     1      40.238  -8.022  18.424  1.00  0.00     0.026 C 
ENDBRANCH  21  24
ENDBRANCH  16  21
ENDBRANCH  12  13
ENDBRANCH   8  11
ENDBRANCH   1   7
BRANCH   4  26
HETATM   26  N   UNL     1      42.739 -12.300   3.635  1.00  0.00    -0.335 N 
HETATM   27  C   UNL     1      42.695 -13.551   3.117  1.00  0.00     0.171 A 
HETATM   28  S   UNL     1      42.125 -13.767   1.500  1.00  0.00    -0.061 SA
HETATM   29  N   UNL     1      43.077 -14.664   3.699  1.00  0.00    -0.223 NA
HETATM   30  C   UNL     1      42.416 -15.452   1.618  1.00  0.00     0.085 A 
HETATM   31  C   UNL     1      42.933 -15.760   2.860  1.00  0.00     0.076 A 
HETATM   32  H   UNL     1      42.496 -11.542   3.011  1.00  0.00     0.168 HD
BRANCH  31  33
HETATM   33  C   UNL     1      43.328 -17.097   3.307  1.00  0.00    -0.007 A 
HETATM   34  C   UNL     1      43.341 -18.210   2.453  1.00  0.00     0.014 A 
HETATM   35  C   UNL     1      43.734 -19.468   2.923  1.00  0.00     0.001 A 
HETATM   36  C   UNL     1      44.118 -19.632   4.252  1.00  0.00     0.000 A 
HETATM   37  C   UNL     1      44.110 -18.539   5.114  1.00  0.00     0.001 A 
HETATM   38  C   UNL     1      43.717 -17.284   4.644  1.00  0.00     0.014 A 
ENDBRANCH  31  33
ENDBRANCH   4  26
TORSDOF 9
ENDMDL
MODEL 3
REMARK VINA RESULT:      -8.4      3.343     12.811
REMARK  9 active torsions:
REMARK  status: ('A' for Active; 'I' for Inactive)
REMARK    1  A    between atoms: C_2  and  N_3 
REMARK    2  A    between atoms: N_3  and  C_4 
REMARK    3  A    between atoms: N_3  and  C_34 
REMARK    4  A    between atoms: C_6  and  O_7 
REMARK    5  A    between atoms: C_8  and  C_9 
REMARK    6  A    between atoms: N_10  and  N_11 
REMARK       I    between atoms: N_11  and  C_12 
REMARK    7  A    between atoms: C_12  and  C_13 
REMARK    8  A    between atoms: C_16  and  N_17 
REMARK    9  A    between atoms: C_21  and  C_22 
ROOT
HETATM    1  C   UNL     1      43.813  -9.637   8.320  1.00  0.00     0.033 A 
HETATM    2  C   UNL     1      44.662  -8.540   8.511  1.00  0.00     0.019 A 
HETATM    3  C   UNL     1      44.126  -7.288   8.839  1.00  0.00     0.030 A 
HETATM    4  C   UNL     1      42.740  -7.094   8.976  1.00  0.00     0.034 A 
HETATM    5  C   UNL     1      41.907  -8.197   8.756  1.00  0.00     0.030 A 
HETATM    6  C   UNL     1      42.433  -9.454   8.435  1.00  0.00     0.019 A 
ENDROOT
BRANCH   1   7
HETATM    7  C   UNL     1      44.322 -10.991   7.955  1.00  0.00     0.271 C 
HETATM    8  N   UNL     1      43.412 -11.807   7.291  1.00  0.00    -0.243 N 
HETATM    9  H   UNL     1      42.630 -11.357   6.827  1.00  0.00     0.192 HD
HETATM   10  O   UNL     1      45.485 -11.276   8.224  1.00  0.00    -0.266 OA
BRANCH   8  11
HETATM   11  N   UNL     1      43.702 -13.041   6.765  1.00  0.00    -0.183 NA
HETATM   12  C   UNL     1      42.828 -13.583   5.972  1.00  0.00     0.153 C 
BRANCH  12  13
HETATM   13  C   UNL     1      43.030 -14.936   5.411  1.00  0.00     0.016 A 
HETATM   14  C   UNL     1      43.225 -16.031   6.246  1.00  0.00     0.079 A 
HETATM   15  C   UNL     1      43.430 -17.310   5.705  1.00  0.00     0.066 A 
HETATM   16  C   UNL     1      43.458 -17.545   4.316  1.00  0.00     0.032 A 
HETATM   17  C   UNL     1      43.254 -16.414   3.504  1.00  0.00     0.030 A 
HETATM   18  C   UNL     1      43.043 -15.131   4.033  1.00  0.00     0.018 A 
BRANCH  14  19
HETATM   19  O   UNL     1      43.215 -15.867   7.604  1.00  0.00    -0.360 OA
HETATM   20  H   UNL     1      42.632 -15.126   7.834  1.00  0.00     0.217 HD
ENDBRANCH  14  19
BRANCH  16  21
HETATM   21  N   UNL     1      43.668 -18.813   3.781  1.00  0.00    -0.382 N 
BRANCH  21  22
HETATM   22  C   UNL     1      43.047 -19.241   2.518  1.00  0.00     0.118 C 
HETATM   23  C   UNL     1      43.865 -20.342   1.858  1.00  0.00     0.026 C 
ENDBRANCH  21  22
BRANCH  21  24
HETATM   24  C   UNL     1      44.573 -19.791   4.403  1.00  0.00     0.118 C 
HETATM   25  C   UNL     1      43.792 -20.792   5.242  1.00  0.00     0.026 C 
ENDBRANCH  21  24
ENDBRANCH  16  21
ENDBRANCH  12  13
ENDBRANCH   8  11
ENDBRANCH   1   7
BRANCH   4  26
HETATM   26  N   UNL     1      42.266  -5.800   9.250  1.00  0.00    -0.335 N 
HETATM   27  C   UNL     1      42.048  -5.218  10.453  1.00  0.00     0.171 A 
HETATM   28  S   UNL     1      41.582  -3.554  10.506  1.00  0.00    -0.061 SA
HETATM   29  N   UNL     1      42.116  -5.788  11.634  1.00  0.00    -0.223 NA
HETATM   30  C   UNL     1      41.477  -3.633  12.215  1.00  0.00     0.085 A 
HETATM   31  C   UNL     1      41.787  -4.904  12.652  1.00  0.00     0.076 A 
HETATM   32  H   UNL     1      42.073  -5.237   8.432  1.00  0.00     0.168 HD
BRANCH  31  33
HETATM   33  C   UNL     1      41.776  -5.348  14.048  1.00  0.00    -0.007 A 
HETATM   34  C   UNL     1      41.152  -4.618  15.071  1.00  0.00     0.014 A 
HETATM   35  C   UNL     1      41.159  -5.085  16.389  1.00  0.00     0.001 A 
HETATM   36  C   UNL     1      41.789  -6.287  16.705  1.00  0.00     0.000 A 
HETATM   37  C   UNL     1      42.414  -7.024  15.703  1.00  0.00     0.001 A 
HETATM   38  C   UNL     1      42.406  -6.557  14.386  1.00  0.00     0.014 A 
ENDBRANCH  31  33
ENDBRANCH   4  26
TORSDOF 9
ENDMDL
MODEL 4
REMARK VINA RESULT:      -8.3      2.011      2.581
REMARK  9 active torsions:
REMARK  status: ('A' for Active; 'I' for Inactive)
REMARK    1  A    between atoms: C_2  and  N_3 
REMARK    2  A    between atoms: N_3  and  C_4 
REMARK    3  A    between atoms: N_3  and  C_34 
REMARK    4  A    between atoms: C_6  and  O_7 
REMARK    5  A    between atoms: C_8  and  C_9 
REMARK    6  A    between atoms: N_10  and  N_11 
REMARK       I    between atoms: N_11  and  C_12 
REMARK    7  A    between atoms: C_12  and  C_13 
REMARK    8  A    between atoms: C_16  and  N_17 
REMARK    9  A    between atoms: C_21  and  C_22 
ROOT
HETATM    1  C   UNL     1      40.073 -10.567   6.868  1.00  0.00     0.033 A 
HETATM    2  C   UNL     1      39.120 -11.361   6.221  1.00  0.00     0.019 A 
HETATM    3  C   UNL     1      39.399 -11.905   4.960  1.00  0.00     0.030 A 
HETATM    4  C   UNL     1      40.623 -11.666   4.311  1.00  0.00     0.034 A 
HETATM    5  C   UNL     1      41.553 -10.848   4.963  1.00  0.00     0.030 A 
HETATM    6  C   UNL     1      41.287 -10.307   6.227  1.00  0.00     0.019 A 
ENDROOT
BRANCH   1   7
HETATM    7  C   UNL     1      39.830  -9.950   8.204  1.00  0.00     0.271 C 
HETATM    8  N   UNL     1      40.955  -9.412   8.822  1.00  0.00    -0.243 N 
HETATM    9  H   UNL     1      41.750  -9.185   8.234  1.00  0.00     0.192 HD
HETATM   10  O   UNL     1      38.683  -9.924   8.641  1.00  0.00    -0.266 OA
BRANCH   8  11
HETATM   11  N   UNL     1      40.941  -8.700   9.995  1.00  0.00    -0.183 NA
HETATM   12  C   UNL     1      41.546  -9.213  11.023  1.00  0.00     0.153 C 
BRANCH  12  13
HETATM   13  C   UNL     1      41.528  -8.545  12.342  1.00  0.00     0.016 A 
HETATM   14  C   UNL     1      40.325  -8.244  12.971  1.00  0.00     0.079 A 
HETATM   15  C   UNL     1      40.316  -7.597  14.216  1.00  0.00     0.066 A 
HETATM   16  C   UNL     1      41.501  -7.217  14.877  1.00  0.00     0.032 A 
HETATM   17  C   UNL     1      42.698  -7.541  14.211  1.00  0.00     0.030 A 
HETATM   18  C   UNL     1      42.720  -8.192  12.968  1.00  0.00     0.018 A 
BRANCH  14  19
HETATM   19  O   UNL     1      39.139  -8.582  12.378  1.00  0.00    -0.360 OA
HETATM   20  H   UNL     1      39.303  -8.847  11.459  1.00  0.00     0.217 HD
ENDBRANCH  14  19
BRANCH  16  21
HETATM   21  N   UNL     1      41.490  -6.568  16.109  1.00  0.00    -0.382 N 
BRANCH  21  22
HETATM   22  C   UNL     1      41.725  -7.286  17.372  1.00  0.00     0.118 C 
HETATM   23  C   UNL     1      40.435  -7.906  17.890  1.00  0.00     0.026 C 
ENDBRANCH  21  22
BRANCH  21  24
HETATM   24  C   UNL     1      41.308  -5.115  16.234  1.00  0.00     0.118 C 
HETATM   25  C   UNL     1      41.712  -4.637  17.621  1.00  0.00     0.026 C 
ENDBRANCH  21  24
ENDBRANCH  16  21
ENDBRANCH  12  13
ENDBRANCH   8  11
ENDBRANCH   1   7
BRANCH   4  26
HETATM   26  N   UNL     1      40.816 -12.193   3.022  1.00  0.00    -0.335 N 
HETATM   27  C   UNL     1      41.335 -13.394   2.671  1.00  0.00     0.171 A 
HETATM   28  S   UNL     1      41.336 -13.849   1.004  1.00  0.00    -0.061 SA
HETATM   29  N   UNL     1      41.890 -14.281   3.464  1.00  0.00    -0.223 NA
HETATM   30  C   UNL     1      42.127 -15.316   1.400  1.00  0.00     0.085 A 
HETATM   31  C   UNL     1      42.355 -15.382   2.759  1.00  0.00     0.076 A 
HETATM   32  H   UNL     1      40.516 -11.590   2.268  1.00  0.00     0.168 HD
BRANCH  31  33
HETATM   33  C   UNL     1      43.034 -16.478   3.454  1.00  0.00    -0.007 A 
HETATM   34  C   UNL     1      43.426 -16.397   4.798  1.00  0.00     0.014 A 
HETATM   35  C   UNL     1      44.065 -17.474   5.423  1.00  0.00     0.001 A 
HETATM   36  C   UNL     1      44.320 -18.646   4.714  1.00  0.00     0.000 A 
HETATM   37  C   UNL     1      43.939 -18.743   3.379  1.00  0.00     0.001 A 
HETATM   38  C   UNL     1      43.301 -17.668   2.756  1.00  0.00     0.014 A 
ENDBRANCH  31  33
ENDBRANCH   4  26
TORSDOF 9
ENDMDL
MODEL 5
REMARK VINA RESULT:      -7.9      7.665     12.905
REMARK  9 active torsions:
REMARK  status: ('A' for Active; 'I' for Inactive)
REMARK    1  A    between atoms: C_2  and  N_3 
REMARK    2  A    between atoms: N_3  and  C_4 
REMARK    3  A    between atoms: N_3  and  C_34 
REMARK    4  A    between atoms: C_6  and  O_7 
REMARK    5  A    between atoms: C_8  and  C_9 
REMARK    6  A    between atoms: N_10  and  N_11 
REMARK       I    between atoms: N_11  and  C_12 
REMARK    7  A    between atoms: C_12  and  C_13 
REMARK    8  A    between atoms: C_16  and  N_17 
REMARK    9  A    between atoms: C_21  and  C_22 
ROOT
HETATM    1  C   UNL     1      40.909 -11.319   3.161  1.00  0.00     0.033 A 
HETATM    2  C   UNL     1      40.023 -12.212   3.774  1.00  0.00     0.019 A 
HETATM    3  C   UNL     1      40.433 -12.951   4.892  1.00  0.00     0.030 A 
HETATM    4  C   UNL     1      41.730 -12.827   5.420  1.00  0.00     0.034 A 
HETATM    5  C   UNL     1      42.609 -11.947   4.777  1.00  0.00     0.030 A 
HETATM    6  C   UNL     1      42.207 -11.199   3.665  1.00  0.00     0.019 A 
ENDROOT
BRANCH   1   7
HETATM    7  C   UNL     1      40.536 -10.516   1.962  1.00  0.00     0.271 C 
HETATM    8  N   UNL     1      41.556  -9.731   1.432  1.00  0.00    -0.243 N 
HETATM    9  H   UNL     1      42.511  -9.984   1.666  1.00  0.00     0.192 HD
HETATM   10  O   UNL     1      39.400 -10.623   1.510  1.00  0.00    -0.266 OA
BRANCH   8  11
HETATM   11  N   UNL     1      41.467  -9.006   0.272  1.00  0.00    -0.183 NA
HETATM   12  C   UNL     1      41.799  -9.594  -0.838  1.00  0.00     0.153 C 
BRANCH  12  13
HETATM   13  C   UNL     1      41.793  -8.870  -2.127  1.00  0.00     0.016 A 
HETATM   14  C   UNL     1      42.622  -7.771  -2.330  1.00  0.00     0.079 A 
HETATM   15  C   UNL     1      42.600  -7.080  -3.551  1.00  0.00     0.066 A 
HETATM   16  C   UNL     1      41.748  -7.450  -4.612  1.00  0.00     0.032 A 
HETATM   17  C   UNL     1      40.928  -8.568  -4.370  1.00  0.00     0.030 A 
HETATM   18  C   UNL     1      40.944  -9.270  -3.155  1.00  0.00     0.018 A 
BRANCH  14  19
HETATM   19  O   UNL     1      43.467  -7.358  -1.337  1.00  0.00    -0.360 OA
HETATM   20  H   UNL     1      44.069  -8.083  -1.105  1.00  0.00     0.217 HD
ENDBRANCH  14  19
BRANCH  16  21
HETATM   21  N   UNL     1      41.723  -6.759  -5.821  1.00  0.00    -0.382 N 
BRANCH  21  22
HETATM   22  C   UNL     1      40.488  -6.600  -6.603  1.00  0.00     0.118 C 
HETATM   23  C   UNL     1      40.433  -7.610  -7.740  1.00  0.00     0.026 C 
ENDBRANCH  21  22
BRANCH  21  24
HETATM   24  C   UNL     1      42.910  -6.087  -6.370  1.00  0.00     0.118 C 
HETATM   25  C   UNL     1      42.540  -4.732  -6.955  1.00  0.00     0.026 C 
ENDBRANCH  21  24
ENDBRANCH  16  21
ENDBRANCH  12  13
ENDBRANCH   8  11
ENDBRANCH   1   7
BRANCH   4  26
HETATM   26  N   UNL     1      42.095 -13.639   6.507  1.00  0.00    -0.335 N 
HETATM   27  C   UNL     1      42.597 -14.898   6.489  1.00  0.00     0.171 A 
HETATM   28  S   UNL     1      43.087 -15.624   7.978  1.00  0.00    -0.061 SA
HETATM   29  N   UNL     1      42.734 -15.682   5.445  1.00  0.00    -0.223 NA
HETATM   30  C   UNL     1      43.501 -17.063   7.145  1.00  0.00     0.085 A 
HETATM   31  C   UNL     1      43.241 -16.924   5.797  1.00  0.00     0.076 A 
HETATM   32  H   UNL     1      41.969 -13.214   7.416  1.00  0.00     0.168 HD
BRANCH  31  33
HETATM   33  C   UNL     1      43.447 -17.960   4.782  1.00  0.00    -0.007 A 
HETATM   34  C   UNL     1      43.230 -17.736   3.414  1.00  0.00     0.014 A 
HETATM   35  C   UNL     1      43.448 -18.754   2.480  1.00  0.00     0.001 A 
HETATM   36  C   UNL     1      43.884 -20.009   2.898  1.00  0.00     0.000 A 
HETATM   37  C   UNL     1      44.102 -20.249   4.251  1.00  0.00     0.001 A 
HETATM   38  C   UNL     1      43.885 -19.233   5.184  1.00  0.00     0.014 A 
ENDBRANCH  31  33
ENDBRANCH   4  26
TORSDOF 9
ENDMDL
MODEL 6
REMARK VINA RESULT:      -7.7      4.022     13.382
REMARK  9 active torsions:
REMARK  status: ('A' for Active; 'I' for Inactive)
REMARK    1  A    between atoms: C_2  and  N_3 
REMARK    2  A    between atoms: N_3  and  C_4 
REMARK    3  A    between atoms: N_3  and  C_34 
REMARK    4  A    between atoms: C_6  and  O_7 
REMARK    5  A    between atoms: C_8  and  C_9 
REMARK    6  A    between atoms: N_10  and  N_11 
REMARK       I    between atoms: N_11  and  C_12 
REMARK    7  A    between atoms: C_12  and  C_13 
REMARK    8  A    between atoms: C_16  and  N_17 
REMARK    9  A    between atoms: C_21  and  C_22 
ROOT
HETATM    1  C   UNL     1      42.637  -8.824  13.092  1.00  0.00     0.033 A 
HETATM    2  C   UNL     1      43.446  -7.701  13.298  1.00  0.00     0.019 A 
HETATM    3  C   UNL     1      43.209  -6.856  14.391  1.00  0.00     0.030 A 
HETATM    4  C   UNL     1      42.161  -7.102  15.296  1.00  0.00     0.034 A 
HETATM    5  C   UNL     1      41.348  -8.216  15.058  1.00  0.00     0.030 A 
HETATM    6  C   UNL     1      41.582  -9.070  13.973  1.00  0.00     0.019 A 
ENDROOT
BRANCH   1   7
HETATM    7  C   UNL     1      42.831  -9.752  11.940  1.00  0.00     0.271 C 
HETATM    8  N   UNL     1      42.393  -9.270  10.710  1.00  0.00    -0.243 N 
HETATM    9  H   UNL     1      42.285  -8.266  10.612  1.00  0.00     0.192 HD
HETATM   10  O   UNL     1      43.381 -10.831  12.139  1.00  0.00    -0.266 OA
BRANCH   8  11
HETATM   11  N   UNL     1      42.576  -9.905   9.508  1.00  0.00    -0.183 NA
HETATM   12  C   UNL     1      42.286  -9.249   8.426  1.00  0.00     0.153 C 
BRANCH  12  13
HETATM   13  C   UNL     1      42.393  -9.877   7.091  1.00  0.00     0.016 A 
HETATM   14  C   UNL     1      43.533 -10.586   6.728  1.00  0.00     0.079 A 
HETATM   15  C   UNL     1      43.633 -11.167   5.454  1.00  0.00     0.066 A 
HETATM   16  C   UNL     1      42.610 -11.056   4.492  1.00  0.00     0.032 A 
HETATM   17  C   UNL     1      41.472 -10.334   4.898  1.00  0.00     0.030 A 
HETATM   18  C   UNL     1      41.357  -9.753   6.169  1.00  0.00     0.018 A 
BRANCH  14  19
HETATM   19  O   UNL     1      44.565 -10.725   7.615  1.00  0.00    -0.360 OA
HETATM   20  H   UNL     1      45.307 -10.165   7.335  1.00  0.00     0.217 HD
ENDBRANCH  14  19
BRANCH  16  21
HETATM   21  N   UNL     1      42.714 -11.627   3.226  1.00  0.00    -0.382 N 
BRANCH  21  22
HETATM   22  C   UNL     1      43.379 -12.920   3.005  1.00  0.00     0.118 C 
HETATM   23  C   UNL     1      42.609 -14.047   3.679  1.00  0.00     0.026 C 
ENDBRANCH  21  22
BRANCH  21  24
HETATM   24  C   UNL     1      42.113 -11.013   2.033  1.00  0.00     0.118 C 
HETATM   25  C   UNL     1      40.816 -11.715   1.659  1.00  0.00     0.026 C 
ENDBRANCH  21  24
ENDBRANCH  16  21
ENDBRANCH  12  13
ENDBRANCH   8  11
ENDBRANCH   1   7
BRANCH   4  26
HETATM   26  N   UNL     1      41.942  -6.184  16.337  1.00  0.00    -0.335 N 
HETATM   27  C   UNL     1      42.043  -6.383  17.673  1.00  0.00     0.171 A 
HETATM   28  S   UNL     1      41.845  -5.035  18.737  1.00  0.00    -0.061 SA
HETATM   29  N   UNL     1      42.248  -7.523  18.292  1.00  0.00    -0.223 NA
HETATM   30  C   UNL     1      42.053  -6.067  20.089  1.00  0.00     0.085 A 
HETATM   31  C   UNL     1      42.251  -7.367  19.670  1.00  0.00     0.076 A 
HETATM   32  H   UNL     1      41.684  -5.254  16.035  1.00  0.00     0.168 HD
BRANCH  31  33
HETATM   33  C   UNL     1      42.437  -8.523  20.550  1.00  0.00    -0.007 A 
HETATM   34  C   UNL     1      43.645  -8.784  21.214  1.00  0.00     0.014 A 
HETATM   35  C   UNL     1      43.774  -9.897  22.052  1.00  0.00     0.001 A 
HETATM   36  C   UNL     1      42.700 -10.764  22.238  1.00  0.00     0.000 A 
HETATM   37  C   UNL     1      41.495 -10.521  21.586  1.00  0.00     0.001 A 
HETATM   38  C   UNL     1      41.366  -9.409  20.749  1.00  0.00     0.014 A 
ENDBRANCH  31  33
ENDBRANCH   4  26
TORSDOF 9
ENDMDL
MODEL 7
REMARK VINA RESULT:      -7.7      1.926      2.590
REMARK  9 active torsions:
REMARK  status: ('A' for Active; 'I' for Inactive)
REMARK    1  A    between atoms: C_2  and  N_3 
REMARK    2  A    between atoms: N_3  and  C_4 
REMARK    3  A    between atoms: N_3  and  C_34 
REMARK    4  A    between atoms: C_6  and  O_7 
REMARK    5  A    between atoms: C_8  and  C_9 
REMARK    6  A    between atoms: N_10  and  N_11 
REMARK       I    between atoms: N_11  and  C_12 
REMARK    7  A    between atoms: C_12  and  C_13 
REMARK    8  A    between atoms: C_16  and  N_17 
REMARK    9  A    between atoms: C_21  and  C_22 
ROOT
HETATM    1  C   UNL     1      41.241  -9.769   7.371  1.00  0.00     0.033 A 
HETATM    2  C   UNL     1      42.164 -10.014   6.348  1.00  0.00     0.019 A 
HETATM    3  C   UNL     1      41.771 -10.718   5.201  1.00  0.00     0.030 A 
HETATM    4  C   UNL     1      40.459 -11.200   5.049  1.00  0.00     0.034 A 
HETATM    5  C   UNL     1      39.558 -10.967   6.095  1.00  0.00     0.030 A 
HETATM    6  C   UNL     1      39.939 -10.258   7.240  1.00  0.00     0.019 A 
ENDROOT
BRANCH   1   7
HETATM    7  C   UNL     1      41.603  -9.039   8.619  1.00  0.00     0.271 C 
HETATM    8  N   UNL     1      40.528  -8.657   9.416  1.00  0.00    -0.243 N 
HETATM    9  H   UNL     1      39.651  -9.150   9.287  1.00  0.00     0.192 HD
HETATM   10  O   UNL     1      42.791  -8.859   8.875  1.00  0.00    -0.266 OA
BRANCH   8  11
HETATM   11  N   UNL     1      40.636  -8.080  10.656  1.00  0.00    -0.183 NA
HETATM   12  C   UNL     1      40.480  -8.843  11.696  1.00  0.00     0.153 C 
BRANCH  12  13
HETATM   13  C   UNL     1      40.518  -8.294  13.068  1.00  0.00     0.016 A 
HETATM   14  C   UNL     1      39.726  -7.206  13.421  1.00  0.00     0.079 A 
HETATM   15  C   UNL     1      39.778  -6.681  14.722  1.00  0.00     0.066 A 
HETATM   16  C   UNL     1      40.624  -7.212  15.716  1.00  0.00     0.032 A 
HETATM   17  C   UNL     1      41.407  -8.314  15.322  1.00  0.00     0.030 A 
HETATM   18  C   UNL     1      41.361  -8.850  14.026  1.00  0.00     0.018 A 
BRANCH  14  19
HETATM   19  O   UNL     1      38.888  -6.641  12.499  1.00  0.00    -0.360 OA
HETATM   20  H   UNL     1      39.398  -6.052  11.920  1.00  0.00     0.217 HD
ENDBRANCH  14  19
BRANCH  16  21
HETATM   21  N   UNL     1      40.679  -6.687  17.004  1.00  0.00    -0.382 N 
BRANCH  21  22
HETATM   22  C   UNL     1      41.085  -7.498  18.162  1.00  0.00     0.118 C 
HETATM   23  C   UNL     1      39.871  -8.113  18.845  1.00  0.00     0.026 C 
ENDBRANCH  21  22
BRANCH  21  24
HETATM   24  C   UNL     1      40.399  -5.272  17.291  1.00  0.00     0.118 C 
HETATM   25  C   UNL     1      41.686  -4.518  17.592  1.00  0.00     0.026 C 
ENDBRANCH  21  24
ENDBRANCH  16  21
ENDBRANCH  12  13
ENDBRANCH   8  11
ENDBRANCH   1   7
BRANCH   4  26
HETATM   26  N   UNL     1      40.146 -11.948   3.901  1.00  0.00    -0.335 N 
HETATM   27  C   UNL     1      40.463 -13.235   3.620  1.00  0.00     0.171 A 
HETATM   28  S   UNL     1      39.835 -13.955   2.181  1.00  0.00    -0.061 SA
HETATM   29  N   UNL     1      41.246 -14.029   4.314  1.00  0.00    -0.223 NA
HETATM   30  C   UNL     1      40.674 -15.407   2.536  1.00  0.00     0.085 A 
HETATM   31  C   UNL     1      41.386 -15.270   3.710  1.00  0.00     0.076 A 
HETATM   32  H   UNL     1      39.606 -11.451   3.205  1.00  0.00     0.168 HD
BRANCH  31  33
HETATM   33  C   UNL     1      42.241 -16.297   4.309  1.00  0.00    -0.007 A 
HETATM   34  C   UNL     1      43.147 -17.062   3.559  1.00  0.00     0.014 A 
HETATM   35  C   UNL     1      43.950 -18.027   4.176  1.00  0.00     0.001 A 
HETATM   36  C   UNL     1      43.859 -18.242   5.550  1.00  0.00     0.000 A 
HETATM   37  C   UNL     1      42.964 -17.494   6.308  1.00  0.00     0.001 A 
HETATM   38  C   UNL     1      42.162 -16.530   5.692  1.00  0.00     0.014 A 
ENDBRANCH  31  33
ENDBRANCH   4  26
TORSDOF 9
ENDMDL
MODEL 8
REMARK VINA RESULT:      -7.7      9.144     14.567
REMARK  9 active torsions:
REMARK  status: ('A' for Active; 'I' for Inactive)
REMARK    1  A    between atoms: C_2  and  N_3 
REMARK    2  A    between atoms: N_3  and  C_4 
REMARK    3  A    between atoms: N_3  and  C_34 
REMARK    4  A    between atoms: C_6  and  O_7 
REMARK    5  A    between atoms: C_8  and  C_9 
REMARK    6  A    between atoms: N_10  and  N_11 
REMARK       I    between atoms: N_11  and  C_12 
REMARK    7  A    between atoms: C_12  and  C_13 
REMARK    8  A    between atoms: C_16  and  N_17 
REMARK    9  A    between atoms: C_21  and  C_22 
ROOT
HETATM    1  C   UNL     1      40.405 -13.153   0.204  1.00  0.00     0.033 A 
HETATM    2  C   UNL     1      41.250 -12.201   0.785  1.00  0.00     0.019 A 
HETATM    3  C   UNL     1      41.860 -12.464   2.019  1.00  0.00     0.030 A 
HETATM    4  C   UNL     1      41.639 -13.670   2.706  1.00  0.00     0.034 A 
HETATM    5  C   UNL     1      40.770 -14.599   2.120  1.00  0.00     0.030 A 
HETATM    6  C   UNL     1      40.162 -14.349   0.885  1.00  0.00     0.019 A 
ENDROOT
BRANCH   1   7
HETATM    7  C   UNL     1      39.716 -12.925  -1.099  1.00  0.00     0.271 C 
HETATM    8  N   UNL     1      38.335 -13.096  -1.078  1.00  0.00    -0.243 N 
HETATM    9  H   UNL     1      37.870 -13.039  -0.178  1.00  0.00     0.192 HD
HETATM   10  O   UNL     1      40.386 -12.577  -2.067  1.00  0.00    -0.266 OA
BRANCH   8  11
HETATM   11  N   UNL     1      37.495 -12.829  -2.129  1.00  0.00    -0.183 NA
HETATM   12  C   UNL     1      36.981 -11.639  -2.206  1.00  0.00     0.153 C 
BRANCH  12  13
HETATM   13  C   UNL     1      36.017 -11.282  -3.270  1.00  0.00     0.016 A 
HETATM   14  C   UNL     1      36.033 -10.018  -3.849  1.00  0.00     0.079 A 
HETATM   15  C   UNL     1      35.105  -9.683  -4.848  1.00  0.00     0.066 A 
HETATM   16  C   UNL     1      34.124 -10.587  -5.301  1.00  0.00     0.032 A 
HETATM   17  C   UNL     1      34.143 -11.857  -4.693  1.00  0.00     0.030 A 
HETATM   18  C   UNL     1      35.067 -12.206  -3.697  1.00  0.00     0.018 A 
BRANCH  14  19
HETATM   19  O   UNL     1      36.957  -9.092  -3.449  1.00  0.00    -0.360 OA
HETATM   20  H   UNL     1      36.517  -8.238  -3.311  1.00  0.00     0.217 HD
ENDBRANCH  14  19
BRANCH  16  21
HETATM   21  N   UNL     1      33.201 -10.251  -6.287  1.00  0.00    -0.382 N 
BRANCH  21  22
HETATM   22  C   UNL     1      33.441 -10.533  -7.711  1.00  0.00     0.118 C 
HETATM   23  C   UNL     1      34.838 -11.098  -7.923  1.00  0.00     0.026 C 
ENDBRANCH  21  22
BRANCH  21  24
HETATM   24  C   UNL     1      31.897  -9.649  -5.974  1.00  0.00     0.118 C 
HETATM   25  C   UNL     1      31.008  -9.612  -7.209  1.00  0.00     0.026 C 
ENDBRANCH  21  24
ENDBRANCH  16  21
ENDBRANCH  12  13
ENDBRANCH   8  11
ENDBRANCH   1   7
BRANCH   4  26
HETATM   26  N   UNL     1      42.236 -13.846   3.966  1.00  0.00    -0.335 N 
HETATM   27  C   UNL     1      42.844 -14.949   4.465  1.00  0.00     0.171 A 
HETATM   28  S   UNL     1      43.616 -14.852   6.008  1.00  0.00    -0.061 SA
HETATM   29  N   UNL     1      42.896 -16.142   3.919  1.00  0.00    -0.223 NA
HETATM   30  C   UNL     1      44.033 -16.512   5.908  1.00  0.00     0.085 A 
HETATM   31  C   UNL     1      43.563 -17.050   4.728  1.00  0.00     0.076 A 
HETATM   32  H   UNL     1      42.208 -13.032   4.566  1.00  0.00     0.168 HD
BRANCH  31  33
HETATM   33  C   UNL     1      43.709 -18.448   4.316  1.00  0.00    -0.007 A 
HETATM   34  C   UNL     1      43.591 -18.861   2.981  1.00  0.00     0.014 A 
HETATM   35  C   UNL     1      43.748 -20.207   2.632  1.00  0.00     0.001 A 
HETATM   36  C   UNL     1      44.023 -21.158   3.612  1.00  0.00     0.000 A 
HETATM   37  C   UNL     1      44.142 -20.766   4.942  1.00  0.00     0.001 A 
HETATM   38  C   UNL     1      43.986 -19.422   5.289  1.00  0.00     0.014 A 
ENDBRANCH  31  33
ENDBRANCH   4  26
TORSDOF 9
ENDMDL
MODEL 9
REMARK VINA RESULT:      -7.6      9.397     13.819
REMARK  9 active torsions:
REMARK  status: ('A' for Active; 'I' for Inactive)
REMARK    1  A    between atoms: C_2  and  N_3 
REMARK    2  A    between atoms: N_3  and  C_4 
REMARK    3  A    between atoms: N_3  and  C_34 
REMARK    4  A    between atoms: C_6  and  O_7 
REMARK    5  A    between atoms: C_8  and  C_9 
REMARK    6  A    between atoms: N_10  and  N_11 
REMARK       I    between atoms: N_11  and  C_12 
REMARK    7  A    between atoms: C_12  and  C_13 
REMARK    8  A    between atoms: C_16  and  N_17 
REMARK    9  A    between atoms: C_21  and  C_22 
ROOT
HETATM    1  C   UNL     1      38.680 -12.122  -1.698  1.00  0.00     0.033 A 
HETATM    2  C   UNL     1      37.549 -12.733  -2.250  1.00  0.00     0.019 A 
HETATM    3  C   UNL     1      36.604 -11.964  -2.943  1.00  0.00     0.030 A 
HETATM    4  C   UNL     1      36.756 -10.575  -3.095  1.00  0.00     0.034 A 
HETATM    5  C   UNL     1      37.881  -9.979  -2.514  1.00  0.00     0.030 A 
HETATM    6  C   UNL     1      38.835 -10.740  -1.827  1.00  0.00     0.019 A 
ENDROOT
BRANCH   1   7
HETATM    7  C   UNL     1      39.713 -12.884  -0.938  1.00  0.00     0.271 C 
HETATM    8  N   UNL     1      39.221 -13.899  -0.124  1.00  0.00    -0.243 N 
HETATM    9  H   UNL     1      38.296 -14.260  -0.330  1.00  0.00     0.192 HD
HETATM   10  O   UNL     1      40.896 -12.600  -1.103  1.00  0.00    -0.266 OA
BRANCH   8  11
HETATM   11  N   UNL     1      39.996 -14.793   0.571  1.00  0.00    -0.183 NA
HETATM   12  C   UNL     1      40.276 -14.519   1.810  1.00  0.00     0.153 C 
BRANCH  12  13
HETATM   13  C   UNL     1      41.154 -15.394   2.614  1.00  0.00     0.016 A 
HETATM   14  C   UNL     1      42.393 -15.801   2.127  1.00  0.00     0.079 A 
HETATM   15  C   UNL     1      43.215 -16.643   2.891  1.00  0.00     0.066 A 
HETATM   16  C   UNL     1      42.834 -17.120   4.162  1.00  0.00     0.032 A 
HETATM   17  C   UNL     1      41.577 -16.684   4.621  1.00  0.00     0.030 A 
HETATM   18  C   UNL     1      40.748 -15.839   3.869  1.00  0.00     0.018 A 
BRANCH  14  19
HETATM   19  O   UNL     1      42.817 -15.377   0.898  1.00  0.00    -0.360 OA
HETATM   20  H   UNL     1      42.341 -14.567   0.655  1.00  0.00     0.217 HD
ENDBRANCH  14  19
BRANCH  16  21
HETATM   21  N   UNL     1      43.648 -17.961   4.915  1.00  0.00    -0.382 N 
BRANCH  21  22
HETATM   22  C   UNL     1      44.268 -19.166   4.343  1.00  0.00     0.118 C 
HETATM   23  C   UNL     1      44.009 -20.379   5.226  1.00  0.00     0.026 C 
ENDBRANCH  21  22
BRANCH  21  24
HETATM   24  C   UNL     1      43.999 -17.673   6.314  1.00  0.00     0.118 C 
HETATM   25  C   UNL     1      44.695 -16.325   6.429  1.00  0.00     0.026 C 
ENDBRANCH  21  24
ENDBRANCH  16  21
ENDBRANCH  12  13
ENDBRANCH   8  11
ENDBRANCH   1   7
BRANCH   4  26
HETATM   26  N   UNL     1      35.743  -9.856  -3.751  1.00  0.00    -0.335 N 
HETATM   27  C   UNL     1      34.696  -9.188  -3.210  1.00  0.00     0.171 A 
HETATM   28  S   UNL     1      33.663  -8.269  -4.246  1.00  0.00    -0.061 SA
HETATM   29  N   UNL     1      34.330  -9.175  -1.948  1.00  0.00    -0.223 NA
HETATM   30  C   UNL     1      32.687  -7.844  -2.904  1.00  0.00     0.085 A 
HETATM   31  C   UNL     1      33.183  -8.421  -1.753  1.00  0.00     0.076 A 
HETATM   32  H   UNL     1      35.822  -9.834  -4.759  1.00  0.00     0.168 HD
BRANCH  31  33
HETATM   33  C   UNL     1      32.590  -8.298  -0.419  1.00  0.00    -0.007 A 
HETATM   34  C   UNL     1      33.349  -8.376   0.758  1.00  0.00     0.014 A 
HETATM   35  C   UNL     1      32.740  -8.244   2.011  1.00  0.00     0.001 A 
HETATM   36  C   UNL     1      31.366  -8.034   2.106  1.00  0.00     0.000 A 
HETATM   37  C   UNL     1      30.598  -7.956   0.948  1.00  0.00     0.001 A 
HETATM   38  C   UNL     1      31.206  -8.087  -0.303  1.00  0.00     0.014 A 
ENDBRANCH  31  33
ENDBRANCH   4  26
TORSDOF 9
ENDMDL
MODEL 10
REMARK VINA RESULT:      -7.6      8.453     13.497
REMARK  9 active torsions:
REMARK  status: ('A' for Active; 'I' for Inactive)
REMARK    1  A    between atoms: C_2  and  N_3 
REMARK    2  A    between atoms: N_3  and  C_4 
REMARK    3  A    between atoms: N_3  and  C_34 
REMARK    4  A    between atoms: C_6  and  O_7 
REMARK    5  A    between atoms: C_8  and  C_9 
REMARK    6  A    between atoms: N_10  and  N_11 
REMARK       I    between atoms: N_11  and  C_12 
REMARK    7  A    between atoms: C_12  and  C_13 
REMARK    8  A    between atoms: C_16  and  N_17 
REMARK    9  A    between atoms: C_21  and  C_22 
ROOT
HETATM    1  C   UNL     1      41.094 -11.790   1.664  1.00  0.00     0.033 A 
HETATM    2  C   UNL     1      42.245 -11.351   2.328  1.00  0.00     0.019 A 
HETATM    3  C   UNL     1      42.668 -11.996   3.498  1.00  0.00     0.030 A 
HETATM    4  C   UNL     1      41.958 -13.083   4.037  1.00  0.00     0.034 A 
HETATM    5  C   UNL     1      40.796 -13.491   3.371  1.00  0.00     0.030 A 
HETATM    6  C   UNL     1      40.368 -12.858   2.198  1.00  0.00     0.019 A 
ENDROOT
BRANCH   1   7
HETATM    7  C   UNL     1      40.585 -11.136   0.424  1.00  0.00     0.271 C 
HETATM    8  N   UNL     1      41.274  -9.993   0.031  1.00  0.00    -0.243 N 
HETATM    9  H   UNL     1      42.216  -9.867   0.387  1.00  0.00     0.192 HD
HETATM   10  O   UNL     1      39.644 -11.652  -0.172  1.00  0.00    -0.266 OA
BRANCH   8  11
HETATM   11  N   UNL     1      41.051  -9.302  -1.133  1.00  0.00    -0.183 NA
HETATM   12  C   UNL     1      42.083  -8.959  -1.843  1.00  0.00     0.153 C 
BRANCH  12  13
HETATM   13  C   UNL     1      41.939  -8.160  -3.078  1.00  0.00     0.016 A 
HETATM   14  C   UNL     1      40.976  -8.485  -4.028  1.00  0.00     0.079 A 
HETATM   15  C   UNL     1      40.855  -7.730  -5.205  1.00  0.00     0.066 A 
HETATM   16  C   UNL     1      41.691  -6.631  -5.486  1.00  0.00     0.032 A 
HETATM   17  C   UNL     1      42.650  -6.332  -4.500  1.00  0.00     0.030 A 
HETATM   18  C   UNL     1      42.778  -7.075  -3.318  1.00  0.00     0.018 A 
BRANCH  14  19
HETATM   19  O   UNL     1      40.137  -9.545  -3.817  1.00  0.00    -0.360 OA
HETATM   20  H   UNL     1      39.857  -9.908  -4.673  1.00  0.00     0.217 HD
ENDBRANCH  14  19
BRANCH  16  21
HETATM   21  N   UNL     1      41.574  -5.888  -6.657  1.00  0.00    -0.382 N 
BRANCH  21  22
HETATM   22  C   UNL     1      42.013  -4.486  -6.740  1.00  0.00     0.118 C 
HETATM   23  C   UNL     1      40.827  -3.560  -6.966  1.00  0.00     0.026 C 
ENDBRANCH  21  22
BRANCH  21  24
HETATM   24  C   UNL     1      41.065  -6.465  -7.910  1.00  0.00     0.118 C 
HETATM   25  C   UNL     1      42.191  -7.107  -8.706  1.00  0.00     0.026 C 
ENDBRANCH  21  24
ENDBRANCH  16  21
ENDBRANCH  12  13
ENDBRANCH   8  11
ENDBRANCH   1   7
BRANCH   4  26
HETATM   26  N   UNL     1      42.405 -13.647   5.243  1.00  0.00    -0.335 N 
HETATM   27  C   UNL     1      42.901 -14.889   5.462  1.00  0.00     0.171 A 
HETATM   28  S   UNL     1      43.505 -15.284   7.032  1.00  0.00    -0.061 SA
HETATM   29  N   UNL     1      42.954 -15.884   4.606  1.00  0.00    -0.223 NA
HETATM   30  C   UNL     1      43.849 -16.878   6.503  1.00  0.00     0.085 A 
HETATM   31  C   UNL     1      43.484 -17.029   5.181  1.00  0.00     0.076 A 
HETATM   32  H   UNL     1      42.352 -13.032   6.045  1.00  0.00     0.168 HD
BRANCH  31  33
HETATM   33  C   UNL     1      43.607 -18.265   4.403  1.00  0.00    -0.007 A 
HETATM   34  C   UNL     1      43.937 -19.497   4.985  1.00  0.00     0.014 A 
HETATM   35  C   UNL     1      44.034 -20.654   4.203  1.00  0.00     0.001 A 
HETATM   36  C   UNL     1      43.804 -20.594   2.830  1.00  0.00     0.000 A 
HETATM   37  C   UNL     1      43.477 -19.378   2.236  1.00  0.00     0.001 A 
HETATM   38  C   UNL     1      43.380 -18.225   3.017  1.00  0.00     0.014 A 
ENDBRANCH  31  33
ENDBRANCH   4  26
TORSDOF 9
ENDMDL
