MODEL 1
REMARK VINA RESULT:     -10.0      0.000      0.000
REMARK  6 active torsions:
REMARK  status: ('A' for Active; 'I' for Inactive)
REMARK    1  A    between atoms: C_2  and  O_3 
REMARK    2  A    between atoms: C_2  and  C_4 
REMARK    3  A    between atoms: C_6  and  N_7 
REMARK       I    between atoms: N_7  and  C_8 
REMARK    4  A    between atoms: C_8  and  C_9 
REMARK    5  A    between atoms: C_14  and  C_15 
REMARK    6  A    between atoms: C_23  and  C_24 
ROOT
HETATM    1  C   UNL     1      42.369 -12.539   5.378  1.00  0.00     0.148 A 
HETATM    2  N   UNL     1      41.148 -12.931   4.940  1.00  0.00    -0.165 NA
HETATM    3  N   UNL     1      41.436 -13.913   4.065  1.00  0.00    -0.240 N 
HETATM    4  C   UNL     1      42.765 -14.217   3.987  1.00  0.00     0.123 A 
HETATM    5  N   UNL     1      43.203 -15.256   3.250  1.00  0.00    -0.366 N 
HETATM    6  C   UNL     1      42.300 -16.258   2.687  1.00  0.00     0.118 C 
HETATM    7  C   UNL     1      40.875 -16.140   3.273  1.00  0.00     0.066 C 
HETATM    8  C   UNL     1      40.411 -14.678   3.383  1.00  0.00     0.221 C 
HETATM    9  C   UNL     1      43.407 -13.306   4.779  1.00  0.00     0.089 A 
HETATM   10  H   UNL     1      44.197 -15.475   3.187  1.00  0.00     0.161 HD
ENDROOT
BRANCH   1  11
HETATM   11  C   UNL     1      42.548 -11.475   6.382  1.00  0.00     0.276 C 
HETATM   12  N   UNL     1      43.599 -11.738   7.237  1.00  0.00    -0.322 N 
HETATM   13  H   UNL     1      44.050 -12.631   7.062  1.00  0.00     0.169 HD
HETATM   14  O   UNL     1      41.819 -10.489   6.395  1.00  0.00    -0.266 OA
BRANCH  12  15
HETATM   15  C   UNL     1      44.096 -10.934   8.277  1.00  0.00     0.035 A 
HETATM   16  C   UNL     1      43.485 -10.819   9.528  1.00  0.00     0.039 A 
HETATM   17  C   UNL     1      44.023  -9.990  10.531  1.00  0.00    -0.028 A 
HETATM   18  C   UNL     1      45.200  -9.282  10.257  1.00  0.00     0.010 A 
HETATM   19  C   UNL     1      45.814  -9.387   9.010  1.00  0.00     0.003 A 
HETATM   20  C   UNL     1      45.263 -10.208   8.024  1.00  0.00     0.029 A 
BRANCH  17  21
HETATM   21  C   UNL     1      43.337  -9.914  11.877  1.00  0.00     0.147 C 
HETATM   22  C   UNL     1      43.245  -8.476  12.376  1.00  0.00     0.044 C 
BRANCH  21  23
HETATM   23  O   UNL     1      42.022 -10.463  11.800  1.00  0.00    -0.391 OA
HETATM   24  H   UNL     1      41.883 -10.732  10.877  1.00  0.00     0.210 HD
ENDBRANCH  21  23
ENDBRANCH  17  21
ENDBRANCH  12  15
ENDBRANCH   1  11
BRANCH   8  25
HETATM   25  C   UNL     1      40.107 -14.057   2.040  1.00  0.00     0.409 C 
HETATM   26  F   UNL     1      41.142 -13.332   1.561  1.00  0.00    -0.169 F 
HETATM   27  F   UNL     1      39.759 -14.953   1.095  1.00  0.00    -0.169 F 
HETATM   28  F   UNL     1      39.060 -13.198   2.163  1.00  0.00    -0.169 F 
ENDBRANCH   8  25
BRANCH   6  29
HETATM   29  C   UNL     1      42.901 -17.632   2.943  1.00  0.00    -0.035 A 
HETATM   30  C   UNL     1      42.747 -18.676   2.009  1.00  0.00     0.012 A 
HETATM   31  C   UNL     1      43.267 -19.944   2.261  1.00  0.00     0.043 A 
HETATM   32  C   UNL     1      43.940 -20.180   3.453  1.00  0.00     0.116 A 
HETATM   33  F   UNL     1      44.431 -21.400   3.702  1.00  0.00    -0.206 F 
HETATM   34  C   UNL     1      44.101 -19.170   4.394  1.00  0.00     0.043 A 
HETATM   35  C   UNL     1      43.584 -17.897   4.142  1.00  0.00     0.012 A 
ENDBRANCH   6  29
TORSDOF 6
ENDMDL
MODEL 2
REMARK VINA RESULT:      -9.4      6.059      9.567
REMARK  6 active torsions:
REMARK  status: ('A' for Active; 'I' for Inactive)
REMARK    1  A    between atoms: C_2  and  O_3 
REMARK    2  A    between atoms: C_2  and  C_4 
REMARK    3  A    between atoms: C_6  and  N_7 
REMARK       I    between atoms: N_7  and  C_8 
REMARK    4  A    between atoms: C_8  and  C_9 
REMARK    5  A    between atoms: C_14  and  C_15 
REMARK    6  A    between atoms: C_23  and  C_24 
ROOT
HETATM    1  C   UNL     1      40.349 -14.259   0.784  1.00  0.00     0.148 A 
HETATM    2  N   UNL     1      40.017 -14.521  -0.503  1.00  0.00    -0.165 NA
HETATM    3  N   UNL     1      39.814 -13.296  -1.024  1.00  0.00    -0.240 N 
HETATM    4  C   UNL     1      40.077 -12.272  -0.158  1.00  0.00     0.123 A 
HETATM    5  N   UNL     1      40.040 -10.987  -0.562  1.00  0.00    -0.366 N 
HETATM    6  C   UNL     1      39.956 -10.607  -1.970  1.00  0.00     0.118 C 
HETATM    7  C   UNL     1      40.207 -11.811  -2.906  1.00  0.00     0.066 C 
HETATM    8  C   UNL     1      39.491 -13.083  -2.421  1.00  0.00     0.221 C 
HETATM    9  C   UNL     1      40.368 -12.860   1.041  1.00  0.00     0.089 A 
HETATM   10  H   UNL     1      40.229 -10.226   0.089  1.00  0.00     0.161 HD
ENDROOT
BRANCH   1  11
HETATM   11  C   UNL     1      40.680 -15.322   1.750  1.00  0.00     0.276 C 
HETATM   12  N   UNL     1      42.023 -15.642   1.729  1.00  0.00    -0.322 N 
HETATM   13  H   UNL     1      42.552 -15.125   1.033  1.00  0.00     0.169 HD
HETATM   14  O   UNL     1      39.819 -15.817   2.467  1.00  0.00    -0.266 OA
BRANCH  12  15
HETATM   15  C   UNL     1      42.710 -16.563   2.539  1.00  0.00     0.035 A 
HETATM   16  C   UNL     1      42.939 -17.893   2.178  1.00  0.00     0.039 A 
HETATM   17  C   UNL     1      43.625 -18.774   3.035  1.00  0.00    -0.028 A 
HETATM   18  C   UNL     1      44.093 -18.290   4.263  1.00  0.00     0.010 A 
HETATM   19  C   UNL     1      43.865 -16.966   4.633  1.00  0.00     0.003 A 
HETATM   20  C   UNL     1      43.174 -16.107   3.776  1.00  0.00     0.029 A 
BRANCH  17  21
HETATM   21  C   UNL     1      43.867 -20.201   2.591  1.00  0.00     0.147 C 
HETATM   22  C   UNL     1      43.879 -21.158   3.777  1.00  0.00     0.044 C 
BRANCH  21  23
HETATM   23  O   UNL     1      42.860 -20.615   1.669  1.00  0.00    -0.391 OA
HETATM   24  H   UNL     1      42.273 -21.223   2.149  1.00  0.00     0.210 HD
ENDBRANCH  21  23
ENDBRANCH  17  21
ENDBRANCH  12  15
ENDBRANCH   1  11
BRANCH   8  25
HETATM   25  C   UNL     1      37.993 -13.020  -2.604  1.00  0.00     0.409 C 
HETATM   26  F   UNL     1      37.329 -13.053  -1.429  1.00  0.00    -0.169 F 
HETATM   27  F   UNL     1      37.576 -11.932  -3.283  1.00  0.00    -0.169 F 
HETATM   28  F   UNL     1      37.576 -14.101  -3.314  1.00  0.00    -0.169 F 
ENDBRANCH   8  25
BRANCH   6  29
HETATM   29  C   UNL     1      40.955  -9.486  -2.217  1.00  0.00    -0.035 A 
HETATM   30  C   UNL     1      40.964  -8.778  -3.435  1.00  0.00     0.012 A 
HETATM   31  C   UNL     1      41.903  -7.776  -3.673  1.00  0.00     0.043 A 
HETATM   32  C   UNL     1      42.845  -7.479  -2.697  1.00  0.00     0.116 A 
HETATM   33  F   UNL     1      43.754  -6.524  -2.928  1.00  0.00    -0.206 F 
HETATM   34  C   UNL     1      42.862  -8.166  -1.489  1.00  0.00     0.043 A 
HETATM   35  C   UNL     1      41.920  -9.168  -1.246  1.00  0.00     0.012 A 
ENDBRANCH   6  29
TORSDOF 6
ENDMDL
MODEL 3
REMARK VINA RESULT:      -9.3      4.900      8.691
REMARK  6 active torsions:
REMARK  status: ('A' for Active; 'I' for Inactive)
REMARK    1  A    between atoms: C_2  and  O_3 
REMARK    2  A    between atoms: C_2  and  C_4 
REMARK    3  A    between atoms: C_6  and  N_7 
REMARK       I    between atoms: N_7  and  C_8 
REMARK    4  A    between atoms: C_8  and  C_9 
REMARK    5  A    between atoms: C_14  and  C_15 
REMARK    6  A    between atoms: C_23  and  C_24 
ROOT
HETATM    1  C   UNL     1      40.600 -14.506   1.121  1.00  0.00     0.148 A 
HETATM    2  N   UNL     1      40.537 -14.978  -0.147  1.00  0.00    -0.165 NA
HETATM    3  N   UNL     1      40.206 -13.886  -0.864  1.00  0.00    -0.240 N 
HETATM    4  C   UNL     1      40.138 -12.737  -0.130  1.00  0.00     0.123 A 
HETATM    5  N   UNL     1      39.940 -11.541  -0.718  1.00  0.00    -0.366 N 
HETATM    6  C   UNL     1      40.021 -11.353  -2.165  1.00  0.00     0.118 C 
HETATM    7  C   UNL     1      40.632 -12.585  -2.870  1.00  0.00     0.066 C 
HETATM    8  C   UNL     1      40.085 -13.907  -2.309  1.00  0.00     0.221 C 
HETATM    9  C   UNL     1      40.328 -13.110   1.171  1.00  0.00     0.089 A 
HETATM   10  H   UNL     1      39.881 -10.687  -0.165  1.00  0.00     0.161 HD
ENDROOT
BRANCH   1  11
HETATM   11  C   UNL     1      40.953 -15.362   2.269  1.00  0.00     0.276 C 
HETATM   12  N   UNL     1      42.175 -15.982   2.097  1.00  0.00    -0.322 N 
HETATM   13  H   UNL     1      42.610 -15.781   1.202  1.00  0.00     0.169 HD
HETATM   14  O   UNL     1      40.209 -15.460   3.237  1.00  0.00    -0.266 OA
BRANCH  12  15
HETATM   15  C   UNL     1      42.856 -16.823   2.995  1.00  0.00     0.035 A 
HETATM   16  C   UNL     1      43.186 -16.456   4.302  1.00  0.00     0.039 A 
HETATM   17  C   UNL     1      43.878 -17.337   5.154  1.00  0.00    -0.028 A 
HETATM   18  C   UNL     1      44.225 -18.605   4.672  1.00  0.00     0.010 A 
HETATM   19  C   UNL     1      43.904 -18.978   3.368  1.00  0.00     0.003 A 
HETATM   20  C   UNL     1      43.224 -18.089   2.532  1.00  0.00     0.029 A 
BRANCH  17  21
HETATM   21  C   UNL     1      44.195 -16.903   6.569  1.00  0.00     0.147 C 
HETATM   22  C   UNL     1      43.921 -15.417   6.770  1.00  0.00     0.044 C 
BRANCH  21  23
HETATM   23  O   UNL     1      43.421 -17.649   7.507  1.00  0.00    -0.391 OA
HETATM   24  H   UNL     1      42.908 -18.298   6.995  1.00  0.00     0.210 HD
ENDBRANCH  21  23
ENDBRANCH  17  21
ENDBRANCH  12  15
ENDBRANCH   1  11
BRANCH   8  25
HETATM   25  C   UNL     1      38.650 -14.164  -2.705  1.00  0.00     0.409 C 
HETATM   26  F   UNL     1      37.770 -13.634  -1.828  1.00  0.00    -0.169 F 
HETATM   27  F   UNL     1      38.337 -13.703  -3.933  1.00  0.00    -0.169 F 
HETATM   28  F   UNL     1      38.416 -15.503  -2.723  1.00  0.00    -0.169 F 
ENDBRANCH   8  25
BRANCH   6  29
HETATM   29  C   UNL     1      40.832 -10.093  -2.432  1.00  0.00    -0.035 A 
HETATM   30  C   UNL     1      40.761  -9.436  -3.676  1.00  0.00     0.012 A 
HETATM   31  C   UNL     1      41.531  -8.302  -3.931  1.00  0.00     0.043 A 
HETATM   32  C   UNL     1      42.383  -7.821  -2.946  1.00  0.00     0.116 A 
HETATM   33  F   UNL     1      43.132  -6.739  -3.192  1.00  0.00    -0.206 F 
HETATM   34  C   UNL     1      42.476  -8.454  -1.711  1.00  0.00     0.043 A 
HETATM   35  C   UNL     1      41.703  -9.588  -1.452  1.00  0.00     0.012 A 
ENDBRANCH   6  29
TORSDOF 6
ENDMDL
MODEL 4
REMARK VINA RESULT:      -9.2      2.386      4.543
REMARK  6 active torsions:
REMARK  status: ('A' for Active; 'I' for Inactive)
REMARK    1  A    between atoms: C_2  and  O_3 
REMARK    2  A    between atoms: C_2  and  C_4 
REMARK    3  A    between atoms: C_6  and  N_7 
REMARK       I    between atoms: N_7  and  C_8 
REMARK    4  A    between atoms: C_8  and  C_9 
REMARK    5  A    between atoms: C_14  and  C_15 
REMARK    6  A    between atoms: C_23  and  C_24 
ROOT
HETATM    1  C   UNL     1      41.947 -12.480   5.174  1.00  0.00     0.148 A 
HETATM    2  N   UNL     1      42.833 -13.411   4.746  1.00  0.00    -0.165 NA
HETATM    3  N   UNL     1      42.162 -14.045   3.765  1.00  0.00    -0.240 N 
HETATM    4  C   UNL     1      40.934 -13.512   3.496  1.00  0.00     0.123 A 
HETATM    5  N   UNL     1      40.190 -13.954   2.463  1.00  0.00    -0.366 N 
HETATM    6  C   UNL     1      40.723 -14.842   1.433  1.00  0.00     0.118 C 
HETATM    7  C   UNL     1      42.261 -14.961   1.517  1.00  0.00     0.066 C 
HETATM    8  C   UNL     1      42.755 -15.100   2.966  1.00  0.00     0.221 C 
HETATM    9  C   UNL     1      40.735 -12.534   4.430  1.00  0.00     0.089 A 
HETATM   10  H   UNL     1      39.269 -13.559   2.271  1.00  0.00     0.161 HD
ENDROOT
BRANCH   1  11
HETATM   11  C   UNL     1      42.261 -11.523   6.251  1.00  0.00     0.276 C 
HETATM   12  N   UNL     1      43.476 -11.794   6.848  1.00  0.00    -0.322 N 
HETATM   13  H   UNL     1      43.934 -12.622   6.478  1.00  0.00     0.169 HD
HETATM   14  O   UNL     1      41.494 -10.609   6.528  1.00  0.00    -0.266 OA
BRANCH  12  15
HETATM   15  C   UNL     1      44.124 -11.073   7.866  1.00  0.00     0.035 A 
HETATM   16  C   UNL     1      43.721 -11.089   9.204  1.00  0.00     0.039 A 
HETATM   17  C   UNL     1      44.403 -10.339  10.180  1.00  0.00    -0.028 A 
HETATM   18  C   UNL     1      45.512  -9.578   9.790  1.00  0.00     0.010 A 
HETATM   19  C   UNL     1      45.919  -9.553   8.457  1.00  0.00     0.003 A 
HETATM   20  C   UNL     1      45.226 -10.296   7.499  1.00  0.00     0.029 A 
BRANCH  17  21
HETATM   21  C   UNL     1      43.943 -10.403  11.620  1.00  0.00     0.147 C 
HETATM   22  C   UNL     1      42.649  -9.624  11.826  1.00  0.00     0.044 C 
BRANCH  21  23
HETATM   23  O   UNL     1      43.737 -11.758  12.019  1.00  0.00    -0.391 OA
HETATM   24  H   UNL     1      43.111 -11.740  12.762  1.00  0.00     0.210 HD
ENDBRANCH  21  23
ENDBRANCH  17  21
ENDBRANCH  12  15
ENDBRANCH   1  11
BRANCH   8  25
HETATM   25  C   UNL     1      42.436 -16.448   3.569  1.00  0.00     0.409 C 
HETATM   26  F   UNL     1      41.326 -16.419   4.337  1.00  0.00    -0.169 F 
HETATM   27  F   UNL     1      42.280 -17.426   2.654  1.00  0.00    -0.169 F 
HETATM   28  F   UNL     1      43.456 -16.836   4.380  1.00  0.00    -0.169 F 
ENDBRANCH   8  25
BRANCH   6  29
HETATM   29  C   UNL     1      40.272 -14.317   0.078  1.00  0.00    -0.035 A 
HETATM   30  C   UNL     1      39.488 -15.111  -0.782  1.00  0.00     0.012 A 
HETATM   31  C   UNL     1      39.106 -14.642  -2.038  1.00  0.00     0.043 A 
HETATM   32  C   UNL     1      39.513 -13.378  -2.447  1.00  0.00     0.116 A 
HETATM   33  F   UNL     1      39.157 -12.930  -3.657  1.00  0.00    -0.206 F 
HETATM   34  C   UNL     1      40.292 -12.577  -1.620  1.00  0.00     0.043 A 
HETATM   35  C   UNL     1      40.672 -13.043  -0.359  1.00  0.00     0.012 A 
ENDBRANCH   6  29
TORSDOF 6
ENDMDL
MODEL 5
REMARK VINA RESULT:      -8.9      5.346      9.064
REMARK  6 active torsions:
REMARK  status: ('A' for Active; 'I' for Inactive)
REMARK    1  A    between atoms: C_2  and  O_3 
REMARK    2  A    between atoms: C_2  and  C_4 
REMARK    3  A    between atoms: C_6  and  N_7 
REMARK       I    between atoms: N_7  and  C_8 
REMARK    4  A    between atoms: C_8  and  C_9 
REMARK    5  A    between atoms: C_14  and  C_15 
REMARK    6  A    between atoms: C_23  and  C_24 
ROOT
HETATM    1  C   UNL     1      40.185 -14.091  -0.027  1.00  0.00     0.148 A 
HETATM    2  N   UNL     1      41.283 -13.464   0.461  1.00  0.00    -0.165 NA
HETATM    3  N   UNL     1      41.651 -14.247   1.493  1.00  0.00    -0.240 N 
HETATM    4  C   UNL     1      40.895 -15.376   1.632  1.00  0.00     0.123 A 
HETATM    5  N   UNL     1      41.210 -16.322   2.539  1.00  0.00    -0.366 N 
HETATM    6  C   UNL     1      42.483 -16.332   3.256  1.00  0.00     0.118 C 
HETATM    7  C   UNL     1      43.493 -15.332   2.646  1.00  0.00     0.066 C 
HETATM    8  C   UNL     1      42.836 -13.990   2.286  1.00  0.00     0.221 C 
HETATM    9  C   UNL     1      39.898 -15.278   0.703  1.00  0.00     0.089 A 
HETATM   10  H   UNL     1      40.638 -17.159   2.646  1.00  0.00     0.161 HD
ENDROOT
BRANCH   1  11
HETATM   11  C   UNL     1      39.439 -13.590  -1.195  1.00  0.00     0.276 C 
HETATM   12  N   UNL     1      39.049 -12.275  -1.037  1.00  0.00    -0.322 N 
HETATM   13  H   UNL     1      39.303 -11.882  -0.136  1.00  0.00     0.169 HD
HETATM   14  O   UNL     1      39.232 -14.305  -2.168  1.00  0.00    -0.266 OA
BRANCH  12  15
HETATM   15  C   UNL     1      38.372 -11.453  -1.955  1.00  0.00     0.035 A 
HETATM   16  C   UNL     1      37.057 -11.675  -2.371  1.00  0.00     0.039 A 
HETATM   17  C   UNL     1      36.432 -10.823  -3.302  1.00  0.00    -0.028 A 
HETATM   18  C   UNL     1      37.151  -9.729  -3.799  1.00  0.00     0.010 A 
HETATM   19  C   UNL     1      38.464  -9.502  -3.393  1.00  0.00     0.003 A 
HETATM   20  C   UNL     1      39.073 -10.362  -2.476  1.00  0.00     0.029 A 
BRANCH  17  21
HETATM   21  C   UNL     1      34.999 -11.092  -3.707  1.00  0.00     0.147 C 
HETATM   22  C   UNL     1      34.439  -9.960  -4.560  1.00  0.00     0.044 C 
BRANCH  21  23
HETATM   23  O   UNL     1      34.908 -12.315  -4.439  1.00  0.00    -0.391 OA
HETATM   24  H   UNL     1      35.530 -12.244  -5.182  1.00  0.00     0.210 HD
ENDBRANCH  21  23
ENDBRANCH  17  21
ENDBRANCH  12  15
ENDBRANCH   1  11
BRANCH   8  25
HETATM   25  C   UNL     1      42.479 -13.167   3.501  1.00  0.00     0.409 C 
HETATM   26  F   UNL     1      41.178 -13.293   3.844  1.00  0.00    -0.169 F 
HETATM   27  F   UNL     1      43.222 -13.456   4.589  1.00  0.00    -0.169 F 
HETATM   28  F   UNL     1      42.681 -11.849   3.234  1.00  0.00    -0.169 F 
ENDBRANCH   8  25
BRANCH   6  29
HETATM   29  C   UNL     1      43.022 -17.755   3.242  1.00  0.00    -0.035 A 
HETATM   30  C   UNL     1      42.819 -18.595   2.129  1.00  0.00     0.012 A 
HETATM   31  C   UNL     1      43.282 -19.909   2.132  1.00  0.00     0.043 A 
HETATM   32  C   UNL     1      43.945 -20.396   3.251  1.00  0.00     0.116 A 
HETATM   33  F   UNL     1      44.381 -21.662   3.260  1.00  0.00    -0.206 F 
HETATM   34  C   UNL     1      44.153 -19.590   4.364  1.00  0.00     0.043 A 
HETATM   35  C   UNL     1      43.694 -18.271   4.362  1.00  0.00     0.012 A 
ENDBRANCH   6  29
TORSDOF 6
ENDMDL
MODEL 6
REMARK VINA RESULT:      -8.7      5.253      8.798
REMARK  6 active torsions:
REMARK  status: ('A' for Active; 'I' for Inactive)
REMARK    1  A    between atoms: C_2  and  O_3 
REMARK    2  A    between atoms: C_2  and  C_4 
REMARK    3  A    between atoms: C_6  and  N_7 
REMARK       I    between atoms: N_7  and  C_8 
REMARK    4  A    between atoms: C_8  and  C_9 
REMARK    5  A    between atoms: C_14  and  C_15 
REMARK    6  A    between atoms: C_23  and  C_24 
ROOT
HETATM    1  C   UNL     1      40.374 -13.863  -0.057  1.00  0.00     0.148 A 
HETATM    2  N   UNL     1      41.415 -13.262   0.569  1.00  0.00    -0.165 NA
HETATM    3  N   UNL     1      41.693 -14.107   1.581  1.00  0.00    -0.240 N 
HETATM    4  C   UNL     1      40.940 -15.246   1.579  1.00  0.00     0.123 A 
HETATM    5  N   UNL     1      41.179 -16.245   2.451  1.00  0.00    -0.366 N 
HETATM    6  C   UNL     1      42.379 -16.293   3.283  1.00  0.00     0.118 C 
HETATM    7  C   UNL     1      43.430 -15.252   2.834  1.00  0.00     0.066 C 
HETATM    8  C   UNL     1      42.796 -13.893   2.497  1.00  0.00     0.221 C 
HETATM    9  C   UNL     1      40.033 -15.095   0.567  1.00  0.00     0.089 A 
HETATM   10  H   UNL     1      40.608 -17.090   2.451  1.00  0.00     0.161 HD
ENDROOT
BRANCH   1  11
HETATM   11  C   UNL     1      39.736 -13.294  -1.258  1.00  0.00     0.276 C 
HETATM   12  N   UNL     1      39.726 -11.913  -1.235  1.00  0.00    -0.322 N 
HETATM   13  H   UNL     1      40.121 -11.519  -0.387  1.00  0.00     0.169 HD
HETATM   14  O   UNL     1      39.294 -14.016  -2.143  1.00  0.00    -0.266 OA
BRANCH  12  15
HETATM   15  C   UNL     1      39.253 -11.031  -2.222  1.00  0.00     0.035 A 
HETATM   16  C   UNL     1      40.073 -10.147  -2.928  1.00  0.00     0.039 A 
HETATM   17  C   UNL     1      39.543  -9.278  -3.901  1.00  0.00    -0.028 A 
HETATM   18  C   UNL     1      38.168  -9.321  -4.162  1.00  0.00     0.010 A 
HETATM   19  C   UNL     1      37.341 -10.197  -3.459  1.00  0.00     0.003 A 
HETATM   20  C   UNL     1      37.882 -11.046  -2.491  1.00  0.00     0.029 A 
BRANCH  17  21
HETATM   21  C   UNL     1      40.473  -8.353  -4.655  1.00  0.00     0.147 C 
HETATM   22  C   UNL     1      41.730  -8.049  -3.848  1.00  0.00     0.044 C 
BRANCH  21  23
HETATM   23  O   UNL     1      40.852  -8.933  -5.903  1.00  0.00    -0.391 OA
HETATM   24  H   UNL     1      41.758  -9.267  -5.794  1.00  0.00     0.210 HD
ENDBRANCH  21  23
ENDBRANCH  17  21
ENDBRANCH  12  15
ENDBRANCH   1  11
BRANCH   8  25
HETATM   25  C   UNL     1      42.317 -13.150   3.722  1.00  0.00     0.409 C 
HETATM   26  F   UNL     1      40.970 -13.131   3.819  1.00  0.00    -0.169 F 
HETATM   27  F   UNL     1      42.807 -13.639   4.879  1.00  0.00    -0.169 F 
HETATM   28  F   UNL     1      42.716 -11.852   3.651  1.00  0.00    -0.169 F 
ENDBRANCH   8  25
BRANCH   6  29
HETATM   29  C   UNL     1      42.932 -17.709   3.231  1.00  0.00    -0.035 A 
HETATM   30  C   UNL     1      42.681 -18.545   2.125  1.00  0.00     0.012 A 
HETATM   31  C   UNL     1      43.159 -19.855   2.095  1.00  0.00     0.043 A 
HETATM   32  C   UNL     1      43.884 -20.340   3.175  1.00  0.00     0.116 A 
HETATM   33  F   UNL     1      44.335 -21.601   3.154  1.00  0.00    -0.206 F 
HETATM   34  C   UNL     1      44.141 -19.538   4.282  1.00  0.00     0.043 A 
HETATM   35  C   UNL     1      43.667 -18.224   4.312  1.00  0.00     0.012 A 
ENDBRANCH   6  29
TORSDOF 6
ENDMDL
MODEL 7
REMARK VINA RESULT:      -8.7      2.130      2.476
REMARK  6 active torsions:
REMARK  status: ('A' for Active; 'I' for Inactive)
REMARK    1  A    between atoms: C_2  and  O_3 
REMARK    2  A    between atoms: C_2  and  C_4 
REMARK    3  A    between atoms: C_6  and  N_7 
REMARK       I    between atoms: N_7  and  C_8 
REMARK    4  A    between atoms: C_8  and  C_9 
REMARK    5  A    between atoms: C_14  and  C_15 
REMARK    6  A    between atoms: C_23  and  C_24 
ROOT
HETATM    1  C   UNL     1      41.919 -12.061   4.105  1.00  0.00     0.148 A 
HETATM    2  N   UNL     1      40.787 -12.635   3.630  1.00  0.00    -0.165 NA
HETATM    3  N   UNL     1      41.233 -13.774   3.067  1.00  0.00    -0.240 N 
HETATM    4  C   UNL     1      42.571 -13.990   3.233  1.00  0.00     0.123 A 
HETATM    5  N   UNL     1      43.149 -15.141   2.836  1.00  0.00    -0.366 N 
HETATM    6  C   UNL     1      42.374 -16.312   2.431  1.00  0.00     0.118 C 
HETATM    7  C   UNL     1      40.878 -16.161   2.788  1.00  0.00     0.066 C 
HETATM    8  C   UNL     1      40.344 -14.754   2.474  1.00  0.00     0.221 C 
HETATM    9  C   UNL     1      43.059 -12.872   3.848  1.00  0.00     0.089 A 
HETATM   10  H   UNL     1      44.150 -15.295   2.953  1.00  0.00     0.161 HD
ENDROOT
BRANCH   1  11
HETATM   11  C   UNL     1      41.913 -10.777   4.828  1.00  0.00     0.276 C 
HETATM   12  N   UNL     1      41.846 -10.951   6.196  1.00  0.00    -0.322 N 
HETATM   13  H   UNL     1      41.774 -11.925   6.477  1.00  0.00     0.169 HD
HETATM   14  O   UNL     1      41.973  -9.711   4.226  1.00  0.00    -0.266 OA
BRANCH  12  15
HETATM   15  C   UNL     1      41.873  -9.968   7.200  1.00  0.00     0.035 A 
HETATM   16  C   UNL     1      40.726  -9.377   7.737  1.00  0.00     0.039 A 
HETATM   17  C   UNL     1      40.814  -8.389   8.736  1.00  0.00    -0.028 A 
HETATM   18  C   UNL     1      42.081  -8.011   9.199  1.00  0.00     0.010 A 
HETATM   19  C   UNL     1      43.230  -8.592   8.665  1.00  0.00     0.003 A 
HETATM   20  C   UNL     1      43.126  -9.565   7.669  1.00  0.00     0.029 A 
BRANCH  17  21
HETATM   21  C   UNL     1      39.543  -7.793   9.302  1.00  0.00     0.147 C 
HETATM   22  C   UNL     1      39.778  -6.383   9.833  1.00  0.00     0.044 C 
BRANCH  21  23
HETATM   23  O   UNL     1      38.524  -7.750   8.304  1.00  0.00    -0.391 OA
HETATM   24  H   UNL     1      37.869  -8.428   8.542  1.00  0.00     0.210 HD
ENDBRANCH  21  23
ENDBRANCH  17  21
ENDBRANCH  12  15
ENDBRANCH   1  11
BRANCH   8  25
HETATM   25  C   UNL     1      40.203 -14.496   0.992  1.00  0.00     0.409 C 
HETATM   26  F   UNL     1      41.364 -14.102   0.425  1.00  0.00    -0.169 F 
HETATM   27  F   UNL     1      39.746 -15.559   0.299  1.00  0.00    -0.169 F 
HETATM   28  F   UNL     1      39.313 -13.490   0.788  1.00  0.00    -0.169 F 
ENDBRANCH   8  25
BRANCH   6  29
HETATM   29  C   UNL     1      42.989 -17.537   3.092  1.00  0.00    -0.035 A 
HETATM   30  C   UNL     1      43.441 -17.490   4.426  1.00  0.00     0.012 A 
HETATM   31  C   UNL     1      44.037 -18.602   5.018  1.00  0.00     0.043 A 
HETATM   32  C   UNL     1      44.192 -19.767   4.279  1.00  0.00     0.116 A 
HETATM   33  F   UNL     1      44.773 -20.833   4.842  1.00  0.00    -0.206 F 
HETATM   34  C   UNL     1      43.760 -19.838   2.959  1.00  0.00     0.043 A 
HETATM   35  C   UNL     1      43.159 -18.726   2.364  1.00  0.00     0.012 A 
ENDBRANCH   6  29
TORSDOF 6
ENDMDL
MODEL 8
REMARK VINA RESULT:      -8.6      2.471      4.329
REMARK  6 active torsions:
REMARK  status: ('A' for Active; 'I' for Inactive)
REMARK    1  A    between atoms: C_2  and  O_3 
REMARK    2  A    between atoms: C_2  and  C_4 
REMARK    3  A    between atoms: C_6  and  N_7 
REMARK       I    between atoms: N_7  and  C_8 
REMARK    4  A    between atoms: C_8  and  C_9 
REMARK    5  A    between atoms: C_14  and  C_15 
REMARK    6  A    between atoms: C_23  and  C_24 
ROOT
HETATM    1  C   UNL     1      43.292 -12.520   6.940  1.00  0.00     0.148 A 
HETATM    2  N   UNL     1      43.983 -13.660   6.692  1.00  0.00    -0.165 NA
HETATM    3  N   UNL     1      43.153 -14.353   5.889  1.00  0.00    -0.240 N 
HETATM    4  C   UNL     1      42.014 -13.680   5.551  1.00  0.00     0.123 A 
HETATM    5  N   UNL     1      41.140 -14.186   4.659  1.00  0.00    -0.366 N 
HETATM    6  C   UNL     1      41.451 -15.345   3.824  1.00  0.00     0.118 C 
HETATM    7  C   UNL     1      42.951 -15.711   3.885  1.00  0.00     0.066 C 
HETATM    8  C   UNL     1      43.511 -15.635   5.315  1.00  0.00     0.221 C 
HETATM    9  C   UNL     1      42.041 -12.513   6.262  1.00  0.00     0.089 A 
HETATM   10  H   UNL     1      40.287 -13.685   4.415  1.00  0.00     0.161 HD
ENDROOT
BRANCH   1  11
HETATM   11  C   UNL     1      43.829 -11.434   7.780  1.00  0.00     0.276 C 
HETATM   12  N   UNL     1      42.841 -10.570   8.206  1.00  0.00    -0.322 N 
HETATM   13  H   UNL     1      41.919 -10.798   7.845  1.00  0.00     0.169 HD
HETATM   14  O   UNL     1      45.025 -11.369   8.040  1.00  0.00    -0.266 OA
BRANCH  12  15
HETATM   15  C   UNL     1      42.966  -9.459   9.057  1.00  0.00     0.035 A 
HETATM   16  C   UNL     1      43.020  -9.551  10.450  1.00  0.00     0.039 A 
HETATM   17  C   UNL     1      43.136  -8.401  11.254  1.00  0.00    -0.028 A 
HETATM   18  C   UNL     1      43.211  -7.150  10.630  1.00  0.00     0.010 A 
HETATM   19  C   UNL     1      43.154  -7.047   9.241  1.00  0.00     0.003 A 
HETATM   20  C   UNL     1      43.029  -8.197   8.459  1.00  0.00     0.029 A 
BRANCH  17  21
HETATM   21  C   UNL     1      43.211  -8.553  12.758  1.00  0.00     0.147 C 
HETATM   22  C   UNL     1      42.890  -7.242  13.467  1.00  0.00     0.044 C 
BRANCH  21  23
HETATM   23  O   UNL     1      42.301  -9.558  13.205  1.00  0.00    -0.391 OA
HETATM   24  H   UNL     1      42.810 -10.382  13.284  1.00  0.00     0.210 HD
ENDBRANCH  21  23
ENDBRANCH  17  21
ENDBRANCH  12  15
ENDBRANCH   1  11
BRANCH   8  25
HETATM   25  C   UNL     1      43.016 -16.756   6.199  1.00  0.00     0.409 C 
HETATM   26  F   UNL     1      43.930 -17.126   7.121  1.00  0.00    -0.169 F 
HETATM   27  F   UNL     1      41.869 -16.467   6.848  1.00  0.00    -0.169 F 
HETATM   28  F   UNL     1      42.765 -17.856   5.441  1.00  0.00    -0.169 F 
ENDBRANCH   8  25
BRANCH   6  29
HETATM   29  C   UNL     1      41.004 -15.037   2.403  1.00  0.00    -0.035 A 
HETATM   30  C   UNL     1      40.145 -15.912   1.708  1.00  0.00     0.012 A 
HETATM   31  C   UNL     1      39.765 -15.646   0.393  1.00  0.00     0.043 A 
HETATM   32  C   UNL     1      40.247 -14.507  -0.239  1.00  0.00     0.116 A 
HETATM   33  F   UNL     1      39.893 -14.255  -1.504  1.00  0.00    -0.206 F 
HETATM   34  C   UNL     1      41.101 -13.630   0.423  1.00  0.00     0.043 A 
HETATM   35  C   UNL     1      41.479 -13.892   1.742  1.00  0.00     0.012 A 
ENDBRANCH   6  29
TORSDOF 6
ENDMDL
MODEL 9
REMARK VINA RESULT:      -8.6      8.624     11.583
REMARK  6 active torsions:
REMARK  status: ('A' for Active; 'I' for Inactive)
REMARK    1  A    between atoms: C_2  and  O_3 
REMARK    2  A    between atoms: C_2  and  C_4 
REMARK    3  A    between atoms: C_6  and  N_7 
REMARK       I    between atoms: N_7  and  C_8 
REMARK    4  A    between atoms: C_8  and  C_9 
REMARK    5  A    between atoms: C_14  and  C_15 
REMARK    6  A    between atoms: C_23  and  C_24 
ROOT
HETATM    1  C   UNL     1      41.727  -7.366  15.398  1.00  0.00     0.148 A 
HETATM    2  N   UNL     1      41.282  -8.622  15.146  1.00  0.00    -0.165 NA
HETATM    3  N   UNL     1      41.428  -8.736  13.812  1.00  0.00    -0.240 N 
HETATM    4  C   UNL     1      42.014  -7.654  13.220  1.00  0.00     0.123 A 
HETATM    5  N   UNL     1      42.340  -7.662  11.913  1.00  0.00    -0.366 N 
HETATM    6  C   UNL     1      42.316  -8.878  11.103  1.00  0.00     0.118 C 
HETATM    7  C   UNL     1      42.165 -10.145  11.975  1.00  0.00     0.066 C 
HETATM    8  C   UNL     1      41.127  -9.959  13.094  1.00  0.00     0.221 C 
HETATM    9  C   UNL     1      42.167  -6.722  14.209  1.00  0.00     0.089 A 
HETATM   10  H   UNL     1      42.770  -6.848  11.474  1.00  0.00     0.161 HD
ENDROOT
BRANCH   1  11
HETATM   11  C   UNL     1      41.769  -6.799  16.758  1.00  0.00     0.276 C 
HETATM   12  N   UNL     1      41.806  -7.780  17.729  1.00  0.00    -0.322 N 
HETATM   13  H   UNL     1      41.761  -8.723  17.354  1.00  0.00     0.169 HD
HETATM   14  O   UNL     1      41.778  -5.587  16.938  1.00  0.00    -0.266 OA
BRANCH  12  15
HETATM   15  C   UNL     1      41.904  -7.621  19.122  1.00  0.00     0.035 A 
HETATM   16  C   UNL     1      40.803  -7.629  19.982  1.00  0.00     0.039 A 
HETATM   17  C   UNL     1      40.960  -7.455  21.371  1.00  0.00    -0.028 A 
HETATM   18  C   UNL     1      42.251  -7.284  21.885  1.00  0.00     0.010 A 
HETATM   19  C   UNL     1      43.355  -7.270  21.034  1.00  0.00     0.003 A 
HETATM   20  C   UNL     1      43.181  -7.435  19.658  1.00  0.00     0.029 A 
BRANCH  17  21
HETATM   21  C   UNL     1      39.739  -7.492  22.264  1.00  0.00     0.147 C 
HETATM   22  C   UNL     1      39.344  -6.094  22.726  1.00  0.00     0.044 C 
BRANCH  21  23
HETATM   23  O   UNL     1      38.636  -8.084  21.580  1.00  0.00    -0.391 OA
HETATM   24  H   UNL     1      38.139  -7.358  21.166  1.00  0.00     0.210 HD
ENDBRANCH  21  23
ENDBRANCH  17  21
ENDBRANCH  12  15
ENDBRANCH   1  11
BRANCH   8  25
HETATM   25  C   UNL     1      39.708  -9.923  12.579  1.00  0.00     0.409 C 
HETATM   26  F   UNL     1      39.161  -8.691  12.661  1.00  0.00    -0.169 F 
HETATM   27  F   UNL     1      39.584 -10.345  11.304  1.00  0.00    -0.169 F 
HETATM   28  F   UNL     1      38.928 -10.742  13.334  1.00  0.00    -0.169 F 
ENDBRANCH   8  25
BRANCH   6  29
HETATM   29  C   UNL     1      43.590  -8.916  10.272  1.00  0.00    -0.035 A 
HETATM   30  C   UNL     1      43.757  -8.063   9.163  1.00  0.00     0.012 A 
HETATM   31  C   UNL     1      44.910  -8.124   8.381  1.00  0.00     0.043 A 
HETATM   32  C   UNL     1      45.900  -9.044   8.698  1.00  0.00     0.116 A 
HETATM   33  F   UNL     1      47.003  -9.113   7.942  1.00  0.00    -0.206 F 
HETATM   34  C   UNL     1      45.757  -9.902   9.783  1.00  0.00     0.043 A 
HETATM   35  C   UNL     1      44.605  -9.840  10.571  1.00  0.00     0.012 A 
ENDBRANCH   6  29
TORSDOF 6
ENDMDL
MODEL 10
REMARK VINA RESULT:      -8.6      2.015      2.971
REMARK  6 active torsions:
REMARK  status: ('A' for Active; 'I' for Inactive)
REMARK    1  A    between atoms: C_2  and  O_3 
REMARK    2  A    between atoms: C_2  and  C_4 
REMARK    3  A    between atoms: C_6  and  N_7 
REMARK       I    between atoms: N_7  and  C_8 
REMARK    4  A    between atoms: C_8  and  C_9 
REMARK    5  A    between atoms: C_14  and  C_15 
REMARK    6  A    between atoms: C_23  and  C_24 
ROOT
HETATM    1  C   UNL     1      42.868 -11.054   6.667  1.00  0.00     0.148 A 
HETATM    2  N   UNL     1      41.563 -11.381   6.510  1.00  0.00    -0.165 NA
HETATM    3  N   UNL     1      41.584 -12.230   5.464  1.00  0.00    -0.240 N 
HETATM    4  C   UNL     1      42.838 -12.519   5.006  1.00  0.00     0.123 A 
HETATM    5  N   UNL     1      43.037 -13.443   4.047  1.00  0.00    -0.366 N 
HETATM    6  C   UNL     1      41.986 -14.357   3.604  1.00  0.00     0.118 C 
HETATM    7  C   UNL     1      40.762 -14.324   4.548  1.00  0.00     0.066 C 
HETATM    8  C   UNL     1      40.393 -12.893   4.971  1.00  0.00     0.221 C 
HETATM    9  C   UNL     1      43.691 -11.728   5.723  1.00  0.00     0.089 A 
HETATM   10  H   UNL     1      43.974 -13.650   3.702  1.00  0.00     0.161 HD
ENDROOT
BRANCH   1  11
HETATM   11  C   UNL     1      43.334 -10.141   7.727  1.00  0.00     0.276 C 
HETATM   12  N   UNL     1      42.461 -10.097   8.796  1.00  0.00    -0.322 N 
HETATM   13  H   UNL     1      41.630 -10.666   8.664  1.00  0.00     0.169 HD
HETATM   14  O   UNL     1      44.389  -9.527   7.616  1.00  0.00    -0.266 OA
BRANCH  12  15
HETATM   15  C   UNL     1      42.596  -9.386  10.001  1.00  0.00     0.035 A 
HETATM   16  C   UNL     1      42.357  -8.015  10.122  1.00  0.00     0.039 A 
HETATM   17  C   UNL     1      42.518  -7.352  11.354  1.00  0.00    -0.028 A 
HETATM   18  C   UNL     1      42.913  -8.097  12.471  1.00  0.00     0.010 A 
HETATM   19  C   UNL     1      43.158  -9.465  12.359  1.00  0.00     0.003 A 
HETATM   20  C   UNL     1      43.003 -10.106  11.128  1.00  0.00     0.029 A 
BRANCH  17  21
HETATM   21  C   UNL     1      42.227  -5.869  11.440  1.00  0.00     0.147 C 
HETATM   22  C   UNL     1      42.622  -5.148  10.157  1.00  0.00     0.044 C 
BRANCH  21  23
HETATM   23  O   UNL     1      40.840  -5.645  11.691  1.00  0.00    -0.391 OA
HETATM   24  H   UNL     1      40.749  -4.713  11.950  1.00  0.00     0.210 HD
ENDBRANCH  21  23
ENDBRANCH  17  21
ENDBRANCH  12  15
ENDBRANCH   1  11
BRANCH   8  25
HETATM   25  C   UNL     1      39.778 -12.089   3.849  1.00  0.00     0.409 C 
HETATM   26  F   UNL     1      38.858 -11.205   4.293  1.00  0.00    -0.169 F 
HETATM   27  F   UNL     1      40.681 -11.410   3.113  1.00  0.00    -0.169 F 
HETATM   28  F   UNL     1      39.130 -12.923   2.994  1.00  0.00    -0.169 F 
ENDBRANCH   8  25
BRANCH   6  29
HETATM   29  C   UNL     1      42.584 -15.753   3.508  1.00  0.00    -0.035 A 
HETATM   30  C   UNL     1      43.299 -16.311   4.586  1.00  0.00     0.012 A 
HETATM   31  C   UNL     1      43.876 -17.575   4.483  1.00  0.00     0.043 A 
HETATM   32  C   UNL     1      43.749 -18.288   3.298  1.00  0.00     0.116 A 
HETATM   33  F   UNL     1      44.312 -19.498   3.193  1.00  0.00    -0.206 F 
HETATM   34  C   UNL     1      43.054 -17.759   2.217  1.00  0.00     0.043 A 
HETATM   35  C   UNL     1      42.471 -16.493   2.319  1.00  0.00     0.012 A 
ENDBRANCH   6  29
TORSDOF 6
ENDMDL
