MODEL 1
REMARK VINA RESULT:      -9.3      0.000      0.000
REMARK  9 active torsions:
REMARK  status: ('A' for Active; 'I' for Inactive)
REMARK    1  A    between atoms: C_4  and  S_5 
REMARK    2  A    between atoms: S_5  and  C_6 
REMARK    3  A    between atoms: C_6  and  C_7 
REMARK       I    between atoms: C_7  and  N_8 
REMARK    4  A    between atoms: N_8  and  C_9 
REMARK    5  A    between atoms: C_10  and  O_11 
REMARK    6  A    between atoms: C_22  and  C_23 
REMARK    7  A    between atoms: C_29  and  C_30 
REMARK       I    between atoms: C_30  and  N_31 
REMARK    8  A    between atoms: N_31  and  C_32 
REMARK    9  A    between atoms: C_33  and  O_34 
ROOT
HETATM    1  C   UNL     1      39.957 -15.112   0.968  1.00  0.00     0.069 C 
HETATM    2  C   UNL     1      39.872 -14.103   2.091  1.00  0.00     0.019 A 
HETATM    3  N   UNL     1      39.218 -12.931   1.759  1.00  0.00    -0.353 N 
HETATM    4  C   UNL     1      39.073 -11.833   2.571  1.00  0.00     0.087 A 
HETATM    5  C   UNL     1      39.558 -11.877   3.833  1.00  0.00     0.055 A 
HETATM    6  C   UNL     1      39.609 -10.600   4.655  1.00  0.00     0.019 C 
HETATM    7  N   UNL     1      39.653  -9.540   5.338  1.00  0.00    -0.096 N 
HETATM    8  C   UNL     1      40.348 -13.097   4.336  1.00  0.00     0.104 A 
HETATM    9  C   UNL     1      40.407 -14.261   3.331  1.00  0.00     0.046 A 
HETATM   10  H   UNL     1      38.870 -12.826   0.810  1.00  0.00     0.166 HD
ENDROOT
BRANCH   4  11
HETATM   11  S   UNL     1      38.315 -10.383   1.935  1.00  0.00    -0.102 SA
BRANCH  11  12
HETATM   12  C   UNL     1      36.971 -11.135   0.951  1.00  0.00     0.184 C 
BRANCH  12  13
HETATM   13  C   UNL     1      36.821 -10.425  -0.371  1.00  0.00     0.231 C 
HETATM   14  N   UNL     1      37.466 -10.814  -1.504  1.00  0.00    -0.324 N 
HETATM   15  H   UNL     1      37.307 -10.150  -2.260  1.00  0.00     0.169 HD
HETATM   16  O   UNL     1      36.102  -9.419  -0.446  1.00  0.00    -0.272 OA
BRANCH  14  17
HETATM   17  C   UNL     1      38.352 -11.853  -1.865  1.00  0.00     0.070 A 
HETATM   18  C   UNL     1      39.712 -11.473  -1.998  1.00  0.00     0.095 A 
HETATM   19  C   UNL     1      40.683 -12.423  -2.326  1.00  0.00     0.041 A 
HETATM   20  C   UNL     1      40.315 -13.750  -2.543  1.00  0.00     0.026 A 
HETATM   21  C   UNL     1      38.978 -14.119  -2.437  1.00  0.00     0.036 A 
HETATM   22 CL   UNL     1      38.526 -15.755  -2.727  1.00  0.00    -0.084 Cl
HETATM   23  C   UNL     1      37.999 -13.180  -2.104  1.00  0.00     0.056 A 
BRANCH  18  24
HETATM   24  O   UNL     1      39.970 -10.140  -1.767  1.00  0.00    -0.354 OA
HETATM   25  C   UNL     1      40.959  -9.825  -0.797  1.00  0.00     0.210 C 
ENDBRANCH  18  24
ENDBRANCH  14  17
ENDBRANCH  12  13
ENDBRANCH  11  12
ENDBRANCH   4  11
BRANCH   8  26
HETATM   26  C   UNL     1      41.736 -12.611   4.779  1.00  0.00    -0.044 A 
HETATM   27  C   UNL     1      42.605 -12.031   3.837  1.00  0.00     0.008 A 
HETATM   28  C   UNL     1      43.892 -11.638   4.206  1.00  0.00     0.001 A 
HETATM   29  C   UNL     1      44.327 -11.818   5.516  1.00  0.00     0.000 A 
HETATM   30  C   UNL     1      43.481 -12.400   6.458  1.00  0.00     0.001 A 
HETATM   31  C   UNL     1      42.195 -12.801   6.094  1.00  0.00     0.008 A 
ENDBRANCH   8  26
BRANCH   9  32
HETATM   32  C   UNL     1      40.953 -15.617   3.714  1.00  0.00     0.255 C 
HETATM   33  N   UNL     1      42.227 -15.916   3.299  1.00  0.00    -0.321 N 
HETATM   34  H   UNL     1      42.831 -15.199   2.921  1.00  0.00     0.169 HD
HETATM   35  O   UNL     1      40.278 -16.370   4.415  1.00  0.00    -0.268 OA
BRANCH  33  36
HETATM   36  C   UNL     1      42.858 -17.185   3.311  1.00  0.00     0.068 A 
HETATM   37  C   UNL     1      43.729 -17.463   4.387  1.00  0.00     0.095 A 
HETATM   38  C   UNL     1      44.428 -18.674   4.421  1.00  0.00     0.039 A 
HETATM   39  C   UNL     1      44.275 -19.601   3.388  1.00  0.00     0.003 A 
HETATM   40  C   UNL     1      43.419 -19.327   2.325  1.00  0.00     0.002 A 
HETATM   41  C   UNL     1      42.710 -18.125   2.288  1.00  0.00     0.032 A 
BRANCH  37  42
HETATM   42  O   UNL     1      43.806 -16.486   5.353  1.00  0.00    -0.354 OA
HETATM   43  C   UNL     1      43.400 -16.843   6.668  1.00  0.00     0.210 C 
ENDBRANCH  37  42
ENDBRANCH  33  36
ENDBRANCH   9  32
TORSDOF 9
ENDMDL
MODEL 2
REMARK VINA RESULT:      -8.9      2.079      2.438
REMARK  9 active torsions:
REMARK  status: ('A' for Active; 'I' for Inactive)
REMARK    1  A    between atoms: C_4  and  S_5 
REMARK    2  A    between atoms: S_5  and  C_6 
REMARK    3  A    between atoms: C_6  and  C_7 
REMARK       I    between atoms: C_7  and  N_8 
REMARK    4  A    between atoms: N_8  and  C_9 
REMARK    5  A    between atoms: C_10  and  O_11 
REMARK    6  A    between atoms: C_22  and  C_23 
REMARK    7  A    between atoms: C_29  and  C_30 
REMARK       I    between atoms: C_30  and  N_31 
REMARK    8  A    between atoms: N_31  and  C_32 
REMARK    9  A    between atoms: C_33  and  O_34 
ROOT
HETATM    1  C   UNL     1      39.578 -14.367   2.293  1.00  0.00     0.069 C 
HETATM    2  C   UNL     1      39.833 -13.503   3.509  1.00  0.00     0.019 A 
HETATM    3  N   UNL     1      39.193 -12.277   3.483  1.00  0.00    -0.353 N 
HETATM    4  C   UNL     1      39.321 -11.284   4.424  1.00  0.00     0.087 A 
HETATM    5  C   UNL     1      40.093 -11.502   5.512  1.00  0.00     0.055 A 
HETATM    6  C   UNL     1      40.425 -10.340   6.434  1.00  0.00     0.019 C 
HETATM    7  N   UNL     1      40.701  -9.375   7.199  1.00  0.00    -0.096 N 
HETATM    8  C   UNL     1      40.903 -12.801   5.663  1.00  0.00     0.104 A 
HETATM    9  C   UNL     1      40.641 -13.832   4.551  1.00  0.00     0.046 A 
HETATM   10  H   UNL     1      38.633 -12.043   2.669  1.00  0.00     0.166 HD
ENDROOT
BRANCH   4  11
HETATM   11  S   UNL     1      38.526  -9.741   4.164  1.00  0.00    -0.102 SA
BRANCH  11  12
HETATM   12  C   UNL     1      39.184  -9.323   2.511  1.00  0.00     0.184 C 
BRANCH  12  13
HETATM   13  C   UNL     1      40.686  -9.190   2.556  1.00  0.00     0.231 C 
HETATM   14  N   UNL     1      41.508  -9.686   1.592  1.00  0.00    -0.324 N 
HETATM   15  H   UNL     1      42.486  -9.577   1.857  1.00  0.00     0.169 HD
HETATM   16  O   UNL     1      41.220  -8.629   3.523  1.00  0.00    -0.272 OA
BRANCH  14  17
HETATM   17  C   UNL     1      41.344 -10.376   0.371  1.00  0.00     0.070 A 
HETATM   18  C   UNL     1      41.640  -9.624  -0.795  1.00  0.00     0.095 A 
HETATM   19  C   UNL     1      41.538 -10.212  -2.059  1.00  0.00     0.041 A 
HETATM   20  C   UNL     1      41.126 -11.538  -2.180  1.00  0.00     0.026 A 
HETATM   21  C   UNL     1      40.812 -12.268  -1.039  1.00  0.00     0.036 A 
HETATM   22 CL   UNL     1      40.282 -13.899  -1.197  1.00  0.00    -0.084 Cl
HETATM   23  C   UNL     1      40.914 -11.694   0.230  1.00  0.00     0.056 A 
BRANCH  18  24
HETATM   24  O   UNL     1      42.034  -8.325  -0.568  1.00  0.00    -0.354 OA
HETATM   25  C   UNL     1      43.076  -7.806  -1.383  1.00  0.00     0.210 C 
ENDBRANCH  18  24
ENDBRANCH  14  17
ENDBRANCH  12  13
ENDBRANCH  11  12
ENDBRANCH   4  11
BRANCH   8  26
HETATM   26  C   UNL     1      42.385 -12.423   5.798  1.00  0.00    -0.044 A 
HETATM   27  C   UNL     1      43.037 -11.768   4.737  1.00  0.00     0.008 A 
HETATM   28  C   UNL     1      44.397 -11.469   4.816  1.00  0.00     0.001 A 
HETATM   29  C   UNL     1      45.123 -11.818   5.952  1.00  0.00     0.000 A 
HETATM   30  C   UNL     1      44.493 -12.474   7.008  1.00  0.00     0.001 A 
HETATM   31  C   UNL     1      43.133 -12.783   6.932  1.00  0.00     0.008 A 
ENDBRANCH   8  26
BRANCH   9  32
HETATM   32  C   UNL     1      41.176 -15.244   4.630  1.00  0.00     0.255 C 
HETATM   33  N   UNL     1      42.323 -15.516   3.928  1.00  0.00    -0.321 N 
HETATM   34  H   UNL     1      42.879 -14.770   3.533  1.00  0.00     0.169 HD
HETATM   35  O   UNL     1      40.613 -16.069   5.348  1.00  0.00    -0.268 OA
BRANCH  33  36
HETATM   36  C   UNL     1      42.873 -16.792   3.642  1.00  0.00     0.068 A 
HETATM   37  C   UNL     1      43.868 -17.276   4.518  1.00  0.00     0.095 A 
HETATM   38  C   UNL     1      44.492 -18.500   4.253  1.00  0.00     0.039 A 
HETATM   39  C   UNL     1      44.139 -19.235   3.120  1.00  0.00     0.003 A 
HETATM   40  C   UNL     1      43.160 -18.757   2.253  1.00  0.00     0.002 A 
HETATM   41  C   UNL     1      42.526 -17.541   2.516  1.00  0.00     0.032 A 
BRANCH  37  42
HETATM   42  O   UNL     1      44.139 -16.478   5.606  1.00  0.00    -0.354 OA
HETATM   43  C   UNL     1      43.785 -16.987   6.886  1.00  0.00     0.210 C 
ENDBRANCH  37  42
ENDBRANCH  33  36
ENDBRANCH   9  32
TORSDOF 9
ENDMDL
MODEL 3
REMARK VINA RESULT:      -8.2      4.570      8.938
REMARK  9 active torsions:
REMARK  status: ('A' for Active; 'I' for Inactive)
REMARK    1  A    between atoms: C_4  and  S_5 
REMARK    2  A    between atoms: S_5  and  C_6 
REMARK    3  A    between atoms: C_6  and  C_7 
REMARK       I    between atoms: C_7  and  N_8 
REMARK    4  A    between atoms: N_8  and  C_9 
REMARK    5  A    between atoms: C_10  and  O_11 
REMARK    6  A    between atoms: C_22  and  C_23 
REMARK    7  A    between atoms: C_29  and  C_30 
REMARK       I    between atoms: C_30  and  N_31 
REMARK    8  A    between atoms: N_31  and  C_32 
REMARK    9  A    between atoms: C_33  and  O_34 
ROOT
HETATM    1  C   UNL     1      41.620 -10.321   1.437  1.00  0.00     0.069 C 
HETATM    2  C   UNL     1      41.742 -11.379   2.512  1.00  0.00     0.019 A 
HETATM    3  N   UNL     1      42.556 -11.026   3.572  1.00  0.00    -0.353 N 
HETATM    4  C   UNL     1      42.890 -11.832   4.633  1.00  0.00     0.087 A 
HETATM    5  C   UNL     1      42.358 -13.073   4.711  1.00  0.00     0.055 A 
HETATM    6  C   UNL     1      42.895 -14.049   5.746  1.00  0.00     0.019 C 
HETATM    7  N   UNL     1      43.341 -14.859   6.603  1.00  0.00    -0.096 N 
HETATM    8  C   UNL     1      41.467 -13.625   3.587  1.00  0.00     0.104 A 
HETATM    9  C   UNL     1      41.155 -12.604   2.478  1.00  0.00     0.046 A 
HETATM   10  H   UNL     1      43.017 -10.120   3.545  1.00  0.00     0.166 HD
ENDROOT
BRANCH   4  11
HETATM   11  S   UNL     1      44.039 -11.255   5.828  1.00  0.00    -0.102 SA
BRANCH  11  12
HETATM   12  C   UNL     1      42.913 -10.986   7.243  1.00  0.00     0.184 C 
BRANCH  12  13
HETATM   13  C   UNL     1      42.320  -9.600   7.192  1.00  0.00     0.231 C 
HETATM   14  N   UNL     1      42.090  -8.846   8.301  1.00  0.00    -0.324 N 
HETATM   15  H   UNL     1      41.599  -7.986   8.061  1.00  0.00     0.169 HD
HETATM   16  O   UNL     1      41.992  -9.116   6.100  1.00  0.00    -0.272 OA
BRANCH  14  17
HETATM   17  C   UNL     1      42.291  -8.993   9.691  1.00  0.00     0.070 A 
HETATM   18  C   UNL     1      43.587  -8.653  10.157  1.00  0.00     0.095 A 
HETATM   19  C   UNL     1      43.893  -8.736  11.518  1.00  0.00     0.041 A 
HETATM   20  C   UNL     1      42.927  -9.170  12.424  1.00  0.00     0.026 A 
HETATM   21  C   UNL     1      41.664  -9.527  11.966  1.00  0.00     0.036 A 
HETATM   22 CL   UNL     1      40.482 -10.084  13.087  1.00  0.00    -0.084 Cl
HETATM   23  C   UNL     1      41.344  -9.444  10.608  1.00  0.00     0.056 A 
BRANCH  18  24
HETATM   24  O   UNL     1      44.468  -8.240   9.183  1.00  0.00    -0.354 OA
HETATM   25  C   UNL     1      45.611  -9.050   8.948  1.00  0.00     0.210 C 
ENDBRANCH  18  24
ENDBRANCH  14  17
ENDBRANCH  12  13
ENDBRANCH  11  12
ENDBRANCH   4  11
BRANCH   8  26
HETATM   26  C   UNL     1      42.116 -14.913   3.056  1.00  0.00    -0.044 A 
HETATM   27  C   UNL     1      43.181 -14.829   2.142  1.00  0.00     0.008 A 
HETATM   28  C   UNL     1      43.746 -15.986   1.603  1.00  0.00     0.001 A 
HETATM   29  C   UNL     1      43.256 -17.236   1.969  1.00  0.00     0.000 A 
HETATM   30  C   UNL     1      42.195 -17.334   2.867  1.00  0.00     0.001 A 
HETATM   31  C   UNL     1      41.621 -16.181   3.405  1.00  0.00     0.008 A 
ENDBRANCH   8  26
BRANCH   9  32
HETATM   32  C   UNL     1      40.133 -12.886   1.400  1.00  0.00     0.255 C 
HETATM   33  N   UNL     1      40.583 -13.508   0.262  1.00  0.00    -0.321 N 
HETATM   34  H   UNL     1      41.505 -13.921   0.226  1.00  0.00     0.169 HD
HETATM   35  O   UNL     1      38.951 -12.606   1.593  1.00  0.00    -0.268 OA
BRANCH  33  36
HETATM   36  C   UNL     1      39.893 -13.650  -0.968  1.00  0.00     0.068 A 
HETATM   37  C   UNL     1      39.766 -12.497  -1.774  1.00  0.00     0.095 A 
HETATM   38  C   UNL     1      39.042 -12.560  -2.969  1.00  0.00     0.039 A 
HETATM   39  C   UNL     1      38.437 -13.757  -3.359  1.00  0.00     0.003 A 
HETATM   40  C   UNL     1      38.559 -14.893  -2.565  1.00  0.00     0.002 A 
HETATM   41  C   UNL     1      39.289 -14.841  -1.375  1.00  0.00     0.032 A 
BRANCH  37  42
HETATM   42  O   UNL     1      40.401 -11.372  -1.300  1.00  0.00    -0.354 OA
HETATM   43  C   UNL     1      41.145 -10.606  -2.239  1.00  0.00     0.210 C 
ENDBRANCH  37  42
ENDBRANCH  33  36
ENDBRANCH   9  32
TORSDOF 9
ENDMDL
MODEL 4
REMARK VINA RESULT:      -8.2      5.024      9.351
REMARK  9 active torsions:
REMARK  status: ('A' for Active; 'I' for Inactive)
REMARK    1  A    between atoms: C_4  and  S_5 
REMARK    2  A    between atoms: S_5  and  C_6 
REMARK    3  A    between atoms: C_6  and  C_7 
REMARK       I    between atoms: C_7  and  N_8 
REMARK    4  A    between atoms: N_8  and  C_9 
REMARK    5  A    between atoms: C_10  and  O_11 
REMARK    6  A    between atoms: C_22  and  C_23 
REMARK    7  A    between atoms: C_29  and  C_30 
REMARK       I    between atoms: C_30  and  N_31 
REMARK    8  A    between atoms: N_31  and  C_32 
REMARK    9  A    between atoms: C_33  and  O_34 
ROOT
HETATM    1  C   UNL     1      41.537 -10.015   3.288  1.00  0.00     0.069 C 
HETATM    2  C   UNL     1      41.837 -11.314   4.002  1.00  0.00     0.019 A 
HETATM    3  N   UNL     1      42.843 -11.229   4.946  1.00  0.00    -0.353 N 
HETATM    4  C   UNL     1      43.353 -12.276   5.673  1.00  0.00     0.087 A 
HETATM    5  C   UNL     1      42.820 -13.510   5.517  1.00  0.00     0.055 A 
HETATM    6  C   UNL     1      43.522 -14.708   6.137  1.00  0.00     0.019 C 
HETATM    7  N   UNL     1      44.104 -15.702   6.650  1.00  0.00    -0.096 N 
HETATM    8  C   UNL     1      41.722 -13.772   4.473  1.00  0.00     0.104 A 
HETATM    9  C   UNL     1      41.229 -12.505   3.753  1.00  0.00     0.046 A 
HETATM   10  H   UNL     1      43.308 -10.335   5.075  1.00  0.00     0.166 HD
ENDROOT
BRANCH   4  11
HETATM   11  S   UNL     1      44.717 -12.002   6.743  1.00  0.00    -0.102 SA
BRANCH  11  12
HETATM   12  C   UNL     1      44.056 -10.628   7.751  1.00  0.00     0.184 C 
BRANCH  12  13
HETATM   13  C   UNL     1      45.177  -9.756   8.259  1.00  0.00     0.231 C 
HETATM   14  N   UNL     1      45.028  -8.870   9.282  1.00  0.00    -0.324 N 
HETATM   15  H   UNL     1      45.872  -8.313   9.406  1.00  0.00     0.169 HD
HETATM   16  O   UNL     1      46.289  -9.812   7.716  1.00  0.00    -0.272 OA
BRANCH  14  17
HETATM   17  C   UNL     1      43.982  -8.482  10.148  1.00  0.00     0.070 A 
HETATM   18  C   UNL     1      43.097  -7.502   9.631  1.00  0.00     0.095 A 
HETATM   19  C   UNL     1      42.010  -7.061  10.390  1.00  0.00     0.041 A 
HETATM   20  C   UNL     1      41.801  -7.570  11.670  1.00  0.00     0.026 A 
HETATM   21  C   UNL     1      42.682  -8.513  12.188  1.00  0.00     0.036 A 
HETATM   22 CL   UNL     1      42.431  -9.123  13.778  1.00  0.00    -0.084 Cl
HETATM   23  C   UNL     1      43.770  -8.966  11.437  1.00  0.00     0.056 A 
BRANCH  18  24
HETATM   24  O   UNL     1      43.393  -7.061   8.360  1.00  0.00    -0.354 OA
HETATM   25  C   UNL     1      42.355  -7.115   7.392  1.00  0.00     0.210 C 
ENDBRANCH  18  24
ENDBRANCH  14  17
ENDBRANCH  12  13
ENDBRANCH  11  12
ENDBRANCH   4  11
BRANCH   8  26
HETATM   26  C   UNL     1      42.234 -14.853   3.509  1.00  0.00    -0.044 A 
HETATM   27  C   UNL     1      41.838 -16.191   3.689  1.00  0.00     0.008 A 
HETATM   28  C   UNL     1      42.338 -17.196   2.861  1.00  0.00     0.001 A 
HETATM   29  C   UNL     1      43.238 -16.881   1.846  1.00  0.00     0.000 A 
HETATM   30  C   UNL     1      43.646 -15.561   1.661  1.00  0.00     0.001 A 
HETATM   31  C   UNL     1      43.155 -14.551   2.490  1.00  0.00     0.008 A 
ENDBRANCH   8  26
BRANCH   9  32
HETATM   32  C   UNL     1      40.018 -12.522   2.849  1.00  0.00     0.255 C 
HETATM   33  N   UNL     1      40.246 -12.664   1.503  1.00  0.00    -0.321 N 
HETATM   34  H   UNL     1      41.158 -12.929   1.157  1.00  0.00     0.169 HD
HETATM   35  O   UNL     1      38.891 -12.465   3.339  1.00  0.00    -0.268 OA
BRANCH  33  36
HETATM   36  C   UNL     1      39.320 -12.461   0.449  1.00  0.00     0.068 A 
HETATM   37  C   UNL     1      39.327 -13.400  -0.606  1.00  0.00     0.095 A 
HETATM   38  C   UNL     1      38.481 -13.218  -1.704  1.00  0.00     0.039 A 
HETATM   39  C   UNL     1      37.638 -12.106  -1.763  1.00  0.00     0.003 A 
HETATM   40  C   UNL     1      37.633 -11.178  -0.725  1.00  0.00     0.002 A 
HETATM   41  C   UNL     1      38.468 -11.357   0.379  1.00  0.00     0.032 A 
BRANCH  37  42
HETATM   42  O   UNL     1      40.191 -14.460  -0.448  1.00  0.00    -0.354 OA
HETATM   43  C   UNL     1      39.761 -15.524   0.391  1.00  0.00     0.210 C 
ENDBRANCH  37  42
ENDBRANCH  33  36
ENDBRANCH   9  32
TORSDOF 9
ENDMDL
MODEL 5
REMARK VINA RESULT:      -8.2      5.596      9.267
REMARK  9 active torsions:
REMARK  status: ('A' for Active; 'I' for Inactive)
REMARK    1  A    between atoms: C_4  and  S_5 
REMARK    2  A    between atoms: S_5  and  C_6 
REMARK    3  A    between atoms: C_6  and  C_7 
REMARK       I    between atoms: C_7  and  N_8 
REMARK    4  A    between atoms: N_8  and  C_9 
REMARK    5  A    between atoms: C_10  and  O_11 
REMARK    6  A    between atoms: C_22  and  C_23 
REMARK    7  A    between atoms: C_29  and  C_30 
REMARK       I    between atoms: C_30  and  N_31 
REMARK    8  A    between atoms: N_31  and  C_32 
REMARK    9  A    between atoms: C_33  and  O_34 
ROOT
HETATM    1  C   UNL     1      44.764 -10.046   8.984  1.00  0.00     0.069 C 
HETATM    2  C   UNL     1      43.359  -9.952   8.431  1.00  0.00     0.019 A 
HETATM    3  N   UNL     1      43.112 -10.782   7.354  1.00  0.00    -0.353 N 
HETATM    4  C   UNL     1      41.948 -10.832   6.627  1.00  0.00     0.087 A 
HETATM    5  C   UNL     1      40.908 -10.049   6.993  1.00  0.00     0.055 A 
HETATM    6  C   UNL     1      39.709  -9.924   6.068  1.00  0.00     0.019 C 
HETATM    7  N   UNL     1      38.713  -9.819   5.300  1.00  0.00    -0.096 N 
HETATM    8  C   UNL     1      41.043  -9.040   8.146  1.00  0.00     0.104 A 
HETATM    9  C   UNL     1      42.390  -9.115   8.887  1.00  0.00     0.046 A 
HETATM   10  H   UNL     1      43.872 -11.362   7.008  1.00  0.00     0.166 HD
ENDROOT
BRANCH   4  11
HETATM   11  S   UNL     1      41.857 -11.864   5.210  1.00  0.00    -0.102 SA
BRANCH  11  12
HETATM   12  C   UNL     1      41.993 -13.504   6.007  1.00  0.00     0.184 C 
BRANCH  12  13
HETATM   13  C   UNL     1      40.700 -14.270   5.868  1.00  0.00     0.231 C 
HETATM   14  N   UNL     1      40.583 -15.408   5.131  1.00  0.00    -0.324 N 
HETATM   15  H   UNL     1      39.612 -15.714   5.088  1.00  0.00     0.169 HD
HETATM   16  O   UNL     1      39.676 -13.844   6.419  1.00  0.00    -0.272 OA
BRANCH  14  17
HETATM   17  C   UNL     1      41.448 -16.214   4.359  1.00  0.00     0.070 A 
HETATM   18  C   UNL     1      41.154 -16.265   2.972  1.00  0.00     0.095 A 
HETATM   19  C   UNL     1      41.959 -17.010   2.106  1.00  0.00     0.041 A 
HETATM   20  C   UNL     1      43.046 -17.724   2.606  1.00  0.00     0.026 A 
HETATM   21  C   UNL     1      43.320 -17.696   3.969  1.00  0.00     0.036 A 
HETATM   22 CL   UNL     1      44.652 -18.598   4.584  1.00  0.00    -0.084 Cl
HETATM   23  C   UNL     1      42.527 -16.950   4.845  1.00  0.00     0.056 A 
BRANCH  18  24
HETATM   24  O   UNL     1      40.059 -15.528   2.581  1.00  0.00    -0.354 OA
HETATM   25  C   UNL     1      40.052 -15.024   1.252  1.00  0.00     0.210 C 
ENDBRANCH  18  24
ENDBRANCH  14  17
ENDBRANCH  12  13
ENDBRANCH  11  12
ENDBRANCH   4  11
BRANCH   8  26
HETATM   26  C   UNL     1      40.736  -7.641   7.591  1.00  0.00    -0.044 A 
HETATM   27  C   UNL     1      41.663  -7.012   6.740  1.00  0.00     0.008 A 
HETATM   28  C   UNL     1      41.431  -5.718   6.272  1.00  0.00     0.001 A 
HETATM   29  C   UNL     1      40.276  -5.038   6.646  1.00  0.00     0.000 A 
HETATM   30  C   UNL     1      39.353  -5.645   7.496  1.00  0.00     0.001 A 
HETATM   31  C   UNL     1      39.582  -6.937   7.973  1.00  0.00     0.008 A 
ENDBRANCH   8  26
BRANCH   9  32
HETATM   32  C   UNL     1      42.636  -8.358  10.171  1.00  0.00     0.255 C 
HETATM   33  N   UNL     1      42.363  -9.014  11.345  1.00  0.00    -0.321 N 
HETATM   34  H   UNL     1      42.186 -10.010  11.353  1.00  0.00     0.169 HD
HETATM   35  O   UNL     1      43.114  -7.225  10.128  1.00  0.00    -0.268 OA
BRANCH  33  36
HETATM   36  C   UNL     1      42.271  -8.451  12.643  1.00  0.00     0.068 A 
HETATM   37  C   UNL     1      41.028  -8.555  13.304  1.00  0.00     0.095 A 
HETATM   38  C   UNL     1      40.857  -7.964  14.561  1.00  0.00     0.039 A 
HETATM   39  C   UNL     1      41.909  -7.264  15.154  1.00  0.00     0.003 A 
HETATM   40  C   UNL     1      43.134  -7.158  14.502  1.00  0.00     0.002 A 
HETATM   41  C   UNL     1      43.316  -7.753  13.252  1.00  0.00     0.032 A 
BRANCH  37  42
HETATM   42  O   UNL     1      40.059  -9.269  12.636  1.00  0.00    -0.354 OA
HETATM   43  C   UNL     1      39.709 -10.540  13.167  1.00  0.00     0.210 C 
ENDBRANCH  37  42
ENDBRANCH  33  36
ENDBRANCH   9  32
TORSDOF 9
ENDMDL
MODEL 6
REMARK VINA RESULT:      -8.1      3.020      5.957
REMARK  9 active torsions:
REMARK  status: ('A' for Active; 'I' for Inactive)
REMARK    1  A    between atoms: C_4  and  S_5 
REMARK    2  A    between atoms: S_5  and  C_6 
REMARK    3  A    between atoms: C_6  and  C_7 
REMARK       I    between atoms: C_7  and  N_8 
REMARK    4  A    between atoms: N_8  and  C_9 
REMARK    5  A    between atoms: C_10  and  O_11 
REMARK    6  A    between atoms: C_22  and  C_23 
REMARK    7  A    between atoms: C_29  and  C_30 
REMARK       I    between atoms: C_30  and  N_31 
REMARK    8  A    between atoms: N_31  and  C_32 
REMARK    9  A    between atoms: C_33  and  O_34 
ROOT
HETATM    1  C   UNL     1      41.714 -10.512   3.050  1.00  0.00     0.069 C 
HETATM    2  C   UNL     1      42.035 -11.985   2.931  1.00  0.00     0.019 A 
HETATM    3  N   UNL     1      41.255 -12.669   2.018  1.00  0.00    -0.353 N 
HETATM    4  C   UNL     1      41.295 -14.021   1.779  1.00  0.00     0.087 A 
HETATM    5  C   UNL     1      42.197 -14.781   2.440  1.00  0.00     0.055 A 
HETATM    6  C   UNL     1      42.097 -16.296   2.358  1.00  0.00     0.019 C 
HETATM    7  N   UNL     1      42.013 -17.552   2.291  1.00  0.00    -0.096 N 
HETATM    8  C   UNL     1      43.107 -14.172   3.520  1.00  0.00     0.104 A 
HETATM    9  C   UNL     1      42.973 -12.645   3.660  1.00  0.00     0.046 A 
HETATM   10  H   UNL     1      40.531 -12.156   1.522  1.00  0.00     0.166 HD
ENDROOT
BRANCH   4  11
HETATM   11  S   UNL     1      40.141 -14.736   0.666  1.00  0.00    -0.102 SA
BRANCH  11  12
HETATM   12  C   UNL     1      40.544 -13.800  -0.851  1.00  0.00     0.184 C 
BRANCH  12  13
HETATM   13  C   UNL     1      39.298 -13.190  -1.444  1.00  0.00     0.231 C 
HETATM   14  N   UNL     1      39.045 -11.853  -1.434  1.00  0.00    -0.324 N 
HETATM   15  H   UNL     1      38.112 -11.658  -1.795  1.00  0.00     0.169 HD
HETATM   16  O   UNL     1      38.437 -13.926  -1.945  1.00  0.00    -0.272 OA
BRANCH  14  17
HETATM   17  C   UNL     1      39.712 -10.694  -0.982  1.00  0.00     0.070 A 
HETATM   18  C   UNL     1      39.096 -10.024   0.107  1.00  0.00     0.095 A 
HETATM   19  C   UNL     1      39.682  -8.880   0.654  1.00  0.00     0.041 A 
HETATM   20  C   UNL     1      40.868  -8.380   0.120  1.00  0.00     0.026 A 
HETATM   21  C   UNL     1      41.460  -9.021  -0.962  1.00  0.00     0.036 A 
HETATM   22 CL   UNL     1      42.914  -8.386  -1.632  1.00  0.00    -0.084 Cl
HETATM   23  C   UNL     1      40.887 -10.169  -1.516  1.00  0.00     0.056 A 
BRANCH  18  24
HETATM   24  O   UNL     1      37.928 -10.596   0.558  1.00  0.00    -0.354 OA
HETATM   25  C   UNL     1      37.911 -11.079   1.893  1.00  0.00     0.210 C 
ENDBRANCH  18  24
ENDBRANCH  14  17
ENDBRANCH  12  13
ENDBRANCH  11  12
ENDBRANCH   4  11
BRANCH   8  26
HETATM   26  C   UNL     1      42.851 -14.923   4.835  1.00  0.00    -0.044 A 
HETATM   27  C   UNL     1      41.619 -14.770   5.496  1.00  0.00     0.008 A 
HETATM   28  C   UNL     1      41.389 -15.397   6.721  1.00  0.00     0.001 A 
HETATM   29  C   UNL     1      42.382 -16.182   7.300  1.00  0.00     0.000 A 
HETATM   30  C   UNL     1      43.611 -16.336   6.661  1.00  0.00     0.001 A 
HETATM   31  C   UNL     1      43.850 -15.706   5.439  1.00  0.00     0.008 A 
ENDBRANCH   8  26
BRANCH   9  32
HETATM   32  C   UNL     1      43.925 -11.837   4.513  1.00  0.00     0.255 C 
HETATM   33  N   UNL     1      43.670 -11.792   5.861  1.00  0.00    -0.321 N 
HETATM   34  H   UNL     1      42.994 -12.416   6.282  1.00  0.00     0.169 HD
HETATM   35  O   UNL     1      44.904 -11.303   3.994  1.00  0.00    -0.268 OA
BRANCH  33  36
HETATM   36  C   UNL     1      44.250 -10.920   6.816  1.00  0.00     0.068 A 
HETATM   37  C   UNL     1      43.420  -9.914   7.358  1.00  0.00     0.095 A 
HETATM   38  C   UNL     1      43.953  -8.984   8.258  1.00  0.00     0.039 A 
HETATM   39  C   UNL     1      45.302  -9.044   8.611  1.00  0.00     0.003 A 
HETATM   40  C   UNL     1      46.121 -10.034   8.075  1.00  0.00     0.002 A 
HETATM   41  C   UNL     1      45.596 -10.971   7.184  1.00  0.00     0.032 A 
BRANCH  37  42
HETATM   42  O   UNL     1      42.107  -9.945   6.948  1.00  0.00    -0.354 OA
HETATM   43  C   UNL     1      41.598  -8.776   6.319  1.00  0.00     0.210 C 
ENDBRANCH  37  42
ENDBRANCH  33  36
ENDBRANCH   9  32
TORSDOF 9
ENDMDL
MODEL 7
REMARK VINA RESULT:      -8.1      3.804      7.393
REMARK  9 active torsions:
REMARK  status: ('A' for Active; 'I' for Inactive)
REMARK    1  A    between atoms: C_4  and  S_5 
REMARK    2  A    between atoms: S_5  and  C_6 
REMARK    3  A    between atoms: C_6  and  C_7 
REMARK       I    between atoms: C_7  and  N_8 
REMARK    4  A    between atoms: N_8  and  C_9 
REMARK    5  A    between atoms: C_10  and  O_11 
REMARK    6  A    between atoms: C_22  and  C_23 
REMARK    7  A    between atoms: C_29  and  C_30 
REMARK       I    between atoms: C_30  and  N_31 
REMARK    8  A    between atoms: N_31  and  C_32 
REMARK    9  A    between atoms: C_33  and  O_34 
ROOT
HETATM    1  C   UNL     1      40.138 -13.746   5.987  1.00  0.00     0.069 C 
HETATM    2  C   UNL     1      40.623 -13.002   4.762  1.00  0.00     0.019 A 
HETATM    3  N   UNL     1      40.615 -11.625   4.889  1.00  0.00    -0.353 N 
HETATM    4  C   UNL     1      40.933 -10.725   3.902  1.00  0.00     0.087 A 
HETATM    5  C   UNL     1      41.342 -11.185   2.697  1.00  0.00     0.055 A 
HETATM    6  C   UNL     1      41.473 -10.213   1.535  1.00  0.00     0.019 C 
HETATM    7  N   UNL     1      41.581  -9.408   0.570  1.00  0.00    -0.096 N 
HETATM    8  C   UNL     1      41.363 -12.691   2.389  1.00  0.00     0.104 A 
HETATM    9  C   UNL     1      41.010 -13.580   3.594  1.00  0.00     0.046 A 
HETATM   10  H   UNL     1      40.276 -11.223   5.758  1.00  0.00     0.166 HD
ENDROOT
BRANCH   4  11
HETATM   11  S   UNL     1      40.749  -9.007   4.207  1.00  0.00    -0.102 SA
BRANCH  11  12
HETATM   12  C   UNL     1      41.729  -8.853   5.742  1.00  0.00     0.184 C 
BRANCH  12  13
HETATM   13  C   UNL     1      40.929  -9.324   6.931  1.00  0.00     0.231 C 
HETATM   14  N   UNL     1      41.498  -9.742   8.095  1.00  0.00    -0.324 N 
HETATM   15  H   UNL     1      40.793 -10.108   8.733  1.00  0.00     0.169 HD
HETATM   16  O   UNL     1      39.693  -9.368   6.857  1.00  0.00    -0.272 OA
BRANCH  14  17
HETATM   17  C   UNL     1      42.811  -9.865   8.598  1.00  0.00     0.070 A 
HETATM   18  C   UNL     1      42.954  -9.623   9.989  1.00  0.00     0.095 A 
HETATM   19  C   UNL     1      44.203  -9.741  10.602  1.00  0.00     0.041 A 
HETATM   20  C   UNL     1      45.322 -10.081   9.844  1.00  0.00     0.026 A 
HETATM   21  C   UNL     1      45.189 -10.295   8.477  1.00  0.00     0.036 A 
HETATM   22 CL   UNL     1      46.579 -10.693   7.542  1.00  0.00    -0.084 Cl
HETATM   23  C   UNL     1      43.944 -10.184   7.852  1.00  0.00     0.056 A 
BRANCH  18  24
HETATM   24  O   UNL     1      41.790  -9.291  10.645  1.00  0.00    -0.354 OA
HETATM   25  C   UNL     1      41.712  -9.594  12.031  1.00  0.00     0.210 C 
ENDBRANCH  18  24
ENDBRANCH  14  17
ENDBRANCH  12  13
ENDBRANCH  11  12
ENDBRANCH   4  11
BRANCH   8  26
HETATM   26  C   UNL     1      40.460 -12.938   1.171  1.00  0.00    -0.044 A 
HETATM   27  C   UNL     1      40.885 -13.813   0.155  1.00  0.00     0.008 A 
HETATM   28  C   UNL     1      40.107 -14.005  -0.987  1.00  0.00     0.001 A 
HETATM   29  C   UNL     1      38.898 -13.330  -1.129  1.00  0.00     0.000 A 
HETATM   30  C   UNL     1      38.468 -12.453  -0.134  1.00  0.00     0.001 A 
HETATM   31  C   UNL     1      39.245 -12.251   1.008  1.00  0.00     0.008 A 
ENDBRANCH   8  26
BRANCH   9  32
HETATM   32  C   UNL     1      41.177 -15.082   3.553  1.00  0.00     0.255 C 
HETATM   33  N   UNL     1      42.429 -15.578   3.814  1.00  0.00    -0.321 N 
HETATM   34  H   UNL     1      43.153 -14.984   4.195  1.00  0.00     0.169 HD
HETATM   35  O   UNL     1      40.198 -15.798   3.347  1.00  0.00    -0.268 OA
BRANCH  33  36
HETATM   36  C   UNL     1      42.893 -16.900   3.594  1.00  0.00     0.068 A 
HETATM   37  C   UNL     1      43.672 -17.488   4.613  1.00  0.00     0.095 A 
HETATM   38  C   UNL     1      44.210 -18.766   4.427  1.00  0.00     0.039 A 
HETATM   39  C   UNL     1      43.986 -19.453   3.233  1.00  0.00     0.003 A 
HETATM   40  C   UNL     1      43.221 -18.873   2.225  1.00  0.00     0.002 A 
HETATM   41  C   UNL     1      42.672 -17.602   2.407  1.00  0.00     0.032 A 
BRANCH  37  42
HETATM   42  O   UNL     1      43.830 -16.729   5.750  1.00  0.00    -0.354 OA
HETATM   43  C   UNL     1      43.317 -17.266   6.962  1.00  0.00     0.210 C 
ENDBRANCH  37  42
ENDBRANCH  33  36
ENDBRANCH   9  32
TORSDOF 9
ENDMDL
MODEL 8
REMARK VINA RESULT:      -7.9      1.768      2.345
REMARK  9 active torsions:
REMARK  status: ('A' for Active; 'I' for Inactive)
REMARK    1  A    between atoms: C_4  and  S_5 
REMARK    2  A    between atoms: S_5  and  C_6 
REMARK    3  A    between atoms: C_6  and  C_7 
REMARK       I    between atoms: C_7  and  N_8 
REMARK    4  A    between atoms: N_8  and  C_9 
REMARK    5  A    between atoms: C_10  and  O_11 
REMARK    6  A    between atoms: C_22  and  C_23 
REMARK    7  A    between atoms: C_29  and  C_30 
REMARK       I    between atoms: C_30  and  N_31 
REMARK    8  A    between atoms: N_31  and  C_32 
REMARK    9  A    between atoms: C_33  and  O_34 
ROOT
HETATM    1  C   UNL     1      39.935 -15.336   0.973  1.00  0.00     0.069 C 
HETATM    2  C   UNL     1      39.859 -14.273   2.046  1.00  0.00     0.019 A 
HETATM    3  N   UNL     1      39.211 -13.114   1.660  1.00  0.00    -0.353 N 
HETATM    4  C   UNL     1      39.075 -11.977   2.418  1.00  0.00     0.087 A 
HETATM    5  C   UNL     1      39.563 -11.964   3.680  1.00  0.00     0.055 A 
HETATM    6  C   UNL     1      39.625 -10.649   4.439  1.00  0.00     0.019 C 
HETATM    7  N   UNL     1      39.677  -9.558   5.070  1.00  0.00    -0.096 N 
HETATM    8  C   UNL     1      40.347 -13.163   4.239  1.00  0.00     0.104 A 
HETATM    9  C   UNL     1      40.396 -14.374   3.291  1.00  0.00     0.046 A 
HETATM   10  H   UNL     1      38.861 -13.053   0.707  1.00  0.00     0.166 HD
ENDROOT
BRANCH   4  11
HETATM   11  S   UNL     1      38.325 -10.555   1.716  1.00  0.00    -0.102 SA
BRANCH  11  12
HETATM   12  C   UNL     1      39.812  -9.682   1.109  1.00  0.00     0.184 C 
BRANCH  12  13
HETATM   13  C   UNL     1      40.622 -10.579   0.206  1.00  0.00     0.231 C 
HETATM   14  N   UNL     1      40.308 -10.803  -1.099  1.00  0.00    -0.324 N 
HETATM   15  H   UNL     1      40.920 -11.510  -1.504  1.00  0.00     0.169 HD
HETATM   16  O   UNL     1      41.609 -11.173   0.661  1.00  0.00    -0.272 OA
BRANCH  14  17
HETATM   17  C   UNL     1      39.309 -10.363  -1.995  1.00  0.00     0.070 A 
HETATM   18  C   UNL     1      39.650  -9.228  -2.775  1.00  0.00     0.095 A 
HETATM   19  C   UNL     1      38.749  -8.720  -3.714  1.00  0.00     0.041 A 
HETATM   20  C   UNL     1      37.500  -9.317  -3.876  1.00  0.00     0.026 A 
HETATM   21  C   UNL     1      37.155 -10.414  -3.095  1.00  0.00     0.036 A 
HETATM   22 CL   UNL     1      35.602 -11.134  -3.285  1.00  0.00    -0.084 Cl
HETATM   23  C   UNL     1      38.049 -10.935  -2.156  1.00  0.00     0.056 A 
BRANCH  18  24
HETATM   24  O   UNL     1      40.904  -8.712  -2.536  1.00  0.00    -0.354 OA
HETATM   25  C   UNL     1      41.608  -8.169  -3.644  1.00  0.00     0.210 C 
ENDBRANCH  18  24
ENDBRANCH  14  17
ENDBRANCH  12  13
ENDBRANCH  11  12
ENDBRANCH   4  11
BRANCH   8  26
HETATM   26  C   UNL     1      41.740 -12.666   4.655  1.00  0.00    -0.044 A 
HETATM   27  C   UNL     1      42.121 -12.714   6.008  1.00  0.00     0.008 A 
HETATM   28  C   UNL     1      43.357 -12.213   6.415  1.00  0.00     0.001 A 
HETATM   29  C   UNL     1      44.227 -11.659   5.481  1.00  0.00     0.000 A 
HETATM   30  C   UNL     1      43.859 -11.596   4.138  1.00  0.00     0.001 A 
HETATM   31  C   UNL     1      42.621 -12.089   3.725  1.00  0.00     0.008 A 
ENDBRANCH   8  26
BRANCH   9  32
HETATM   32  C   UNL     1      40.935 -15.714   3.737  1.00  0.00     0.255 C 
HETATM   33  N   UNL     1      42.246 -15.990   3.438  1.00  0.00    -0.321 N 
HETATM   34  H   UNL     1      42.865 -15.264   3.104  1.00  0.00     0.169 HD
HETATM   35  O   UNL     1      40.217 -16.474   4.386  1.00  0.00    -0.268 OA
BRANCH  33  36
HETATM   36  C   UNL     1      42.899 -17.245   3.521  1.00  0.00     0.068 A 
HETATM   37  C   UNL     1      43.560 -17.550   4.731  1.00  0.00     0.095 A 
HETATM   38  C   UNL     1      44.275 -18.746   4.850  1.00  0.00     0.039 A 
HETATM   39  C   UNL     1      44.345 -19.631   3.773  1.00  0.00     0.003 A 
HETATM   40  C   UNL     1      43.697 -19.330   2.578  1.00  0.00     0.002 A 
HETATM   41  C   UNL     1      42.973 -18.143   2.454  1.00  0.00     0.032 A 
BRANCH  37  42
HETATM   42  O   UNL     1      43.425 -16.614   5.731  1.00  0.00    -0.354 OA
HETATM   43  C   UNL     1      44.615 -16.185   6.380  1.00  0.00     0.210 C 
ENDBRANCH  37  42
ENDBRANCH  33  36
ENDBRANCH   9  32
TORSDOF 9
ENDMDL
MODEL 9
REMARK VINA RESULT:      -7.8      4.188      7.546
REMARK  9 active torsions:
REMARK  status: ('A' for Active; 'I' for Inactive)
REMARK    1  A    between atoms: C_4  and  S_5 
REMARK    2  A    between atoms: S_5  and  C_6 
REMARK    3  A    between atoms: C_6  and  C_7 
REMARK       I    between atoms: C_7  and  N_8 
REMARK    4  A    between atoms: N_8  and  C_9 
REMARK    5  A    between atoms: C_10  and  O_11 
REMARK    6  A    between atoms: C_22  and  C_23 
REMARK    7  A    between atoms: C_29  and  C_30 
REMARK       I    between atoms: C_30  and  N_31 
REMARK    8  A    between atoms: N_31  and  C_32 
REMARK    9  A    between atoms: C_33  and  O_34 
ROOT
HETATM    1  C   UNL     1      40.224 -13.733   5.974  1.00  0.00     0.069 C 
HETATM    2  C   UNL     1      40.726 -12.980   4.762  1.00  0.00     0.019 A 
HETATM    3  N   UNL     1      40.749 -11.606   4.913  1.00  0.00    -0.353 N 
HETATM    4  C   UNL     1      41.089 -10.696   3.941  1.00  0.00     0.087 A 
HETATM    5  C   UNL     1      41.488 -11.144   2.729  1.00  0.00     0.055 A 
HETATM    6  C   UNL     1      41.641 -10.156   1.584  1.00  0.00     0.019 C 
HETATM    7  N   UNL     1      41.768  -9.337   0.634  1.00  0.00    -0.096 N 
HETATM    8  C   UNL     1      41.475 -12.645   2.395  1.00  0.00     0.104 A 
HETATM    9  C   UNL     1      41.101 -13.546   3.585  1.00  0.00     0.046 A 
HETATM   10  H   UNL     1      40.419 -11.211   5.789  1.00  0.00     0.166 HD
ENDROOT
BRANCH   4  11
HETATM   11  S   UNL     1      40.943  -8.979   4.276  1.00  0.00    -0.102 SA
BRANCH  11  12
HETATM   12  C   UNL     1      41.201  -8.988   6.086  1.00  0.00     0.184 C 
BRANCH  12  13
HETATM   13  C   UNL     1      41.826  -7.692   6.538  1.00  0.00     0.231 C 
HETATM   14  N   UNL     1      42.363  -7.515   7.776  1.00  0.00    -0.324 N 
HETATM   15  H   UNL     1      42.644  -6.545   7.914  1.00  0.00     0.169 HD
HETATM   16  O   UNL     1      41.836  -6.719   5.772  1.00  0.00    -0.272 OA
BRANCH  14  17
HETATM   17  C   UNL     1      42.553  -8.311   8.926  1.00  0.00     0.070 A 
HETATM   18  C   UNL     1      43.887  -8.735   9.159  1.00  0.00     0.095 A 
HETATM   19  C   UNL     1      44.198  -9.506  10.281  1.00  0.00     0.041 A 
HETATM   20  C   UNL     1      43.192  -9.879  11.171  1.00  0.00     0.026 A 
HETATM   21  C   UNL     1      41.880  -9.486  10.931  1.00  0.00     0.036 A 
HETATM   22 CL   UNL     1      40.638  -9.969  12.022  1.00  0.00    -0.084 Cl
HETATM   23  C   UNL     1      41.557  -8.711   9.815  1.00  0.00     0.056 A 
BRANCH  18  24
HETATM   24  O   UNL     1      44.804  -8.316   8.221  1.00  0.00    -0.354 OA
HETATM   25  C   UNL     1      46.044  -9.007   8.165  1.00  0.00     0.210 C 
ENDBRANCH  18  24
ENDBRANCH  14  17
ENDBRANCH  12  13
ENDBRANCH  11  12
ENDBRANCH   4  11
BRANCH   8  26
HETATM   26  C   UNL     1      40.568 -12.851   1.173  1.00  0.00    -0.044 A 
HETATM   27  C   UNL     1      39.323 -12.198   1.113  1.00  0.00     0.008 A 
HETATM   28  C   UNL     1      38.458 -12.418   0.040  1.00  0.00     0.001 A 
HETATM   29  C   UNL     1      38.823 -13.289  -0.983  1.00  0.00     0.000 A 
HETATM   30  C   UNL     1      40.049 -13.950  -0.932  1.00  0.00     0.001 A 
HETATM   31  C   UNL     1      40.916 -13.740   0.142  1.00  0.00     0.008 A 
ENDBRANCH   8  26
BRANCH   9  32
HETATM   32  C   UNL     1      41.234 -15.051   3.518  1.00  0.00     0.255 C 
HETATM   33  N   UNL     1      42.468 -15.581   3.802  1.00  0.00    -0.321 N 
HETATM   34  H   UNL     1      43.195 -15.012   4.213  1.00  0.00     0.169 HD
HETATM   35  O   UNL     1      40.245 -15.739   3.272  1.00  0.00    -0.268 OA
BRANCH  33  36
HETATM   36  C   UNL     1      42.906 -16.909   3.567  1.00  0.00     0.068 A 
HETATM   37  C   UNL     1      43.748 -17.492   4.539  1.00  0.00     0.095 A 
HETATM   38  C   UNL     1      44.263 -18.775   4.333  1.00  0.00     0.039 A 
HETATM   39  C   UNL     1      43.955 -19.475   3.165  1.00  0.00     0.003 A 
HETATM   40  C   UNL     1      43.128 -18.900   2.204  1.00  0.00     0.002 A 
HETATM   41  C   UNL     1      42.602 -17.623   2.406  1.00  0.00     0.032 A 
BRANCH  37  42
HETATM   42  O   UNL     1      43.986 -16.721   5.655  1.00  0.00    -0.354 OA
HETATM   43  C   UNL     1      43.523 -17.226   6.900  1.00  0.00     0.210 C 
ENDBRANCH  37  42
ENDBRANCH  33  36
ENDBRANCH   9  32
TORSDOF 9
ENDMDL
MODEL 10
REMARK VINA RESULT:      -7.6      3.112      6.081
REMARK  9 active torsions:
REMARK  status: ('A' for Active; 'I' for Inactive)
REMARK    1  A    between atoms: C_4  and  S_5 
REMARK    2  A    between atoms: S_5  and  C_6 
REMARK    3  A    between atoms: C_6  and  C_7 
REMARK       I    between atoms: C_7  and  N_8 
REMARK    4  A    between atoms: N_8  and  C_9 
REMARK    5  A    between atoms: C_10  and  O_11 
REMARK    6  A    between atoms: C_22  and  C_23 
REMARK    7  A    between atoms: C_29  and  C_30 
REMARK       I    between atoms: C_30  and  N_31 
REMARK    8  A    between atoms: N_31  and  C_32 
REMARK    9  A    between atoms: C_33  and  O_34 
ROOT
HETATM    1  C   UNL     1      40.320 -14.169   4.423  1.00  0.00     0.069 C 
HETATM    2  C   UNL     1      40.399 -13.238   3.234  1.00  0.00     0.019 A 
HETATM    3  N   UNL     1      39.582 -12.126   3.322  1.00  0.00    -0.353 N 
HETATM    4  C   UNL     1      39.414 -11.173   2.348  1.00  0.00     0.087 A 
HETATM    5  C   UNL     1      40.129 -11.266   1.203  1.00  0.00     0.055 A 
HETATM    6  C   UNL     1      39.784 -10.357   0.035  1.00  0.00     0.019 C 
HETATM    7  N   UNL     1      39.498  -9.603  -0.935  1.00  0.00    -0.096 N 
HETATM    8  C   UNL     1      41.049 -12.469   0.940  1.00  0.00     0.104 A 
HETATM    9  C   UNL     1      41.162 -13.442   2.127  1.00  0.00     0.046 A 
HETATM   10  H   UNL     1      38.991 -12.027   4.142  1.00  0.00     0.166 HD
ENDROOT
BRANCH   4  11
HETATM   11  S   UNL     1      38.238  -9.892   2.587  1.00  0.00    -0.102 SA
BRANCH  11  12
HETATM   12  C   UNL     1      39.071  -8.943   3.909  1.00  0.00     0.184 C 
BRANCH  12  13
HETATM   13  C   UNL     1      40.390  -8.398   3.419  1.00  0.00     0.231 C 
HETATM   14  N   UNL     1      41.557  -8.542   4.104  1.00  0.00    -0.324 N 
HETATM   15  H   UNL     1      42.309  -8.023   3.654  1.00  0.00     0.169 HD
HETATM   16  O   UNL     1      40.432  -7.761   2.358  1.00  0.00    -0.272 OA
BRANCH  14  17
HETATM   17  C   UNL     1      41.961  -9.160   5.308  1.00  0.00     0.070 A 
HETATM   18  C   UNL     1      42.673 -10.377   5.158  1.00  0.00     0.095 A 
HETATM   19  C   UNL     1      43.144 -11.063   6.280  1.00  0.00     0.041 A 
HETATM   20  C   UNL     1      42.900 -10.562   7.557  1.00  0.00     0.026 A 
HETATM   21  C   UNL     1      42.180  -9.381   7.707  1.00  0.00     0.036 A 
HETATM   22 CL   UNL     1      41.863  -8.778   9.289  1.00  0.00    -0.084 Cl
HETATM   23  C   UNL     1      41.708  -8.683   6.593  1.00  0.00     0.056 A 
BRANCH  18  24
HETATM   24  O   UNL     1      42.858 -10.788   3.857  1.00  0.00    -0.354 OA
HETATM   25  C   UNL     1      43.936 -11.676   3.600  1.00  0.00     0.210 C 
ENDBRANCH  18  24
ENDBRANCH  14  17
ENDBRANCH  12  13
ENDBRANCH  11  12
ENDBRANCH   4  11
BRANCH   8  26
HETATM   26  C   UNL     1      40.581 -13.149  -0.356  1.00  0.00    -0.044 A 
HETATM   27  C   UNL     1      41.072 -12.701  -1.595  1.00  0.00     0.008 A 
HETATM   28  C   UNL     1      40.615 -13.265  -2.786  1.00  0.00     0.001 A 
HETATM   29  C   UNL     1      39.663 -14.281  -2.756  1.00  0.00     0.000 A 
HETATM   30  C   UNL     1      39.160 -14.729  -1.536  1.00  0.00     0.001 A 
HETATM   31  C   UNL     1      39.609 -14.165  -0.341  1.00  0.00     0.008 A 
ENDBRANCH   8  26
BRANCH   9  32
HETATM   32  C   UNL     1      42.172 -14.566   2.143  1.00  0.00     0.255 C 
HETATM   33  N   UNL     1      41.774 -15.754   2.704  1.00  0.00    -0.321 N 
HETATM   34  H   UNL     1      40.802 -15.924   2.923  1.00  0.00     0.169 HD
HETATM   35  O   UNL     1      43.272 -14.404   1.617  1.00  0.00    -0.268 OA
BRANCH  33  36
HETATM   36  C   UNL     1      42.596 -16.853   3.061  1.00  0.00     0.068 A 
HETATM   37  C   UNL     1      43.349 -16.736   4.249  1.00  0.00     0.095 A 
HETATM   38  C   UNL     1      44.225 -17.761   4.621  1.00  0.00     0.039 A 
HETATM   39  C   UNL     1      44.363 -18.892   3.814  1.00  0.00     0.003 A 
HETATM   40  C   UNL     1      43.624 -19.007   2.640  1.00  0.00     0.002 A 
HETATM   41  C   UNL     1      42.739 -17.993   2.267  1.00  0.00     0.032 A 
BRANCH  37  42
HETATM   42  O   UNL     1      43.137 -15.585   4.973  1.00  0.00    -0.354 OA
HETATM   43  C   UNL     1      43.131 -15.704   6.390  1.00  0.00     0.210 C 
ENDBRANCH  37  42
ENDBRANCH  33  36
ENDBRANCH   9  32
TORSDOF 9
ENDMDL
