MODEL 1
REMARK VINA RESULT:      -8.6      0.000      0.000
REMARK  10 active torsions:
REMARK  status: ('A' for Active; 'I' for Inactive)
REMARK    1  A    between atoms: C_2  and  C_3 
REMARK    2  A    between atoms: C_3  and  C_4 
REMARK    3  A    between atoms: C_4  and  O_5 
REMARK    4  A    between atoms: O_5  and  C_6 
REMARK    5  A    between atoms: C_9  and  C_10 
REMARK       I    between atoms: C_10  and  N_11 
REMARK    6  A    between atoms: N_11  and  C_12 
REMARK    7  A    between atoms: C_12  and  N_13 
REMARK    8  A    between atoms: N_13  and  C_14 
REMARK    9  A    between atoms: C_16  and  C_17 
REMARK   10  A    between atoms: C_26  and  O_27 
ROOT
HETATM    1  N   UNL     1      43.607 -12.221   7.572  1.00  0.00    -0.333 N 
HETATM    2  H   UNL     1      43.357 -12.593   8.490  1.00  0.00     0.168 HD
ENDROOT
BRANCH   1   3
HETATM    3  C   UNL     1      44.547 -11.218   7.638  1.00  0.00     0.179 C 
HETATM    4  S   UNL     1      45.989 -11.041   6.811  1.00  0.00    -0.040 SA
BRANCH   3   5
HETATM    5  N   UNL     1      44.258 -10.202   8.532  1.00  0.00    -0.299 N 
HETATM    6  C   UNL     1      44.593 -10.071   9.872  1.00  0.00     0.257 C 
HETATM    7  O   UNL     1      45.436 -10.749  10.447  1.00  0.00    -0.267 OA
HETATM    8  H   UNL     1      43.701  -9.465   8.117  1.00  0.00     0.171 HD
BRANCH   6   9
HETATM    9  C   UNL     1      43.897  -8.955  10.556  1.00  0.00     0.032 A 
HETATM   10  C   UNL     1      43.700  -8.998  11.943  1.00  0.00     0.020 A 
HETATM   11  C   UNL     1      42.984  -7.981  12.575  1.00  0.00     0.038 A 
HETATM   12  C   UNL     1      42.482  -6.917  11.826  1.00  0.00     0.068 A 
HETATM   13  C   UNL     1      42.674  -6.877  10.444  1.00  0.00     0.038 A 
HETATM   14  C   UNL     1      43.400  -7.887   9.806  1.00  0.00     0.020 A 
BRANCH  12  15
HETATM   15  O   UNL     1      41.701  -5.938  12.379  1.00  0.00    -0.351 OA
BRANCH  15  16
HETATM   16  C   UNL     1      40.666  -6.457  13.223  1.00  0.00     0.175 C 
BRANCH  16  17
HETATM   17  C   UNL     1      39.538  -7.001  12.347  1.00  0.00     0.026 C 
BRANCH  17  18
HETATM   18  C   UNL     1      39.273  -8.486  12.607  1.00  0.00    -0.002 C 
HETATM   19  C   UNL     1      39.752  -9.349  11.450  1.00  0.00     0.005 C 
ENDBRANCH  17  18
ENDBRANCH  16  17
ENDBRANCH  15  16
ENDBRANCH  12  15
ENDBRANCH   6   9
ENDBRANCH   3   5
ENDBRANCH   1   3
BRANCH   1  20
HETATM   20  C   UNL     1      42.996 -12.870   6.471  1.00  0.00     0.035 A 
HETATM   21  C   UNL     1      43.314 -14.227   6.269  1.00  0.00     0.046 A 
HETATM   22  C   UNL     1      42.759 -14.974   5.208  1.00  0.00     0.035 A 
HETATM   23  C   UNL     1      41.855 -14.311   4.358  1.00  0.00     0.078 A 
HETATM   24  C   UNL     1      41.509 -12.980   4.563  1.00  0.00     0.040 A 
HETATM   25  C   UNL     1      42.073 -12.267   5.620  1.00  0.00     0.032 A 
BRANCH  22  26
HETATM   26  C   UNL     1      43.086 -16.397   4.959  1.00  0.00     0.112 A 
HETATM   27  S   UNL     1      43.409 -17.525   6.217  1.00  0.00    -0.067 SA
HETATM   28  C   UNL     1      43.642 -18.779   5.062  1.00  0.00     0.035 A 
HETATM   29  C   UNL     1      43.457 -18.254   3.784  1.00  0.00     0.075 A 
HETATM   30  C   UNL     1      43.964 -20.130   5.267  1.00  0.00     0.021 A 
HETATM   31  N   UNL     1      43.140 -16.907   3.739  1.00  0.00    -0.239 NA
HETATM   32  C   UNL     1      43.600 -19.105   2.670  1.00  0.00     0.033 A 
HETATM   33  C   UNL     1      43.921 -20.452   2.861  1.00  0.00     0.002 A 
HETATM   34  C   UNL     1      44.100 -20.957   4.146  1.00  0.00     0.002 A 
ENDBRANCH  22  26
BRANCH  23  35
HETATM   35  O   UNL     1      41.246 -14.913   3.286  1.00  0.00    -0.360 OA
HETATM   36  H   UNL     1      40.279 -14.760   3.369  1.00  0.00     0.217 HD
ENDBRANCH  23  35
ENDBRANCH   1  20
TORSDOF 10
ENDMDL
MODEL 2
REMARK VINA RESULT:      -8.5      2.816     11.222
REMARK  10 active torsions:
REMARK  status: ('A' for Active; 'I' for Inactive)
REMARK    1  A    between atoms: C_2  and  C_3 
REMARK    2  A    between atoms: C_3  and  C_4 
REMARK    3  A    between atoms: C_4  and  O_5 
REMARK    4  A    between atoms: O_5  and  C_6 
REMARK    5  A    between atoms: C_9  and  C_10 
REMARK       I    between atoms: C_10  and  N_11 
REMARK    6  A    between atoms: N_11  and  C_12 
REMARK    7  A    between atoms: C_12  and  N_13 
REMARK    8  A    between atoms: N_13  and  C_14 
REMARK    9  A    between atoms: C_16  and  C_17 
REMARK   10  A    between atoms: C_26  and  O_27 
ROOT
HETATM    1  N   UNL     1      42.245 -10.062   5.891  1.00  0.00    -0.333 N 
HETATM    2  H   UNL     1      42.360  -9.197   5.361  1.00  0.00     0.168 HD
ENDROOT
BRANCH   1   3
HETATM    3  C   UNL     1      41.338 -10.925   5.318  1.00  0.00     0.179 C 
HETATM    4  S   UNL     1      39.682 -10.781   5.139  1.00  0.00    -0.040 SA
BRANCH   3   5
HETATM    5  N   UNL     1      41.879 -12.098   4.821  1.00  0.00    -0.299 N 
HETATM    6  C   UNL     1      42.876 -12.288   3.874  1.00  0.00     0.257 C 
HETATM    7  O   UNL     1      43.637 -11.413   3.480  1.00  0.00    -0.267 OA
HETATM    8  H   UNL     1      41.448 -12.924   5.216  1.00  0.00     0.171 HD
BRANCH   6   9
HETATM    9  C   UNL     1      43.014 -13.696   3.427  1.00  0.00     0.032 A 
HETATM   10  C   UNL     1      43.089 -13.991   2.059  1.00  0.00     0.020 A 
HETATM   11  C   UNL     1      43.148 -15.320   1.638  1.00  0.00     0.038 A 
HETATM   12  C   UNL     1      43.151 -16.348   2.581  1.00  0.00     0.068 A 
HETATM   13  C   UNL     1      43.071 -16.053   3.943  1.00  0.00     0.038 A 
HETATM   14  C   UNL     1      43.023 -14.724   4.372  1.00  0.00     0.020 A 
BRANCH  12  15
HETATM   15  O   UNL     1      43.122 -17.668   2.222  1.00  0.00    -0.351 OA
BRANCH  15  16
HETATM   16  C   UNL     1      43.530 -18.545   3.279  1.00  0.00     0.175 C 
BRANCH  16  17
HETATM   17  C   UNL     1      43.889 -19.906   2.685  1.00  0.00     0.026 C 
BRANCH  17  18
HETATM   18  C   UNL     1      43.874 -21.015   3.740  1.00  0.00    -0.002 C 
HETATM   19  C   UNL     1      44.159 -20.467   5.131  1.00  0.00     0.005 C 
ENDBRANCH  17  18
ENDBRANCH  16  17
ENDBRANCH  15  16
ENDBRANCH  12  15
ENDBRANCH   6   9
ENDBRANCH   3   5
ENDBRANCH   1   3
BRANCH   1  20
HETATM   20  C   UNL     1      43.089 -10.195   7.020  1.00  0.00     0.035 A 
HETATM   21  C   UNL     1      42.595  -9.721   8.251  1.00  0.00     0.046 A 
HETATM   22  C   UNL     1      43.347  -9.808   9.442  1.00  0.00     0.035 A 
HETATM   23  C   UNL     1      44.618 -10.406   9.358  1.00  0.00     0.078 A 
HETATM   24  C   UNL     1      45.107 -10.906   8.155  1.00  0.00     0.040 A 
HETATM   25  C   UNL     1      44.341 -10.806   6.995  1.00  0.00     0.032 A 
BRANCH  22  26
HETATM   26  C   UNL     1      42.863  -9.303  10.748  1.00  0.00     0.112 A 
HETATM   27  S   UNL     1      41.312  -9.680  11.387  1.00  0.00    -0.067 SA
HETATM   28  C   UNL     1      41.642  -8.748  12.795  1.00  0.00     0.035 A 
HETATM   29  C   UNL     1      42.922  -8.206  12.686  1.00  0.00     0.075 A 
HETATM   30  C   UNL     1      40.832  -8.511  13.917  1.00  0.00     0.021 A 
HETATM   31  N   UNL     1      43.603  -8.530  11.525  1.00  0.00    -0.239 NA
HETATM   32  C   UNL     1      43.412  -7.398  13.731  1.00  0.00     0.033 A 
HETATM   33  C   UNL     1      42.614  -7.154  14.853  1.00  0.00     0.002 A 
HETATM   34  C   UNL     1      41.340  -7.705  14.943  1.00  0.00     0.002 A 
ENDBRANCH  22  26
BRANCH  23  35
HETATM   35  O   UNL     1      45.457 -10.553  10.434  1.00  0.00    -0.360 OA
HETATM   36  H   UNL     1      44.901 -10.741  11.222  1.00  0.00     0.217 HD
ENDBRANCH  23  35
ENDBRANCH   1  20
TORSDOF 10
ENDMDL
MODEL 3
REMARK VINA RESULT:      -8.5      2.082      2.567
REMARK  10 active torsions:
REMARK  status: ('A' for Active; 'I' for Inactive)
REMARK    1  A    between atoms: C_2  and  C_3 
REMARK    2  A    between atoms: C_3  and  C_4 
REMARK    3  A    between atoms: C_4  and  O_5 
REMARK    4  A    between atoms: O_5  and  C_6 
REMARK    5  A    between atoms: C_9  and  C_10 
REMARK       I    between atoms: C_10  and  N_11 
REMARK    6  A    between atoms: N_11  and  C_12 
REMARK    7  A    between atoms: C_12  and  N_13 
REMARK    8  A    between atoms: N_13  and  C_14 
REMARK    9  A    between atoms: C_16  and  C_17 
REMARK   10  A    between atoms: C_26  and  O_27 
ROOT
HETATM    1  N   UNL     1      43.958 -11.635   8.333  1.00  0.00    -0.333 N 
HETATM    2  H   UNL     1      44.005 -12.328   9.082  1.00  0.00     0.168 HD
ENDROOT
BRANCH   1   3
HETATM    3  C   UNL     1      44.540 -10.436   8.674  1.00  0.00     0.179 C 
HETATM    4  S   UNL     1      45.740  -9.565   7.902  1.00  0.00    -0.040 SA
BRANCH   3   5
HETATM    5  N   UNL     1      44.063  -9.864   9.841  1.00  0.00    -0.299 N 
HETATM    6  C   UNL     1      43.874 -10.425  11.096  1.00  0.00     0.257 C 
HETATM    7  O   UNL     1      44.338 -11.500  11.454  1.00  0.00    -0.267 OA
HETATM    8  H   UNL     1      43.807  -8.892   9.722  1.00  0.00     0.171 HD
BRANCH   6   9
HETATM    9  C   UNL     1      43.117  -9.557  12.030  1.00  0.00     0.032 A 
HETATM   10  C   UNL     1      43.621  -8.296  12.376  1.00  0.00     0.020 A 
HETATM   11  C   UNL     1      42.942  -7.509  13.309  1.00  0.00     0.038 A 
HETATM   12  C   UNL     1      41.757  -7.974  13.879  1.00  0.00     0.068 A 
HETATM   13  C   UNL     1      41.259  -9.233  13.537  1.00  0.00     0.038 A 
HETATM   14  C   UNL     1      41.927 -10.021  12.595  1.00  0.00     0.020 A 
BRANCH  12  15
HETATM   15  O   UNL     1      41.098  -7.284  14.859  1.00  0.00    -0.351 OA
BRANCH  15  16
HETATM   16  C   UNL     1      41.048  -7.991  16.104  1.00  0.00     0.175 C 
BRANCH  16  17
HETATM   17  C   UNL     1      41.172  -6.987  17.250  1.00  0.00     0.026 C 
BRANCH  17  18
HETATM   18  C   UNL     1      39.939  -6.997  18.159  1.00  0.00    -0.002 C 
HETATM   19  C   UNL     1      40.061  -8.050  19.251  1.00  0.00     0.005 C 
ENDBRANCH  17  18
ENDBRANCH  16  17
ENDBRANCH  15  16
ENDBRANCH  12  15
ENDBRANCH   6   9
ENDBRANCH   3   5
ENDBRANCH   1   3
BRANCH   1  20
HETATM   20  C   UNL     1      43.388 -12.096   7.121  1.00  0.00     0.035 A 
HETATM   21  C   UNL     1      43.607 -13.445   6.780  1.00  0.00     0.046 A 
HETATM   22  C   UNL     1      43.080 -14.012   5.600  1.00  0.00     0.035 A 
HETATM   23  C   UNL     1      42.308 -13.175   4.773  1.00  0.00     0.078 A 
HETATM   24  C   UNL     1      42.059 -11.850   5.112  1.00  0.00     0.040 A 
HETATM   25  C   UNL     1      42.592 -11.317   6.284  1.00  0.00     0.032 A 
BRANCH  22  26
HETATM   26  C   UNL     1      43.307 -15.422   5.205  1.00  0.00     0.112 A 
HETATM   27  S   UNL     1      43.672 -16.669   6.331  1.00  0.00    -0.067 SA
HETATM   28  C   UNL     1      43.738 -17.827   5.060  1.00  0.00     0.035 A 
HETATM   29  C   UNL     1      43.475 -17.184   3.852  1.00  0.00     0.075 A 
HETATM   30  C   UNL     1      44.001 -19.205   5.123  1.00  0.00     0.021 A 
HETATM   31  N   UNL     1      43.231 -15.825   3.947  1.00  0.00    -0.239 NA
HETATM   32  C   UNL     1      43.478 -17.939   2.662  1.00  0.00     0.033 A 
HETATM   33  C   UNL     1      43.739 -19.312   2.712  1.00  0.00     0.002 A 
HETATM   34  C   UNL     1      43.997 -19.935   3.929  1.00  0.00     0.002 A 
ENDBRANCH  22  26
BRANCH  23  35
HETATM   35  O   UNL     1      41.740 -13.593   3.596  1.00  0.00    -0.360 OA
HETATM   36  H   UNL     1      42.236 -13.171   2.860  1.00  0.00     0.217 HD
ENDBRANCH  23  35
ENDBRANCH   1  20
TORSDOF 10
ENDMDL
MODEL 4
REMARK VINA RESULT:      -8.1      1.648      2.197
REMARK  10 active torsions:
REMARK  status: ('A' for Active; 'I' for Inactive)
REMARK    1  A    between atoms: C_2  and  C_3 
REMARK    2  A    between atoms: C_3  and  C_4 
REMARK    3  A    between atoms: C_4  and  O_5 
REMARK    4  A    between atoms: O_5  and  C_6 
REMARK    5  A    between atoms: C_9  and  C_10 
REMARK       I    between atoms: C_10  and  N_11 
REMARK    6  A    between atoms: N_11  and  C_12 
REMARK    7  A    between atoms: C_12  and  N_13 
REMARK    8  A    between atoms: N_13  and  C_14 
REMARK    9  A    between atoms: C_16  and  C_17 
REMARK   10  A    between atoms: C_26  and  O_27 
ROOT
HETATM    1  N   UNL     1      42.840 -10.788   7.805  1.00  0.00    -0.333 N 
HETATM    2  H   UNL     1      41.990 -10.777   8.371  1.00  0.00     0.168 HD
ENDROOT
BRANCH   1   3
HETATM    3  C   UNL     1      43.959 -10.407   8.510  1.00  0.00     0.179 C 
HETATM    4  S   UNL     1      45.576 -10.515   8.099  1.00  0.00    -0.040 SA
BRANCH   3   5
HETATM    5  N   UNL     1      43.708  -9.856   9.754  1.00  0.00    -0.299 N 
HETATM    6  C   UNL     1      43.599 -10.469  10.995  1.00  0.00     0.257 C 
HETATM    7  O   UNL     1      43.956 -11.615  11.237  1.00  0.00    -0.267 OA
HETATM    8  H   UNL     1      43.571  -8.854   9.716  1.00  0.00     0.171 HD
BRANCH   6   9
HETATM    9  C   UNL     1      43.084  -9.575  12.060  1.00  0.00     0.032 A 
HETATM   10  C   UNL     1      43.637  -8.298  12.229  1.00  0.00     0.020 A 
HETATM   11  C   UNL     1      43.199  -7.485  13.275  1.00  0.00     0.038 A 
HETATM   12  C   UNL     1      42.201  -7.939  14.137  1.00  0.00     0.068 A 
HETATM   13  C   UNL     1      41.654  -9.213  13.970  1.00  0.00     0.038 A 
HETATM   14  C   UNL     1      42.080 -10.028  12.918  1.00  0.00     0.020 A 
BRANCH  12  15
HETATM   15  O   UNL     1      41.794  -7.220  15.228  1.00  0.00    -0.351 OA
BRANCH  15  16
HETATM   16  C   UNL     1      40.370  -7.097  15.318  1.00  0.00     0.175 C 
BRANCH  16  17
HETATM   17  C   UNL     1      39.898  -6.047  14.313  1.00  0.00     0.026 C 
BRANCH  17  18
HETATM   18  C   UNL     1      38.932  -6.634  13.280  1.00  0.00    -0.002 C 
HETATM   19  C   UNL     1      37.600  -5.899  13.282  1.00  0.00     0.005 C 
ENDBRANCH  17  18
ENDBRANCH  16  17
ENDBRANCH  15  16
ENDBRANCH  12  15
ENDBRANCH   6   9
ENDBRANCH   3   5
ENDBRANCH   1   3
BRANCH   1  20
HETATM   20  C   UNL     1      42.676 -11.260   6.480  1.00  0.00     0.035 A 
HETATM   21  C   UNL     1      42.934 -12.625   6.249  1.00  0.00     0.046 A 
HETATM   22  C   UNL     1      42.796 -13.205   4.969  1.00  0.00     0.035 A 
HETATM   23  C   UNL     1      42.374 -12.364   3.923  1.00  0.00     0.078 A 
HETATM   24  C   UNL     1      42.087 -11.021   4.143  1.00  0.00     0.040 A 
HETATM   25  C   UNL     1      42.231 -10.476   5.417  1.00  0.00     0.032 A 
BRANCH  22  26
HETATM   26  C   UNL     1      43.076 -14.633   4.690  1.00  0.00     0.112 A 
HETATM   27  S   UNL     1      43.607 -15.742   5.892  1.00  0.00    -0.067 SA
HETATM   28  C   UNL     1      43.641 -17.014   4.734  1.00  0.00     0.035 A 
HETATM   29  C   UNL     1      43.242 -16.508   3.498  1.00  0.00     0.075 A 
HETATM   30  C   UNL     1      43.992 -18.363   4.903  1.00  0.00     0.021 A 
HETATM   31  N   UNL     1      42.923 -15.161   3.486  1.00  0.00    -0.239 NA
HETATM   32  C   UNL     1      43.194 -17.376   2.389  1.00  0.00     0.033 A 
HETATM   33  C   UNL     1      43.543 -18.721   2.544  1.00  0.00     0.002 A 
HETATM   34  C   UNL     1      43.937 -19.207   3.787  1.00  0.00     0.002 A 
ENDBRANCH  22  26
BRANCH  23  35
HETATM   35  O   UNL     1      42.203 -12.793   2.631  1.00  0.00    -0.360 OA
HETATM   36  H   UNL     1      41.405 -12.346   2.272  1.00  0.00     0.217 HD
ENDBRANCH  23  35
ENDBRANCH   1  20
TORSDOF 10
ENDMDL
MODEL 5
REMARK VINA RESULT:      -8.0      1.923      2.605
REMARK  10 active torsions:
REMARK  status: ('A' for Active; 'I' for Inactive)
REMARK    1  A    between atoms: C_2  and  C_3 
REMARK    2  A    between atoms: C_3  and  C_4 
REMARK    3  A    between atoms: C_4  and  O_5 
REMARK    4  A    between atoms: O_5  and  C_6 
REMARK    5  A    between atoms: C_9  and  C_10 
REMARK       I    between atoms: C_10  and  N_11 
REMARK    6  A    between atoms: N_11  and  C_12 
REMARK    7  A    between atoms: C_12  and  N_13 
REMARK    8  A    between atoms: N_13  and  C_14 
REMARK    9  A    between atoms: C_16  and  C_17 
REMARK   10  A    between atoms: C_26  and  O_27 
ROOT
HETATM    1  N   UNL     1      43.381 -10.147   6.705  1.00  0.00    -0.333 N 
HETATM    2  H   UNL     1      43.436  -9.329   6.095  1.00  0.00     0.168 HD
ENDROOT
BRANCH   1   3
HETATM    3  C   UNL     1      44.219 -10.063   7.793  1.00  0.00     0.179 C 
HETATM    4  S   UNL     1      45.775 -10.641   7.998  1.00  0.00    -0.040 SA
BRANCH   3   5
HETATM    5  N   UNL     1      43.691  -9.406   8.890  1.00  0.00    -0.299 N 
HETATM    6  C   UNL     1      43.578  -8.046   9.146  1.00  0.00     0.257 C 
HETATM    7  O   UNL     1      43.717  -7.167   8.305  1.00  0.00    -0.267 OA
HETATM    8  H   UNL     1      43.362 -10.043   9.604  1.00  0.00     0.171 HD
BRANCH   6   9
HETATM    9  C   UNL     1      43.175  -7.732  10.538  1.00  0.00     0.032 A 
HETATM   10  C   UNL     1      42.445  -6.567  10.809  1.00  0.00     0.020 A 
HETATM   11  C   UNL     1      42.128  -6.238  12.128  1.00  0.00     0.038 A 
HETATM   12  C   UNL     1      42.523  -7.078  13.168  1.00  0.00     0.068 A 
HETATM   13  C   UNL     1      43.254  -8.237  12.897  1.00  0.00     0.038 A 
HETATM   14  C   UNL     1      43.566  -8.578  11.578  1.00  0.00     0.020 A 
BRANCH  12  15
HETATM   15  O   UNL     1      42.313  -6.762  14.483  1.00  0.00    -0.351 OA
BRANCH  15  16
HETATM   16  C   UNL     1      41.290  -7.558  15.094  1.00  0.00     0.175 C 
BRANCH  16  17
HETATM   17  C   UNL     1      41.476  -7.527  16.610  1.00  0.00     0.026 C 
BRANCH  17  18
HETATM   18  C   UNL     1      40.224  -7.024  17.333  1.00  0.00    -0.002 C 
HETATM   19  C   UNL     1      39.359  -6.167  16.419  1.00  0.00     0.005 C 
ENDBRANCH  17  18
ENDBRANCH  16  17
ENDBRANCH  15  16
ENDBRANCH  12  15
ENDBRANCH   6   9
ENDBRANCH   3   5
ENDBRANCH   1   3
BRANCH   1  20
HETATM   20  C   UNL     1      42.414 -11.112   6.331  1.00  0.00     0.035 A 
HETATM   21  C   UNL     1      42.892 -12.357   5.878  1.00  0.00     0.046 A 
HETATM   22  C   UNL     1      42.020 -13.395   5.487  1.00  0.00     0.035 A 
HETATM   23  C   UNL     1      40.638 -13.144   5.581  1.00  0.00     0.078 A 
HETATM   24  C   UNL     1      40.152 -11.931   6.055  1.00  0.00     0.040 A 
HETATM   25  C   UNL     1      41.038 -10.924   6.434  1.00  0.00     0.032 A 
BRANCH  22  26
HETATM   26  C   UNL     1      42.491 -14.709   4.989  1.00  0.00     0.112 A 
HETATM   27  S   UNL     1      43.502 -15.756   5.906  1.00  0.00    -0.067 SA
HETATM   28  C   UNL     1      43.495 -16.912   4.631  1.00  0.00     0.035 A 
HETATM   29  C   UNL     1      42.718 -16.422   3.583  1.00  0.00     0.075 A 
HETATM   30  C   UNL     1      44.129 -18.163   4.560  1.00  0.00     0.021 A 
HETATM   31  N   UNL     1      42.153 -15.177   3.799  1.00  0.00    -0.239 NA
HETATM   32  C   UNL     1      42.568 -17.205   2.421  1.00  0.00     0.033 A 
HETATM   33  C   UNL     1      43.195 -18.452   2.338  1.00  0.00     0.002 A 
HETATM   34  C   UNL     1      43.965 -18.924   3.397  1.00  0.00     0.002 A 
ENDBRANCH  22  26
BRANCH  23  35
HETATM   35  O   UNL     1      39.679 -14.061   5.230  1.00  0.00    -0.360 OA
HETATM   36  H   UNL     1      38.859 -13.565   5.013  1.00  0.00     0.217 HD
ENDBRANCH  23  35
ENDBRANCH   1  20
TORSDOF 10
ENDMDL
MODEL 6
REMARK VINA RESULT:      -7.9      2.493     11.590
REMARK  10 active torsions:
REMARK  status: ('A' for Active; 'I' for Inactive)
REMARK    1  A    between atoms: C_2  and  C_3 
REMARK    2  A    between atoms: C_3  and  C_4 
REMARK    3  A    between atoms: C_4  and  O_5 
REMARK    4  A    between atoms: O_5  and  C_6 
REMARK    5  A    between atoms: C_9  and  C_10 
REMARK       I    between atoms: C_10  and  N_11 
REMARK    6  A    between atoms: N_11  and  C_12 
REMARK    7  A    between atoms: C_12  and  N_13 
REMARK    8  A    between atoms: N_13  and  C_14 
REMARK    9  A    between atoms: C_16  and  C_17 
REMARK   10  A    between atoms: C_26  and  O_27 
ROOT
HETATM    1  N   UNL     1      42.520 -11.421   6.549  1.00  0.00    -0.333 N 
HETATM    2  H   UNL     1      41.594 -11.592   6.946  1.00  0.00     0.168 HD
ENDROOT
BRANCH   1   3
HETATM    3  C   UNL     1      42.583 -11.683   5.200  1.00  0.00     0.179 C 
HETATM    4  S   UNL     1      42.360 -10.662   3.895  1.00  0.00    -0.040 SA
BRANCH   3   5
HETATM    5  N   UNL     1      42.867 -12.997   4.871  1.00  0.00    -0.299 N 
HETATM    6  C   UNL     1      42.011 -14.041   4.551  1.00  0.00     0.257 C 
HETATM    7  O   UNL     1      40.828 -13.907   4.265  1.00  0.00    -0.267 OA
HETATM    8  H   UNL     1      43.859 -13.198   4.893  1.00  0.00     0.171 HD
BRANCH   6   9
HETATM    9  C   UNL     1      42.678 -15.364   4.494  1.00  0.00     0.032 A 
HETATM   10  C   UNL     1      43.255 -15.908   5.650  1.00  0.00     0.020 A 
HETATM   11  C   UNL     1      43.942 -17.120   5.578  1.00  0.00     0.038 A 
HETATM   12  C   UNL     1      44.037 -17.795   4.361  1.00  0.00     0.068 A 
HETATM   13  C   UNL     1      43.467 -17.250   3.209  1.00  0.00     0.038 A 
HETATM   14  C   UNL     1      42.767 -16.042   3.276  1.00  0.00     0.020 A 
BRANCH  12  15
HETATM   15  O   UNL     1      44.770 -18.941   4.216  1.00  0.00    -0.351 OA
BRANCH  15  16
HETATM   16  C   UNL     1      44.228 -20.048   4.947  1.00  0.00     0.175 C 
BRANCH  16  17
HETATM   17  C   UNL     1      43.807 -21.136   3.960  1.00  0.00     0.026 C 
BRANCH  17  18
HETATM   18  C   UNL     1      44.118 -20.749   2.511  1.00  0.00    -0.002 C 
HETATM   19  C   UNL     1      42.869 -20.280   1.779  1.00  0.00     0.005 C 
ENDBRANCH  17  18
ENDBRANCH  16  17
ENDBRANCH  15  16
ENDBRANCH  12  15
ENDBRANCH   6   9
ENDBRANCH   3   5
ENDBRANCH   1   3
BRANCH   1  20
HETATM   20  C   UNL     1      43.473 -10.888   7.451  1.00  0.00     0.035 A 
HETATM   21  C   UNL     1      42.995 -10.017   8.450  1.00  0.00     0.046 A 
HETATM   22  C   UNL     1      43.854  -9.434   9.406  1.00  0.00     0.035 A 
HETATM   23  C   UNL     1      45.220  -9.769   9.334  1.00  0.00     0.078 A 
HETATM   24  C   UNL     1      45.700 -10.650   8.372  1.00  0.00     0.040 A 
HETATM   25  C   UNL     1      44.828 -11.211   7.441  1.00  0.00     0.032 A 
BRANCH  22  26
HETATM   26  C   UNL     1      43.386  -8.502  10.458  1.00  0.00     0.112 A 
HETATM   27  S   UNL     1      42.616  -7.003  10.114  1.00  0.00    -0.067 SA
HETATM   28  C   UNL     1      42.449  -6.678  11.795  1.00  0.00     0.035 A 
HETATM   29  C   UNL     1      42.995  -7.740  12.515  1.00  0.00     0.075 A 
HETATM   30  C   UNL     1      41.877  -5.567  12.435  1.00  0.00     0.021 A 
HETATM   31  N   UNL     1      43.519  -8.766  11.747  1.00  0.00    -0.239 NA
HETATM   32  C   UNL     1      42.972  -7.693  13.923  1.00  0.00     0.033 A 
HETATM   33  C   UNL     1      42.406  -6.591  14.572  1.00  0.00     0.002 A 
HETATM   34  C   UNL     1      41.865  -5.542  13.835  1.00  0.00     0.002 A 
ENDBRANCH  22  26
BRANCH  23  35
HETATM   35  O   UNL     1      46.165  -9.272  10.195  1.00  0.00    -0.360 OA
HETATM   36  H   UNL     1      46.126  -9.804  11.020  1.00  0.00     0.217 HD
ENDBRANCH  23  35
ENDBRANCH   1  20
TORSDOF 10
ENDMDL
MODEL 7
REMARK VINA RESULT:      -7.8      2.123      2.758
REMARK  10 active torsions:
REMARK  status: ('A' for Active; 'I' for Inactive)
REMARK    1  A    between atoms: C_2  and  C_3 
REMARK    2  A    between atoms: C_3  and  C_4 
REMARK    3  A    between atoms: C_4  and  O_5 
REMARK    4  A    between atoms: O_5  and  C_6 
REMARK    5  A    between atoms: C_9  and  C_10 
REMARK       I    between atoms: C_10  and  N_11 
REMARK    6  A    between atoms: N_11  and  C_12 
REMARK    7  A    between atoms: C_12  and  N_13 
REMARK    8  A    between atoms: N_13  and  C_14 
REMARK    9  A    between atoms: C_16  and  C_17 
REMARK   10  A    between atoms: C_26  and  O_27 
ROOT
HETATM    1  N   UNL     1      42.382 -11.111   4.154  1.00  0.00    -0.333 N 
HETATM    2  H   UNL     1      43.372 -11.140   3.904  1.00  0.00     0.168 HD
ENDROOT
BRANCH   1   3
HETATM    3  C   UNL     1      42.010  -9.923   4.739  1.00  0.00     0.179 C 
HETATM    4  S   UNL     1      40.979  -8.729   4.185  1.00  0.00    -0.040 SA
BRANCH   3   5
HETATM    5  N   UNL     1      42.584  -9.673   5.973  1.00  0.00    -0.299 N 
HETATM    6  C   UNL     1      43.398 -10.478   6.758  1.00  0.00     0.257 C 
HETATM    7  O   UNL     1      43.957 -11.493   6.364  1.00  0.00    -0.267 OA
HETATM    8  H   UNL     1      42.339  -8.761   6.339  1.00  0.00     0.171 HD
BRANCH   6   9
HETATM    9  C   UNL     1      43.616  -9.952   8.127  1.00  0.00     0.032 A 
HETATM   10  C   UNL     1      44.624 -10.498   8.933  1.00  0.00     0.020 A 
HETATM   11  C   UNL     1      44.782 -10.049  10.246  1.00  0.00     0.038 A 
HETATM   12  C   UNL     1      43.949  -9.047  10.743  1.00  0.00     0.068 A 
HETATM   13  C   UNL     1      42.942  -8.508   9.940  1.00  0.00     0.038 A 
HETATM   14  C   UNL     1      42.785  -8.944   8.621  1.00  0.00     0.020 A 
BRANCH  12  15
HETATM   15  O   UNL     1      44.004  -8.631  12.045  1.00  0.00    -0.351 OA
BRANCH  15  16
HETATM   16  C   UNL     1      42.721  -8.269  12.572  1.00  0.00     0.175 C 
BRANCH  16  17
HETATM   17  C   UNL     1      42.111  -9.484  13.270  1.00  0.00     0.026 C 
BRANCH  17  18
HETATM   18  C   UNL     1      40.615  -9.302  13.536  1.00  0.00    -0.002 C 
HETATM   19  C   UNL     1      39.821 -10.533  13.124  1.00  0.00     0.005 C 
ENDBRANCH  17  18
ENDBRANCH  16  17
ENDBRANCH  15  16
ENDBRANCH  12  15
ENDBRANCH   6   9
ENDBRANCH   3   5
ENDBRANCH   1   3
BRANCH   1  20
HETATM   20  C   UNL     1      41.631 -12.250   3.772  1.00  0.00     0.035 A 
HETATM   21  C   UNL     1      42.261 -13.504   3.889  1.00  0.00     0.046 A 
HETATM   22  C   UNL     1      41.604 -14.705   3.543  1.00  0.00     0.035 A 
HETATM   23  C   UNL     1      40.277 -14.604   3.086  1.00  0.00     0.078 A 
HETATM   24  C   UNL     1      39.633 -13.375   2.994  1.00  0.00     0.040 A 
HETATM   25  C   UNL     1      40.306 -12.206   3.342  1.00  0.00     0.032 A 
BRANCH  22  26
HETATM   26  C   UNL     1      42.244 -16.037   3.639  1.00  0.00     0.112 A 
HETATM   27  S   UNL     1      43.019 -16.611   5.063  1.00  0.00    -0.067 SA
HETATM   28  C   UNL     1      43.398 -18.097   4.284  1.00  0.00     0.035 A 
HETATM   29  C   UNL     1      42.907 -18.060   2.980  1.00  0.00     0.075 A 
HETATM   30  C   UNL     1      44.079 -19.218   4.786  1.00  0.00     0.021 A 
HETATM   31  N   UNL     1      42.254 -16.891   2.628  1.00  0.00    -0.239 NA
HETATM   32  C   UNL     1      43.103 -19.178   2.145  1.00  0.00     0.033 A 
HETATM   33  C   UNL     1      43.781 -20.299   2.633  1.00  0.00     0.002 A 
HETATM   34  C   UNL     1      44.262 -20.317   3.939  1.00  0.00     0.002 A 
ENDBRANCH  22  26
BRANCH  23  35
HETATM   35  O   UNL     1      39.523 -15.688   2.713  1.00  0.00    -0.360 OA
HETATM   36  H   UNL     1      40.104 -16.294   2.202  1.00  0.00     0.217 HD
ENDBRANCH  23  35
ENDBRANCH   1  20
TORSDOF 10
ENDMDL
MODEL 8
REMARK VINA RESULT:      -7.7      2.765      3.796
REMARK  10 active torsions:
REMARK  status: ('A' for Active; 'I' for Inactive)
REMARK    1  A    between atoms: C_2  and  C_3 
REMARK    2  A    between atoms: C_3  and  C_4 
REMARK    3  A    between atoms: C_4  and  O_5 
REMARK    4  A    between atoms: O_5  and  C_6 
REMARK    5  A    between atoms: C_9  and  C_10 
REMARK       I    between atoms: C_10  and  N_11 
REMARK    6  A    between atoms: N_11  and  C_12 
REMARK    7  A    between atoms: C_12  and  N_13 
REMARK    8  A    between atoms: N_13  and  C_14 
REMARK    9  A    between atoms: C_16  and  C_17 
REMARK   10  A    between atoms: C_26  and  O_27 
ROOT
HETATM    1  N   UNL     1      41.507 -10.188   4.443  1.00  0.00    -0.333 N 
HETATM    2  H   UNL     1      42.520 -10.135   4.327  1.00  0.00     0.168 HD
ENDROOT
BRANCH   1   3
HETATM    3  C   UNL     1      40.970  -9.049   4.999  1.00  0.00     0.179 C 
HETATM    4  S   UNL     1      40.561  -7.595   4.283  1.00  0.00    -0.040 SA
BRANCH   3   5
HETATM    5  N   UNL     1      40.741  -9.115   6.362  1.00  0.00    -0.299 N 
HETATM    6  C   UNL     1      39.568  -9.372   7.057  1.00  0.00     0.257 C 
HETATM    7  O   UNL     1      38.551  -9.836   6.557  1.00  0.00    -0.267 OA
HETATM    8  H   UNL     1      41.573  -8.924   6.906  1.00  0.00     0.171 HD
BRANCH   6   9
HETATM    9  C   UNL     1      39.669  -9.118   8.515  1.00  0.00     0.032 A 
HETATM   10  C   UNL     1      40.315  -7.966   8.981  1.00  0.00     0.020 A 
HETATM   11  C   UNL     1      40.471  -7.764  10.353  1.00  0.00     0.038 A 
HETATM   12  C   UNL     1      39.967  -8.701  11.255  1.00  0.00     0.068 A 
HETATM   13  C   UNL     1      39.328  -9.851  10.789  1.00  0.00     0.038 A 
HETATM   14  C   UNL     1      39.159 -10.055   9.417  1.00  0.00     0.020 A 
BRANCH  12  15
HETATM   15  O   UNL     1      40.166  -8.596  12.605  1.00  0.00    -0.351 OA
BRANCH  15  16
HETATM   16  C   UNL     1      40.819  -9.741  13.165  1.00  0.00     0.175 C 
BRANCH  16  17
HETATM   17  C   UNL     1      42.324  -9.482  13.210  1.00  0.00     0.026 C 
BRANCH  17  18
HETATM   18  C   UNL     1      43.055 -10.131  12.032  1.00  0.00    -0.002 C 
HETATM   19  C   UNL     1      43.916  -9.123  11.286  1.00  0.00     0.005 C 
ENDBRANCH  17  18
ENDBRANCH  16  17
ENDBRANCH  15  16
ENDBRANCH  12  15
ENDBRANCH   6   9
ENDBRANCH   3   5
ENDBRANCH   1   3
BRANCH   1  20
HETATM   20  C   UNL     1      40.903 -11.366   3.940  1.00  0.00     0.035 A 
HETATM   21  C   UNL     1      41.633 -12.565   4.062  1.00  0.00     0.046 A 
HETATM   22  C   UNL     1      41.125 -13.799   3.602  1.00  0.00     0.035 A 
HETATM   23  C   UNL     1      39.842 -13.792   3.023  1.00  0.00     0.078 A 
HETATM   24  C   UNL     1      39.098 -12.621   2.924  1.00  0.00     0.040 A 
HETATM   25  C   UNL     1      39.625 -11.417   3.387  1.00  0.00     0.032 A 
BRANCH  22  26
HETATM   26  C   UNL     1      41.875 -15.073   3.700  1.00  0.00     0.112 A 
HETATM   27  S   UNL     1      42.774 -15.533   5.092  1.00  0.00    -0.067 SA
HETATM   28  C   UNL     1      43.226 -17.012   4.337  1.00  0.00     0.035 A 
HETATM   29  C   UNL     1      42.659 -17.060   3.065  1.00  0.00     0.075 A 
HETATM   30  C   UNL     1      44.023 -18.057   4.831  1.00  0.00     0.021 A 
HETATM   31  N   UNL     1      41.895 -15.959   2.717  1.00  0.00    -0.239 NA
HETATM   32  C   UNL     1      42.895 -18.188   2.254  1.00  0.00     0.033 A 
HETATM   33  C   UNL     1      43.688 -19.235   2.735  1.00  0.00     0.002 A 
HETATM   34  C   UNL     1      44.244 -19.168   4.009  1.00  0.00     0.002 A 
ENDBRANCH  22  26
BRANCH  23  35
HETATM   35  O   UNL     1      39.230 -14.917   2.531  1.00  0.00    -0.360 OA
HETATM   36  H   UNL     1      38.690 -14.647   1.756  1.00  0.00     0.217 HD
ENDBRANCH  23  35
ENDBRANCH   1  20
TORSDOF 10
ENDMDL
MODEL 9
REMARK VINA RESULT:      -7.5      2.693     11.788
REMARK  10 active torsions:
REMARK  status: ('A' for Active; 'I' for Inactive)
REMARK    1  A    between atoms: C_2  and  C_3 
REMARK    2  A    between atoms: C_3  and  C_4 
REMARK    3  A    between atoms: C_4  and  O_5 
REMARK    4  A    between atoms: O_5  and  C_6 
REMARK    5  A    between atoms: C_9  and  C_10 
REMARK       I    between atoms: C_10  and  N_11 
REMARK    6  A    between atoms: N_11  and  C_12 
REMARK    7  A    between atoms: C_12  and  N_13 
REMARK    8  A    between atoms: N_13  and  C_14 
REMARK    9  A    between atoms: C_16  and  C_17 
REMARK   10  A    between atoms: C_26  and  O_27 
ROOT
HETATM    1  N   UNL     1      43.199 -10.142   9.049  1.00  0.00    -0.333 N 
HETATM    2  H   UNL     1      42.448 -10.811   9.225  1.00  0.00     0.168 HD
ENDROOT
BRANCH   1   3
HETATM    3  C   UNL     1      44.201 -10.656   8.257  1.00  0.00     0.179 C 
HETATM    4  S   UNL     1      45.854 -10.413   8.322  1.00  0.00    -0.040 SA
BRANCH   3   5
HETATM    5  N   UNL     1      43.774 -11.499   7.246  1.00  0.00    -0.299 N 
HETATM    6  C   UNL     1      42.739 -11.344   6.334  1.00  0.00     0.257 C 
HETATM    7  O   UNL     1      42.161 -10.288   6.112  1.00  0.00    -0.267 OA
HETATM    8  H   UNL     1      44.308 -12.358   7.203  1.00  0.00     0.171 HD
BRANCH   6   9
HETATM    9  C   UNL     1      42.438 -12.573   5.559  1.00  0.00     0.032 A 
HETATM   10  C   UNL     1      41.328 -12.606   4.704  1.00  0.00     0.020 A 
HETATM   11  C   UNL     1      41.006 -13.785   4.030  1.00  0.00     0.038 A 
HETATM   12  C   UNL     1      41.799 -14.919   4.197  1.00  0.00     0.068 A 
HETATM   13  C   UNL     1      42.902 -14.887   5.052  1.00  0.00     0.038 A 
HETATM   14  C   UNL     1      43.237 -13.706   5.722  1.00  0.00     0.020 A 
BRANCH  12  15
HETATM   15  O   UNL     1      41.482 -16.123   3.628  1.00  0.00    -0.351 OA
BRANCH  15  16
HETATM   16  C   UNL     1      42.493 -17.119   3.825  1.00  0.00     0.175 C 
BRANCH  16  17
HETATM   17  C   UNL     1      42.848 -17.739   2.474  1.00  0.00     0.026 C 
BRANCH  17  18
HETATM   18  C   UNL     1      43.837 -18.899   2.617  1.00  0.00    -0.002 C 
HETATM   19  C   UNL     1      43.245 -20.202   2.099  1.00  0.00     0.005 C 
ENDBRANCH  17  18
ENDBRANCH  16  17
ENDBRANCH  15  16
ENDBRANCH  12  15
ENDBRANCH   6   9
ENDBRANCH   3   5
ENDBRANCH   1   3
BRANCH   1  20
HETATM   20  C   UNL     1      42.993  -8.847   9.585  1.00  0.00     0.035 A 
HETATM   21  C   UNL     1      42.486  -8.769  10.897  1.00  0.00     0.046 A 
HETATM   22  C   UNL     1      42.248  -7.532  11.533  1.00  0.00     0.035 A 
HETATM   23  C   UNL     1      42.552  -6.366  10.807  1.00  0.00     0.078 A 
HETATM   24  C   UNL     1      43.080  -6.428   9.522  1.00  0.00     0.040 A 
HETATM   25  C   UNL     1      43.305  -7.664   8.919  1.00  0.00     0.032 A 
BRANCH  22  26
HETATM   26  C   UNL     1      41.700  -7.416  12.905  1.00  0.00     0.112 A 
HETATM   27  S   UNL     1      42.272  -8.351  14.230  1.00  0.00    -0.067 SA
HETATM   28  C   UNL     1      41.153  -7.579  15.285  1.00  0.00     0.035 A 
HETATM   29  C   UNL     1      40.412  -6.653  14.554  1.00  0.00     0.075 A 
HETATM   30  C   UNL     1      40.944  -7.775  16.660  1.00  0.00     0.021 A 
HETATM   31  N   UNL     1      40.732  -6.568  13.210  1.00  0.00    -0.239 NA
HETATM   32  C   UNL     1      39.424  -5.895  15.215  1.00  0.00     0.033 A 
HETATM   33  C   UNL     1      39.206  -6.082  16.584  1.00  0.00     0.002 A 
HETATM   34  C   UNL     1      39.959  -7.011  17.296  1.00  0.00     0.002 A 
ENDBRANCH  22  26
BRANCH  23  35
HETATM   35  O   UNL     1      42.366  -5.099  11.300  1.00  0.00    -0.360 OA
HETATM   36  H   UNL     1      43.252  -4.722  11.496  1.00  0.00     0.217 HD
ENDBRANCH  23  35
ENDBRANCH   1  20
TORSDOF 10
ENDMDL
MODEL 10
REMARK VINA RESULT:      -7.5      2.240      2.800
REMARK  10 active torsions:
REMARK  status: ('A' for Active; 'I' for Inactive)
REMARK    1  A    between atoms: C_2  and  C_3 
REMARK    2  A    between atoms: C_3  and  C_4 
REMARK    3  A    between atoms: C_4  and  O_5 
REMARK    4  A    between atoms: O_5  and  C_6 
REMARK    5  A    between atoms: C_9  and  C_10 
REMARK       I    between atoms: C_10  and  N_11 
REMARK    6  A    between atoms: N_11  and  C_12 
REMARK    7  A    between atoms: C_12  and  N_13 
REMARK    8  A    between atoms: N_13  and  C_14 
REMARK    9  A    between atoms: C_16  and  C_17 
REMARK   10  A    between atoms: C_26  and  O_27 
ROOT
HETATM    1  N   UNL     1      42.080 -10.670   5.987  1.00  0.00    -0.333 N 
HETATM    2  H   UNL     1      43.034 -10.903   6.266  1.00  0.00     0.168 HD
ENDROOT
BRANCH   1   3
HETATM    3  C   UNL     1      41.704  -9.401   6.367  1.00  0.00     0.179 C 
HETATM    4  S   UNL     1      41.165  -8.118   5.440  1.00  0.00    -0.040 SA
BRANCH   3   5
HETATM    5  N   UNL     1      41.794  -9.145   7.723  1.00  0.00    -0.299 N 
HETATM    6  C   UNL     1      42.824  -8.571   8.456  1.00  0.00     0.257 C 
HETATM    7  O   UNL     1      43.764  -7.956   7.969  1.00  0.00    -0.267 OA
HETATM    8  H   UNL     1      40.974  -9.450   8.233  1.00  0.00     0.171 HD
BRANCH   6   9
HETATM    9  C   UNL     1      42.648  -8.685   9.924  1.00  0.00     0.032 A 
HETATM   10  C   UNL     1      43.679  -8.288  10.785  1.00  0.00     0.020 A 
HETATM   11  C   UNL     1      43.538  -8.461  12.163  1.00  0.00     0.038 A 
HETATM   12  C   UNL     1      42.365  -9.012  12.678  1.00  0.00     0.068 A 
HETATM   13  C   UNL     1      41.340  -9.412  11.819  1.00  0.00     0.038 A 
HETATM   14  C   UNL     1      41.470  -9.231  10.439  1.00  0.00     0.020 A 
BRANCH  12  15
HETATM   15  O   UNL     1      42.208  -9.282  14.010  1.00  0.00    -0.351 OA
BRANCH  15  16
HETATM   16  C   UNL     1      41.009  -8.722  14.558  1.00  0.00     0.175 C 
BRANCH  16  17
HETATM   17  C   UNL     1      41.237  -7.237  14.837  1.00  0.00     0.026 C 
BRANCH  17  18
HETATM   18  C   UNL     1      42.051  -7.012  16.114  1.00  0.00    -0.002 C 
HETATM   19  C   UNL     1      41.664  -5.710  16.800  1.00  0.00     0.005 C 
ENDBRANCH  17  18
ENDBRANCH  16  17
ENDBRANCH  15  16
ENDBRANCH  12  15
ENDBRANCH   6   9
ENDBRANCH   3   5
ENDBRANCH   1   3
BRANCH   1  20
HETATM   20  C   UNL     1      41.416 -11.660   5.222  1.00  0.00     0.035 A 
HETATM   21  C   UNL     1      42.043 -12.916   5.116  1.00  0.00     0.046 A 
HETATM   22  C   UNL     1      41.468 -13.979   4.385  1.00  0.00     0.035 A 
HETATM   23  C   UNL     1      40.225 -13.739   3.771  1.00  0.00     0.078 A 
HETATM   24  C   UNL     1      39.580 -12.513   3.893  1.00  0.00     0.040 A 
HETATM   25  C   UNL     1      40.171 -11.482   4.621  1.00  0.00     0.032 A 
BRANCH  22  26
HETATM   26  C   UNL     1      42.110 -15.306   4.239  1.00  0.00     0.112 A 
HETATM   27  S   UNL     1      42.933 -16.100   5.524  1.00  0.00    -0.067 SA
HETATM   28  C   UNL     1      43.284 -17.438   4.500  1.00  0.00     0.035 A 
HETATM   29  C   UNL     1      42.748 -17.191   3.237  1.00  0.00     0.075 A 
HETATM   30  C   UNL     1      43.981 -18.622   4.788  1.00  0.00     0.021 A 
HETATM   31  N   UNL     1      42.085 -15.983   3.103  1.00  0.00    -0.239 NA
HETATM   32  C   UNL     1      42.915 -18.156   2.224  1.00  0.00     0.033 A 
HETATM   33  C   UNL     1      43.608 -19.339   2.499  1.00  0.00     0.002 A 
HETATM   34  C   UNL     1      44.134 -19.567   3.768  1.00  0.00     0.002 A 
ENDBRANCH  22  26
BRANCH  23  35
HETATM   35  O   UNL     1      39.556 -14.678   3.027  1.00  0.00    -0.360 OA
HETATM   36  H   UNL     1      39.224 -15.366   3.645  1.00  0.00     0.217 HD
ENDBRANCH  23  35
ENDBRANCH   1  20
TORSDOF 10
ENDMDL
