MODEL 1
REMARK VINA RESULT:      -8.1      0.000      0.000
REMARK  4 active torsions:
REMARK  status: ('A' for Active; 'I' for Inactive)
REMARK    1  A    between atoms: C_3  and  N_4 
REMARK       I    between atoms: N_4  and  C_5 
REMARK    2  A    between atoms: C_5  and  C_6 
REMARK    3  A    between atoms: C_7  and  C_8 
REMARK    4  A    between atoms: C_15  and  C_16 
ROOT
HETATM    1  C   UNL     1      42.640 -16.069   1.707  1.00  0.00     0.003 A 
HETATM    2  C   UNL     1      42.806 -15.096   2.695  1.00  0.00     0.029 A 
HETATM    3  C   UNL     1      43.275 -15.448   3.960  1.00  0.00     0.035 A 
HETATM    4  C   UNL     1      43.575 -16.796   4.222  1.00  0.00     0.042 A 
HETATM    5  C   UNL     1      43.416 -17.783   3.236  1.00  0.00    -0.021 A 
HETATM    6  C   UNL     1      42.943 -17.404   1.975  1.00  0.00     0.012 A 
ENDROOT
BRANCH   3   7
HETATM    7  N   UNL     1      43.478 -14.528   5.012  1.00  0.00    -0.324 N 
HETATM    8  C   UNL     1      42.653 -14.300   6.095  1.00  0.00     0.245 C 
HETATM    9  O   UNL     1      41.593 -14.856   6.351  1.00  0.00    -0.268 OA
HETATM   10  H   UNL     1      44.319 -13.971   4.947  1.00  0.00     0.169 HD
BRANCH   8  11
HETATM   11  C   UNL     1      43.194 -13.240   6.989  1.00  0.00     0.077 C 
HETATM   12  C   UNL     1      44.287 -12.557   6.619  1.00  0.00     0.042 C 
BRANCH  12  13
HETATM   13  C   UNL     1      44.830 -11.544   7.456  1.00  0.00     0.075 A 
HETATM   14  O   UNL     1      44.419 -11.305   8.750  1.00  0.00    -0.323 OA
HETATM   15  C   UNL     1      45.147 -10.277   9.248  1.00  0.00     0.142 A 
HETATM   16  C   UNL     1      46.038  -9.823   8.310  1.00  0.00     0.027 A 
HETATM   17  C   UNL     1      45.837 -10.630   7.165  1.00  0.00     0.039 A 
ENDBRANCH  12  13
ENDBRANCH   8  11
ENDBRANCH   3   7
BRANCH   5  18
HETATM   18  C   UNL     1      43.733 -19.170   3.534  1.00  0.00     0.010 A 
HETATM   19  C   UNL     1      43.695 -20.325   2.717  1.00  0.00     0.152 A 
HETATM   20  N   UNL     1      44.045 -21.435   3.372  1.00  0.00    -0.187 NA
HETATM   21  N   UNL     1      44.311 -20.997   4.612  1.00  0.00    -0.289 N 
HETATM   22  H   UNL     1      44.602 -21.674   5.310  1.00  0.00     0.188 HD
HETATM   23  C   UNL     1      44.137 -19.651   4.761  1.00  0.00     0.123 A 
ENDBRANCH   5  18
TORSDOF 4
ENDMDL
MODEL 2
REMARK VINA RESULT:      -7.9      3.600      6.897
REMARK  4 active torsions:
REMARK  status: ('A' for Active; 'I' for Inactive)
REMARK    1  A    between atoms: C_3  and  N_4 
REMARK       I    between atoms: N_4  and  C_5 
REMARK    2  A    between atoms: C_5  and  C_6 
REMARK    3  A    between atoms: C_7  and  C_8 
REMARK    4  A    between atoms: C_15  and  C_16 
ROOT
HETATM    1  C   UNL     1      43.750 -15.837   5.406  1.00  0.00     0.003 A 
HETATM    2  C   UNL     1      43.065 -15.138   4.409  1.00  0.00     0.029 A 
HETATM    3  C   UNL     1      42.625 -15.796   3.262  1.00  0.00     0.035 A 
HETATM    4  C   UNL     1      42.884 -17.170   3.126  1.00  0.00     0.042 A 
HETATM    5  C   UNL     1      43.568 -17.885   4.122  1.00  0.00    -0.021 A 
HETATM    6  C   UNL     1      44.000 -17.202   5.264  1.00  0.00     0.012 A 
ENDROOT
BRANCH   3   7
HETATM    7  N   UNL     1      41.921 -15.166   2.211  1.00  0.00    -0.324 N 
HETATM    8  C   UNL     1      40.684 -14.557   2.279  1.00  0.00     0.245 C 
HETATM    9  O   UNL     1      39.966 -14.443   3.264  1.00  0.00    -0.268 OA
HETATM   10  H   UNL     1      42.381 -15.180   1.311  1.00  0.00     0.169 HD
BRANCH   8  11
HETATM   11  C   UNL     1      40.262 -14.016   0.959  1.00  0.00     0.077 C 
HETATM   12  C   UNL     1      39.888 -14.859  -0.013  1.00  0.00     0.042 C 
BRANCH  12  13
HETATM   13  C   UNL     1      39.487 -14.370  -1.287  1.00  0.00     0.075 A 
HETATM   14  O   UNL     1      39.710 -13.084  -1.728  1.00  0.00    -0.323 OA
HETATM   15  C   UNL     1      39.201 -12.965  -2.978  1.00  0.00     0.142 A 
HETATM   16  C   UNL     1      38.641 -14.150  -3.381  1.00  0.00     0.027 A 
HETATM   17  C   UNL     1      38.822 -15.048  -2.303  1.00  0.00     0.039 A 
ENDBRANCH  12  13
ENDBRANCH   8  11
ENDBRANCH   3   7
BRANCH   5  18
HETATM   18  C   UNL     1      43.823 -19.307   3.955  1.00  0.00     0.010 A 
HETATM   19  C   UNL     1      43.767 -20.129   2.805  1.00  0.00     0.152 A 
HETATM   20  N   UNL     1      44.054 -21.407   3.067  1.00  0.00    -0.187 NA
HETATM   21  N   UNL     1      44.295 -21.410   4.387  1.00  0.00    -0.289 N 
HETATM   22  H   UNL     1      44.538 -22.290   4.831  1.00  0.00     0.188 HD
HETATM   23  C   UNL     1      44.168 -20.180   4.965  1.00  0.00     0.123 A 
ENDBRANCH   5  18
TORSDOF 4
ENDMDL
MODEL 3
REMARK VINA RESULT:      -7.7      4.159      7.722
REMARK  4 active torsions:
REMARK  status: ('A' for Active; 'I' for Inactive)
REMARK    1  A    between atoms: C_3  and  N_4 
REMARK       I    between atoms: N_4  and  C_5 
REMARK    2  A    between atoms: C_5  and  C_6 
REMARK    3  A    between atoms: C_7  and  C_8 
REMARK    4  A    between atoms: C_15  and  C_16 
ROOT
HETATM    1  C   UNL     1      43.975 -18.531   3.282  1.00  0.00     0.003 A 
HETATM    2  C   UNL     1      43.066 -17.987   2.371  1.00  0.00     0.029 A 
HETATM    3  C   UNL     1      42.210 -16.958   2.760  1.00  0.00     0.035 A 
HETATM    4  C   UNL     1      42.276 -16.482   4.080  1.00  0.00     0.042 A 
HETATM    5  C   UNL     1      43.187 -17.017   5.004  1.00  0.00    -0.021 A 
HETATM    6  C   UNL     1      44.036 -18.049   4.590  1.00  0.00     0.012 A 
ENDROOT
BRANCH   3   7
HETATM    7  N   UNL     1      41.267 -16.349   1.902  1.00  0.00    -0.324 N 
HETATM    8  C   UNL     1      41.338 -15.090   1.339  1.00  0.00     0.245 C 
HETATM    9  O   UNL     1      42.234 -14.267   1.474  1.00  0.00    -0.268 OA
HETATM   10  H   UNL     1      40.448 -16.903   1.693  1.00  0.00     0.169 HD
BRANCH   8  11
HETATM   11  C   UNL     1      40.146 -14.793   0.499  1.00  0.00     0.077 C 
HETATM   12  C   UNL     1      40.314 -14.307  -0.739  1.00  0.00     0.042 C 
BRANCH  12  13
HETATM   13  C   UNL     1      39.194 -14.007  -1.561  1.00  0.00     0.075 A 
HETATM   14  O   UNL     1      38.341 -12.944  -1.351  1.00  0.00    -0.323 OA
HETATM   15  C   UNL     1      37.393 -12.957  -2.319  1.00  0.00     0.142 A 
HETATM   16  C   UNL     1      37.595 -14.010  -3.172  1.00  0.00     0.027 A 
HETATM   17  C   UNL     1      38.744 -14.682  -2.690  1.00  0.00     0.039 A 
ENDBRANCH  12  13
ENDBRANCH   8  11
ENDBRANCH   3   7
BRANCH   5  18
HETATM   18  C   UNL     1      43.234 -16.506   6.364  1.00  0.00     0.010 A 
HETATM   19  C   UNL     1      42.917 -15.229   6.884  1.00  0.00     0.152 A 
HETATM   20  N   UNL     1      43.112 -15.143   8.203  1.00  0.00    -0.187 NA
HETATM   21  N   UNL     1      43.554 -16.366   8.534  1.00  0.00    -0.289 N 
HETATM   22  H   UNL     1      43.778 -16.551   9.507  1.00  0.00     0.188 HD
HETATM   23  C   UNL     1      43.646 -17.217   7.471  1.00  0.00     0.123 A 
ENDBRANCH   5  18
TORSDOF 4
ENDMDL
MODEL 4
REMARK VINA RESULT:      -7.6      5.228      8.324
REMARK  4 active torsions:
REMARK  status: ('A' for Active; 'I' for Inactive)
REMARK    1  A    between atoms: C_3  and  N_4 
REMARK       I    between atoms: N_4  and  C_5 
REMARK    2  A    between atoms: C_5  and  C_6 
REMARK    3  A    between atoms: C_7  and  C_8 
REMARK    4  A    between atoms: C_15  and  C_16 
ROOT
HETATM    1  C   UNL     1      40.847 -11.973   0.785  1.00  0.00     0.003 A 
HETATM    2  C   UNL     1      41.304 -13.037   1.566  1.00  0.00     0.029 A 
HETATM    3  C   UNL     1      40.996 -14.351   1.217  1.00  0.00     0.035 A 
HETATM    4  C   UNL     1      40.218 -14.584   0.070  1.00  0.00     0.042 A 
HETATM    5  C   UNL     1      39.756 -13.524  -0.725  1.00  0.00    -0.021 A 
HETATM    6  C   UNL     1      40.079 -12.214  -0.353  1.00  0.00     0.012 A 
ENDROOT
BRANCH   3   7
HETATM    7  N   UNL     1      41.423 -15.483   1.947  1.00  0.00    -0.324 N 
HETATM    8  C   UNL     1      42.689 -16.032   1.976  1.00  0.00     0.245 C 
HETATM    9  O   UNL     1      43.682 -15.638   1.379  1.00  0.00    -0.268 OA
HETATM   10  H   UNL     1      40.708 -15.940   2.497  1.00  0.00     0.169 HD
BRANCH   8  11
HETATM   11  C   UNL     1      42.751 -17.233   2.852  1.00  0.00     0.077 C 
HETATM   12  C   UNL     1      43.818 -18.042   2.793  1.00  0.00     0.042 C 
BRANCH  12  13
HETATM   13  C   UNL     1      43.900 -19.200   3.613  1.00  0.00     0.075 A 
HETATM   14  O   UNL     1      43.757 -20.490   3.148  1.00  0.00    -0.323 OA
HETATM   15  C   UNL     1      43.895 -21.340   4.194  1.00  0.00     0.142 A 
HETATM   16  C   UNL     1      44.128 -20.642   5.351  1.00  0.00     0.027 A 
HETATM   17  C   UNL     1      44.131 -19.276   4.982  1.00  0.00     0.039 A 
ENDBRANCH  12  13
ENDBRANCH   8  11
ENDBRANCH   3   7
BRANCH   5  18
HETATM   18  C   UNL     1      38.953 -13.794  -1.906  1.00  0.00     0.010 A 
HETATM   19  C   UNL     1      39.116 -14.746  -2.939  1.00  0.00     0.152 A 
HETATM   20  N   UNL     1      38.165 -14.666  -3.874  1.00  0.00    -0.187 NA
HETATM   21  N   UNL     1      37.387 -13.662  -3.444  1.00  0.00    -0.289 N 
HETATM   22  H   UNL     1      36.578 -13.405  -4.001  1.00  0.00     0.188 HD
HETATM   23  C   UNL     1      37.815 -13.105  -2.273  1.00  0.00     0.123 A 
ENDBRANCH   5  18
TORSDOF 4
ENDMDL
MODEL 5
REMARK VINA RESULT:      -7.5      2.966      8.234
REMARK  4 active torsions:
REMARK  status: ('A' for Active; 'I' for Inactive)
REMARK    1  A    between atoms: C_3  and  N_4 
REMARK       I    between atoms: N_4  and  C_5 
REMARK    2  A    between atoms: C_5  and  C_6 
REMARK    3  A    between atoms: C_7  and  C_8 
REMARK    4  A    between atoms: C_15  and  C_16 
ROOT
HETATM    1  C   UNL     1      41.077 -11.545   5.971  1.00  0.00     0.003 A 
HETATM    2  C   UNL     1      41.190 -12.745   5.265  1.00  0.00     0.029 A 
HETATM    3  C   UNL     1      42.433 -13.355   5.106  1.00  0.00     0.035 A 
HETATM    4  C   UNL     1      43.567 -12.743   5.667  1.00  0.00     0.042 A 
HETATM    5  C   UNL     1      43.466 -11.539   6.382  1.00  0.00    -0.021 A 
HETATM    6  C   UNL     1      42.208 -10.946   6.527  1.00  0.00     0.012 A 
ENDROOT
BRANCH   3   7
HETATM    7  N   UNL     1      42.633 -14.570   4.414  1.00  0.00    -0.324 N 
HETATM    8  C   UNL     1      43.063 -14.730   3.111  1.00  0.00     0.245 C 
HETATM    9  O   UNL     1      43.356 -13.850   2.313  1.00  0.00    -0.268 OA
HETATM   10  H   UNL     1      42.424 -15.409   4.938  1.00  0.00     0.169 HD
BRANCH   8  11
HETATM   11  C   UNL     1      43.140 -16.166   2.728  1.00  0.00     0.077 C 
HETATM   12  C   UNL     1      43.436 -17.085   3.658  1.00  0.00     0.042 C 
BRANCH  12  13
HETATM   13  C   UNL     1      43.524 -18.463   3.318  1.00  0.00     0.075 A 
HETATM   14  O   UNL     1      43.980 -19.443   4.172  1.00  0.00    -0.323 OA
HETATM   15  C   UNL     1      43.927 -20.633   3.526  1.00  0.00     0.142 A 
HETATM   16  C   UNL     1      43.444 -20.466   2.254  1.00  0.00     0.027 A 
HETATM   17  C   UNL     1      43.187 -19.081   2.119  1.00  0.00     0.039 A 
ENDBRANCH  12  13
ENDBRANCH   8  11
ENDBRANCH   3   7
BRANCH   5  18
HETATM   18  C   UNL     1      44.656 -10.927   6.951  1.00  0.00     0.010 A 
HETATM   19  C   UNL     1      44.799  -9.934   7.949  1.00  0.00     0.152 A 
HETATM   20  N   UNL     1      46.076  -9.617   8.186  1.00  0.00    -0.187 NA
HETATM   21  N   UNL     1      46.756 -10.407   7.342  1.00  0.00    -0.289 N 
HETATM   22  H   UNL     1      47.769 -10.346   7.335  1.00  0.00     0.188 HD
HETATM   23  C   UNL     1      45.954 -11.208   6.580  1.00  0.00     0.123 A 
ENDBRANCH   5  18
TORSDOF 4
ENDMDL
MODEL 6
REMARK VINA RESULT:      -6.9      3.243      8.791
REMARK  4 active torsions:
REMARK  status: ('A' for Active; 'I' for Inactive)
REMARK    1  A    between atoms: C_3  and  N_4 
REMARK       I    between atoms: N_4  and  C_5 
REMARK    2  A    between atoms: C_5  and  C_6 
REMARK    3  A    between atoms: C_7  and  C_8 
REMARK    4  A    between atoms: C_15  and  C_16 
ROOT
HETATM    1  C   UNL     1      46.199  -9.815   7.895  1.00  0.00     0.003 A 
HETATM    2  C   UNL     1      45.831 -10.741   6.916  1.00  0.00     0.029 A 
HETATM    3  C   UNL     1      44.704 -11.542   7.091  1.00  0.00     0.035 A 
HETATM    4  C   UNL     1      43.949 -11.403   8.268  1.00  0.00     0.042 A 
HETATM    5  C   UNL     1      44.306 -10.475   9.258  1.00  0.00    -0.021 A 
HETATM    6  C   UNL     1      45.441  -9.682   9.059  1.00  0.00     0.012 A 
ENDROOT
BRANCH   3   7
HETATM    7  N   UNL     1      44.259 -12.496   6.149  1.00  0.00    -0.324 N 
HETATM    8  C   UNL     1      43.071 -12.489   5.447  1.00  0.00     0.245 C 
HETATM    9  O   UNL     1      42.180 -11.651   5.504  1.00  0.00    -0.268 OA
HETATM   10  H   UNL     1      44.886 -13.273   5.988  1.00  0.00     0.169 HD
BRANCH   8  11
HETATM   11  C   UNL     1      42.949 -13.673   4.553  1.00  0.00     0.077 C 
HETATM   12  C   UNL     1      43.202 -14.897   5.038  1.00  0.00     0.042 C 
BRANCH  12  13
HETATM   13  C   UNL     1      43.102 -16.045   4.205  1.00  0.00     0.075 A 
HETATM   14  O   UNL     1      43.945 -17.133   4.281  1.00  0.00    -0.323 OA
HETATM   15  C   UNL     1      43.562 -18.037   3.347  1.00  0.00     0.142 A 
HETATM   16  C   UNL     1      42.478 -17.574   2.649  1.00  0.00     0.027 A 
HETATM   17  C   UNL     1      42.183 -16.302   3.194  1.00  0.00     0.039 A 
ENDBRANCH  12  13
ENDBRANCH   8  11
ENDBRANCH   3   7
BRANCH   5  18
HETATM   18  C   UNL     1      43.506 -10.352  10.466  1.00  0.00     0.010 A 
HETATM   19  C   UNL     1      42.373  -9.554  10.750  1.00  0.00     0.152 A 
HETATM   20  N   UNL     1      41.929  -9.710  12.000  1.00  0.00    -0.187 NA
HETATM   21  N   UNL     1      42.774 -10.610  12.523  1.00  0.00    -0.289 N 
HETATM   22  H   UNL     1      42.639 -10.895  13.488  1.00  0.00     0.188 HD
HETATM   23  C   UNL     1      43.737 -11.024  11.648  1.00  0.00     0.123 A 
ENDBRANCH   5  18
TORSDOF 4
ENDMDL
MODEL 7
REMARK VINA RESULT:      -6.9      4.273      7.523
REMARK  4 active torsions:
REMARK  status: ('A' for Active; 'I' for Inactive)
REMARK    1  A    between atoms: C_3  and  N_4 
REMARK       I    between atoms: N_4  and  C_5 
REMARK    2  A    between atoms: C_5  and  C_6 
REMARK    3  A    between atoms: C_7  and  C_8 
REMARK    4  A    between atoms: C_15  and  C_16 
ROOT
HETATM    1  C   UNL     1      46.458 -10.336   7.503  1.00  0.00     0.003 A 
HETATM    2  C   UNL     1      45.827  -9.813   8.634  1.00  0.00     0.029 A 
HETATM    3  C   UNL     1      44.552 -10.249   8.996  1.00  0.00     0.035 A 
HETATM    4  C   UNL     1      43.916 -11.219   8.203  1.00  0.00     0.042 A 
HETATM    5  C   UNL     1      44.541 -11.755   7.066  1.00  0.00    -0.021 A 
HETATM    6  C   UNL     1      45.820 -11.301   6.724  1.00  0.00     0.012 A 
ENDROOT
BRANCH   3   7
HETATM    7  N   UNL     1      43.848  -9.777  10.125  1.00  0.00    -0.324 N 
HETATM    8  C   UNL     1      43.662 -10.428  11.328  1.00  0.00     0.245 C 
HETATM    9  O   UNL     1      44.079 -11.535  11.645  1.00  0.00    -0.268 OA
HETATM   10  H   UNL     1      43.427  -8.863  10.024  1.00  0.00     0.169 HD
BRANCH   8  11
HETATM   11  C   UNL     1      42.851  -9.617  12.276  1.00  0.00     0.077 C 
HETATM   12  C   UNL     1      43.248  -8.377  12.594  1.00  0.00     0.042 C 
BRANCH  12  13
HETATM   13  C   UNL     1      42.496  -7.582  13.503  1.00  0.00     0.075 A 
HETATM   14  O   UNL     1      41.185  -7.207  13.302  1.00  0.00    -0.323 OA
HETATM   15  C   UNL     1      40.786  -6.461  14.361  1.00  0.00     0.142 A 
HETATM   16  C   UNL     1      41.807  -6.331  15.266  1.00  0.00     0.027 A 
HETATM   17  C   UNL     1      42.900  -7.045  14.719  1.00  0.00     0.039 A 
ENDBRANCH  12  13
ENDBRANCH   8  11
ENDBRANCH   3   7
BRANCH   5  18
HETATM   18  C   UNL     1      43.860 -12.758   6.263  1.00  0.00     0.010 A 
HETATM   19  C   UNL     1      43.644 -14.137   6.492  1.00  0.00     0.152 A 
HETATM   20  N   UNL     1      42.983 -14.731   5.495  1.00  0.00    -0.187 NA
HETATM   21  N   UNL     1      42.771 -13.735   4.622  1.00  0.00    -0.289 N 
HETATM   22  H   UNL     1      42.276 -13.945   3.761  1.00  0.00     0.188 HD
HETATM   23  C   UNL     1      43.277 -12.535   5.033  1.00  0.00     0.123 A 
ENDBRANCH   5  18
TORSDOF 4
ENDMDL
MODEL 8
REMARK VINA RESULT:      -6.8      3.494      5.158
REMARK  4 active torsions:
REMARK  status: ('A' for Active; 'I' for Inactive)
REMARK    1  A    between atoms: C_3  and  N_4 
REMARK       I    between atoms: N_4  and  C_5 
REMARK    2  A    between atoms: C_5  and  C_6 
REMARK    3  A    between atoms: C_7  and  C_8 
REMARK    4  A    between atoms: C_15  and  C_16 
ROOT
HETATM    1  C   UNL     1      44.513 -16.370   6.355  1.00  0.00     0.003 A 
HETATM    2  C   UNL     1      43.632 -15.314   6.111  1.00  0.00     0.029 A 
HETATM    3  C   UNL     1      42.732 -15.378   5.047  1.00  0.00     0.035 A 
HETATM    4  C   UNL     1      42.730 -16.519   4.228  1.00  0.00     0.042 A 
HETATM    5  C   UNL     1      43.607 -17.589   4.465  1.00  0.00    -0.021 A 
HETATM    6  C   UNL     1      44.501 -17.500   5.537  1.00  0.00     0.012 A 
ENDROOT
BRANCH   3   7
HETATM    7  N   UNL     1      41.805 -14.359   4.736  1.00  0.00    -0.324 N 
HETATM    8  C   UNL     1      40.646 -14.044   5.416  1.00  0.00     0.245 C 
HETATM    9  O   UNL     1      40.206 -14.586   6.422  1.00  0.00    -0.268 OA
HETATM   10  H   UNL     1      42.020 -13.812   3.912  1.00  0.00     0.169 HD
BRANCH   8  11
HETATM   11  C   UNL     1      39.919 -12.914   4.777  1.00  0.00     0.077 C 
HETATM   12  C   UNL     1      39.670 -12.947   3.461  1.00  0.00     0.042 C 
BRANCH  12  13
HETATM   13  C   UNL     1      38.984 -11.877   2.822  1.00  0.00     0.075 A 
HETATM   14  O   UNL     1      38.360 -11.979   1.598  1.00  0.00    -0.323 OA
HETATM   15  C   UNL     1      37.810 -10.777   1.296  1.00  0.00     0.142 A 
HETATM   16  C   UNL     1      38.056  -9.874   2.297  1.00  0.00     0.027 A 
HETATM   17  C   UNL     1      38.806 -10.574   3.272  1.00  0.00     0.039 A 
ENDBRANCH  12  13
ENDBRANCH   8  11
ENDBRANCH   3   7
BRANCH   5  18
HETATM   18  C   UNL     1      43.583 -18.758   3.601  1.00  0.00     0.010 A 
HETATM   19  C   UNL     1      43.975 -20.095   3.842  1.00  0.00     0.152 A 
HETATM   20  N   UNL     1      43.817 -20.883   2.774  1.00  0.00    -0.187 NA
HETATM   21  N   UNL     1      43.321 -20.053   1.844  1.00  0.00    -0.289 N 
HETATM   22  H   UNL     1      43.115 -20.429   0.924  1.00  0.00     0.188 HD
HETATM   23  C   UNL     1      43.165 -18.771   2.287  1.00  0.00     0.123 A 
ENDBRANCH   5  18
TORSDOF 4
ENDMDL
MODEL 9
REMARK VINA RESULT:      -6.7     10.630     14.284
REMARK  4 active torsions:
REMARK  status: ('A' for Active; 'I' for Inactive)
REMARK    1  A    between atoms: C_3  and  N_4 
REMARK       I    between atoms: N_4  and  C_5 
REMARK    2  A    between atoms: C_5  and  C_6 
REMARK    3  A    between atoms: C_7  and  C_8 
REMARK    4  A    between atoms: C_15  and  C_16 
ROOT
HETATM    1  C   UNL     1      43.063  -7.162  13.934  1.00  0.00     0.003 A 
HETATM    2  C   UNL     1      42.741  -7.142  15.293  1.00  0.00     0.029 A 
HETATM    3  C   UNL     1      41.653  -7.872  15.771  1.00  0.00     0.035 A 
HETATM    4  C   UNL     1      40.889  -8.624  14.863  1.00  0.00     0.042 A 
HETATM    5  C   UNL     1      41.204  -8.656  13.495  1.00  0.00    -0.021 A 
HETATM    6  C   UNL     1      42.300  -7.915  13.041  1.00  0.00     0.012 A 
ENDROOT
BRANCH   3   7
HETATM    7  N   UNL     1      41.264  -7.911  17.128  1.00  0.00    -0.324 N 
HETATM    8  C   UNL     1      40.205  -7.248  17.715  1.00  0.00     0.245 C 
HETATM    9  O   UNL     1      39.399  -6.505  17.168  1.00  0.00    -0.268 OA
HETATM   10  H   UNL     1      41.841  -8.483  17.730  1.00  0.00     0.169 HD
BRANCH   8  11
HETATM   11  C   UNL     1      40.119  -7.526  19.174  1.00  0.00     0.077 C 
HETATM   12  C   UNL     1      40.229  -8.786  19.616  1.00  0.00     0.042 C 
BRANCH  12  13
HETATM   13  C   UNL     1      40.144  -9.082  21.004  1.00  0.00     0.075 A 
HETATM   14  O   UNL     1      39.873 -10.334  21.514  1.00  0.00    -0.323 OA
HETATM   15  C   UNL     1      39.868 -10.253  22.866  1.00  0.00     0.142 A 
HETATM   16  C   UNL     1      40.131  -8.970  23.270  1.00  0.00     0.027 A 
HETATM   17  C   UNL     1      40.306  -8.221  22.083  1.00  0.00     0.039 A 
ENDBRANCH  12  13
ENDBRANCH   8  11
ENDBRANCH   3   7
BRANCH   5  18
HETATM   18  C   UNL     1      40.396  -9.442  12.578  1.00  0.00     0.010 A 
HETATM   19  C   UNL     1      40.185  -9.313  11.185  1.00  0.00     0.152 A 
HETATM   20  N   UNL     1      39.344 -10.231  10.700  1.00  0.00    -0.187 NA
HETATM   21  N   UNL     1      39.014 -10.954  11.780  1.00  0.00    -0.289 N 
HETATM   22  H   UNL     1      38.368 -11.729  11.663  1.00  0.00     0.188 HD
HETATM   23  C   UNL     1      39.614 -10.523  12.928  1.00  0.00     0.123 A 
ENDBRANCH   5  18
TORSDOF 4
ENDMDL
MODEL 10
REMARK VINA RESULT:      -6.7      5.533      9.055
REMARK  4 active torsions:
REMARK  status: ('A' for Active; 'I' for Inactive)
REMARK    1  A    between atoms: C_3  and  N_4 
REMARK       I    between atoms: N_4  and  C_5 
REMARK    2  A    between atoms: C_5  and  C_6 
REMARK    3  A    between atoms: C_7  and  C_8 
REMARK    4  A    between atoms: C_15  and  C_16 
ROOT
HETATM    1  C   UNL     1      38.663 -13.687  -2.595  1.00  0.00     0.003 A 
HETATM    2  C   UNL     1      39.214 -14.441  -1.556  1.00  0.00     0.029 A 
HETATM    3  C   UNL     1      40.282 -13.942  -0.811  1.00  0.00     0.035 A 
HETATM    4  C   UNL     1      40.792 -12.671  -1.125  1.00  0.00     0.042 A 
HETATM    5  C   UNL     1      40.245 -11.901  -2.164  1.00  0.00    -0.021 A 
HETATM    6  C   UNL     1      39.175 -12.425  -2.897  1.00  0.00     0.012 A 
ENDROOT
BRANCH   3   7
HETATM    7  N   UNL     1      40.892 -14.635   0.257  1.00  0.00    -0.324 N 
HETATM    8  C   UNL     1      40.530 -14.607   1.589  1.00  0.00     0.245 C 
HETATM    9  O   UNL     1      39.608 -13.980   2.094  1.00  0.00    -0.268 OA
HETATM   10  H   UNL     1      41.689 -15.204   0.007  1.00  0.00     0.169 HD
BRANCH   8  11
HETATM   11  C   UNL     1      41.421 -15.460   2.422  1.00  0.00     0.077 C 
HETATM   12  C   UNL     1      41.933 -16.585   1.904  1.00  0.00     0.042 C 
BRANCH  12  13
HETATM   13  C   UNL     1      42.781 -17.423   2.680  1.00  0.00     0.075 A 
HETATM   14  O   UNL     1      43.307 -17.072   3.905  1.00  0.00    -0.323 OA
HETATM   15  C   UNL     1      44.062 -18.101   4.357  1.00  0.00     0.142 A 
HETATM   16  C   UNL     1      44.051 -19.135   3.457  1.00  0.00     0.027 A 
HETATM   17  C   UNL     1      43.235 -18.704   2.385  1.00  0.00     0.039 A 
ENDBRANCH  12  13
ENDBRANCH   8  11
ENDBRANCH   3   7
BRANCH   5  18
HETATM   18  C   UNL     1      40.793 -10.589  -2.467  1.00  0.00     0.010 A 
HETATM   19  C   UNL     1      41.515  -9.679  -1.661  1.00  0.00     0.152 A 
HETATM   20  N   UNL     1      41.832  -8.552  -2.306  1.00  0.00    -0.187 NA
HETATM   21  N   UNL     1      41.315  -8.737  -3.530  1.00  0.00    -0.289 N 
HETATM   22  H   UNL     1      41.428  -7.998  -4.217  1.00  0.00     0.188 HD
HETATM   23  C   UNL     1      40.682  -9.938  -3.677  1.00  0.00     0.123 A 
ENDBRANCH   5  18
TORSDOF 4
ENDMDL
