MODEL 1
REMARK VINA RESULT:     -10.0      0.000      0.000
REMARK  6 active torsions:
REMARK  status: ('A' for Active; 'I' for Inactive)
REMARK    1  A    between atoms: C_4  and  C_5 
REMARK    2  A    between atoms: C_5  and  C_6 
REMARK    3  A    between atoms: C_8  and  C_9 
REMARK    4  A    between atoms: C_9  and  C_10 
REMARK       I    between atoms: C_10  and  N_11 
REMARK    5  A    between atoms: N_11  and  N_12 
REMARK       I    between atoms: N_12  and  C_13 
REMARK       I    between atoms: C_13  and  N_14 
REMARK    6  A    between atoms: N_14  and  C_15 
ROOT
HETATM    1  C   UNL     1      43.723 -12.071   4.899  1.00  0.00     0.238 C 
HETATM    2  N   UNL     1      44.058 -12.288   6.219  1.00  0.00    -0.266 N 
HETATM    3  O   UNL     1      44.268 -11.198   4.223  1.00  0.00    -0.272 OA
HETATM    4  H   UNL     1      43.766 -13.138   6.687  1.00  0.00     0.190 HD
ENDROOT
BRANCH   1   5
HETATM    5  C   UNL     1      42.557 -12.879   4.350  1.00  0.00     0.139 C 
BRANCH   5   6
HETATM    6  C   UNL     1      42.393 -14.314   4.852  1.00  0.00     0.185 C 
HETATM    7  N   UNL     1      43.078 -15.232   3.948  1.00  0.00    -0.363 N 
HETATM    8  C   UNL     1      42.400 -16.127   3.164  1.00  0.00     0.125 C 
HETATM    9  H   UNL     1      44.078 -15.351   4.078  1.00  0.00     0.161 HD
HETATM   10  N   UNL     1      41.100 -16.233   3.144  1.00  0.00    -0.159 NA
HETATM   11  N   UNL     1      40.388 -15.517   4.071  1.00  0.00    -0.244 N 
HETATM   12  C   UNL     1      40.924 -14.687   5.034  1.00  0.00     0.261 C 
HETATM   13  H   UNL     1      39.405 -15.758   4.177  1.00  0.00     0.192 HD
HETATM   14  O   UNL     1      40.226 -14.209   5.927  1.00  0.00    -0.269 OA
BRANCH   8  15
HETATM   15  C   UNL     1      43.208 -17.025   2.234  1.00  0.00     0.118 C 
BRANCH  15  16
HETATM   16  C   UNL     1      43.514 -18.369   2.849  1.00  0.00    -0.051 A 
HETATM   17  C   UNL     1      43.930 -18.458   4.186  1.00  0.00     0.007 A 
HETATM   18  C   UNL     1      44.188 -19.701   4.766  1.00  0.00     0.001 A 
HETATM   19  C   UNL     1      44.028 -20.866   4.021  1.00  0.00     0.000 A 
HETATM   20  C   UNL     1      43.610 -20.789   2.692  1.00  0.00     0.001 A 
HETATM   21  C   UNL     1      43.353 -19.546   2.109  1.00  0.00     0.007 A 
ENDBRANCH  15  16
ENDBRANCH   8  15
ENDBRANCH   5   6
ENDBRANCH   1   5
BRANCH   2  22
HETATM   22  N   UNL     1      45.232 -11.669   6.686  1.00  0.00    -0.249 N 
HETATM   23  C   UNL     1      45.233 -10.727   7.693  1.00  0.00     0.339 C 
HETATM   24  N   UNL     1      44.191 -10.836   8.586  1.00  0.00    -0.308 N 
HETATM   25  O   UNL     1      46.138  -9.898   7.734  1.00  0.00    -0.245 OA
HETATM   26  H   UNL     1      43.742 -11.742   8.621  1.00  0.00     0.170 HD
HETATM   27  H   UNL     1      45.962 -11.549   5.983  1.00  0.00     0.192 HD
BRANCH  24  28
HETATM   28  C   UNL     1      43.868  -9.936   9.625  1.00  0.00     0.038 A 
HETATM   29  C   UNL     1      43.548  -8.591   9.420  1.00  0.00     0.055 A 
HETATM   30  C   UNL     1      43.224  -7.760  10.501  1.00  0.00     0.058 A 
HETATM   31 CL   UNL     1      42.847  -6.106  10.162  1.00  0.00    -0.082 Cl
HETATM   32  C   UNL     1      43.208  -8.275  11.799  1.00  0.00     0.055 A 
HETATM   33 CL   UNL     1      42.810  -7.314  13.178  1.00  0.00    -0.083 Cl
HETATM   34  C   UNL     1      43.518  -9.620  12.011  1.00  0.00     0.028 A 
HETATM   35  C   UNL     1      43.848 -10.444  10.931  1.00  0.00     0.031 A 
ENDBRANCH  24  28
ENDBRANCH   2  22
TORSDOF 6
ENDMDL
MODEL 2
REMARK VINA RESULT:      -9.9      4.587      8.972
REMARK  6 active torsions:
REMARK  status: ('A' for Active; 'I' for Inactive)
REMARK    1  A    between atoms: C_4  and  C_5 
REMARK    2  A    between atoms: C_5  and  C_6 
REMARK    3  A    between atoms: C_8  and  C_9 
REMARK    4  A    between atoms: C_9  and  C_10 
REMARK       I    between atoms: C_10  and  N_11 
REMARK    5  A    between atoms: N_11  and  N_12 
REMARK       I    between atoms: N_12  and  C_13 
REMARK       I    between atoms: C_13  and  N_14 
REMARK    6  A    between atoms: N_14  and  C_15 
ROOT
HETATM    1  C   UNL     1      41.945 -11.681   3.213  1.00  0.00     0.238 C 
HETATM    2  N   UNL     1      41.618 -12.948   2.777  1.00  0.00    -0.266 N 
HETATM    3  O   UNL     1      43.032 -11.163   2.957  1.00  0.00    -0.272 OA
HETATM    4  H   UNL     1      40.656 -13.265   2.805  1.00  0.00     0.190 HD
ENDROOT
BRANCH   1   5
HETATM    5  C   UNL     1      40.945 -10.999   4.135  1.00  0.00     0.139 C 
BRANCH   5   6
HETATM    6  C   UNL     1      41.061 -11.278   5.634  1.00  0.00     0.185 C 
HETATM    7  N   UNL     1      42.470 -11.351   6.012  1.00  0.00    -0.363 N 
HETATM    8  C   UNL     1      43.056 -12.520   6.418  1.00  0.00     0.125 C 
HETATM    9  H   UNL     1      42.949 -10.473   6.185  1.00  0.00     0.161 HD
HETATM   10  N   UNL     1      42.425 -13.660   6.494  1.00  0.00    -0.159 NA
HETATM   11  N   UNL     1      41.068 -13.650   6.303  1.00  0.00    -0.244 N 
HETATM   12  C   UNL     1      40.298 -12.536   6.039  1.00  0.00     0.261 C 
HETATM   13  H   UNL     1      40.566 -14.497   6.559  1.00  0.00     0.192 HD
HETATM   14  O   UNL     1      39.070 -12.591   6.041  1.00  0.00    -0.269 OA
BRANCH   8  15
HETATM   15  C   UNL     1      44.540 -12.497   6.768  1.00  0.00     0.118 C 
BRANCH  15  16
HETATM   16  C   UNL     1      44.920 -11.297   7.599  1.00  0.00    -0.051 A 
HETATM   17  C   UNL     1      44.233 -11.012   8.789  1.00  0.00     0.007 A 
HETATM   18  C   UNL     1      44.601  -9.918   9.575  1.00  0.00     0.001 A 
HETATM   19  C   UNL     1      45.659  -9.102   9.184  1.00  0.00     0.000 A 
HETATM   20  C   UNL     1      46.351  -9.378   8.005  1.00  0.00     0.001 A 
HETATM   21  C   UNL     1      45.985 -10.472   7.217  1.00  0.00     0.007 A 
ENDBRANCH  15  16
ENDBRANCH   8  15
ENDBRANCH   5   6
ENDBRANCH   1   5
BRANCH   2  22
HETATM   22  N   UNL     1      42.454 -13.517   1.799  1.00  0.00    -0.249 N 
HETATM   23  C   UNL     1      43.097 -14.725   1.973  1.00  0.00     0.339 C 
HETATM   24  N   UNL     1      42.466 -15.595   2.834  1.00  0.00    -0.308 N 
HETATM   25  O   UNL     1      44.137 -14.941   1.358  1.00  0.00    -0.245 OA
HETATM   26  H   UNL     1      41.482 -15.418   2.986  1.00  0.00     0.170 HD
HETATM   27  H   UNL     1      42.953 -12.843   1.216  1.00  0.00     0.192 HD
BRANCH  24  28
HETATM   28  C   UNL     1      42.960 -16.833   3.299  1.00  0.00     0.038 A 
HETATM   29  C   UNL     1      43.135 -17.957   2.487  1.00  0.00     0.055 A 
HETATM   30  C   UNL     1      43.644 -19.150   3.018  1.00  0.00     0.058 A 
HETATM   31 CL   UNL     1      43.822 -20.497   1.948  1.00  0.00    -0.082 Cl
HETATM   32  C   UNL     1      43.994 -19.223   4.369  1.00  0.00     0.055 A 
HETATM   33 CL   UNL     1      44.634 -20.655   5.090  1.00  0.00    -0.083 Cl
HETATM   34  C   UNL     1      43.830 -18.100   5.184  1.00  0.00     0.028 A 
HETATM   35  C   UNL     1      43.315 -16.915   4.652  1.00  0.00     0.031 A 
ENDBRANCH  24  28
ENDBRANCH   2  22
TORSDOF 6
ENDMDL
MODEL 3
REMARK VINA RESULT:      -9.9      5.247      8.483
REMARK  6 active torsions:
REMARK  status: ('A' for Active; 'I' for Inactive)
REMARK    1  A    between atoms: C_4  and  C_5 
REMARK    2  A    between atoms: C_5  and  C_6 
REMARK    3  A    between atoms: C_8  and  C_9 
REMARK    4  A    between atoms: C_9  and  C_10 
REMARK       I    between atoms: C_10  and  N_11 
REMARK    5  A    between atoms: N_11  and  N_12 
REMARK       I    between atoms: N_12  and  C_13 
REMARK       I    between atoms: C_13  and  N_14 
REMARK    6  A    between atoms: N_14  and  C_15 
ROOT
HETATM    1  C   UNL     1      41.568 -12.310   5.728  1.00  0.00     0.238 C 
HETATM    2  N   UNL     1      42.541 -13.027   6.391  1.00  0.00    -0.266 N 
HETATM    3  O   UNL     1      40.440 -12.764   5.534  1.00  0.00    -0.272 OA
HETATM    4  H   UNL     1      43.375 -12.563   6.731  1.00  0.00     0.190 HD
ENDROOT
BRANCH   1   5
HETATM    5  C   UNL     1      41.992 -10.975   5.133  1.00  0.00     0.139 C 
BRANCH   5   6
HETATM    6  C   UNL     1      42.388 -10.952   3.656  1.00  0.00     0.185 C 
HETATM    7  N   UNL     1      41.263 -11.402   2.839  1.00  0.00    -0.363 N 
HETATM    8  C   UNL     1      41.289 -12.585   2.150  1.00  0.00     0.125 C 
HETATM    9  H   UNL     1      40.552 -10.714   2.612  1.00  0.00     0.161 HD
HETATM   10  N   UNL     1      42.299 -13.411   2.165  1.00  0.00    -0.159 NA
HETATM   11  N   UNL     1      43.451 -12.997   2.781  1.00  0.00    -0.244 N 
HETATM   12  C   UNL     1      43.646 -11.775   3.391  1.00  0.00     0.261 C 
HETATM   13  H   UNL     1      44.283 -13.558   2.615  1.00  0.00     0.192 HD
HETATM   14  O   UNL     1      44.758 -11.423   3.778  1.00  0.00    -0.269 OA
BRANCH   8  15
HETATM   15  C   UNL     1      40.054 -12.976   1.346  1.00  0.00     0.118 C 
BRANCH  15  16
HETATM   16  C   UNL     1      40.305 -12.970  -0.141  1.00  0.00    -0.051 A 
HETATM   17  C   UNL     1      39.926 -14.067  -0.929  1.00  0.00     0.007 A 
HETATM   18  C   UNL     1      40.132 -14.054  -2.310  1.00  0.00     0.001 A 
HETATM   19  C   UNL     1      40.713 -12.944  -2.917  1.00  0.00     0.000 A 
HETATM   20  C   UNL     1      41.090 -11.846  -2.145  1.00  0.00     0.001 A 
HETATM   21  C   UNL     1      40.886 -11.858  -0.763  1.00  0.00     0.007 A 
ENDBRANCH  15  16
ENDBRANCH   8  15
ENDBRANCH   5   6
ENDBRANCH   1   5
BRANCH   2  22
HETATM   22  N   UNL     1      42.121 -14.178   7.081  1.00  0.00    -0.249 N 
HETATM   23  C   UNL     1      42.189 -15.445   6.539  1.00  0.00     0.339 C 
HETATM   24  N   UNL     1      43.173 -15.614   5.591  1.00  0.00    -0.308 N 
HETATM   25  O   UNL     1      41.410 -16.306   6.936  1.00  0.00    -0.245 OA
HETATM   26  H   UNL     1      43.926 -14.939   5.622  1.00  0.00     0.170 HD
HETATM   27  H   UNL     1      41.349 -14.029   7.733  1.00  0.00     0.192 HD
BRANCH  24  28
HETATM   28  C   UNL     1      43.382 -16.751   4.782  1.00  0.00     0.038 A 
HETATM   29  C   UNL     1      43.821 -17.985   5.271  1.00  0.00     0.055 A 
HETATM   30  C   UNL     1      43.994 -19.076   4.407  1.00  0.00     0.058 A 
HETATM   31 CL   UNL     1      44.548 -20.565   5.090  1.00  0.00    -0.082 Cl
HETATM   32  C   UNL     1      43.717 -18.941   3.044  1.00  0.00     0.055 A 
HETATM   33 CL   UNL     1      43.899 -20.241   1.923  1.00  0.00    -0.083 Cl
HETATM   34  C   UNL     1      43.270 -17.713   2.551  1.00  0.00     0.028 A 
HETATM   35  C   UNL     1      43.107 -16.626   3.414  1.00  0.00     0.031 A 
ENDBRANCH  24  28
ENDBRANCH   2  22
TORSDOF 6
ENDMDL
MODEL 4
REMARK VINA RESULT:      -9.9      5.329      7.589
REMARK  6 active torsions:
REMARK  status: ('A' for Active; 'I' for Inactive)
REMARK    1  A    between atoms: C_4  and  C_5 
REMARK    2  A    between atoms: C_5  and  C_6 
REMARK    3  A    between atoms: C_8  and  C_9 
REMARK    4  A    between atoms: C_9  and  C_10 
REMARK       I    between atoms: C_10  and  N_11 
REMARK    5  A    between atoms: N_11  and  N_12 
REMARK       I    between atoms: N_12  and  C_13 
REMARK       I    between atoms: C_13  and  N_14 
REMARK    6  A    between atoms: N_14  and  C_15 
ROOT
HETATM    1  C   UNL     1      42.605 -12.595   5.193  1.00  0.00     0.238 C 
HETATM    2  N   UNL     1      41.498 -11.991   4.635  1.00  0.00    -0.266 N 
HETATM    3  O   UNL     1      43.708 -12.564   4.649  1.00  0.00    -0.272 OA
HETATM    4  H   UNL     1      40.665 -11.837   5.192  1.00  0.00     0.190 HD
ENDROOT
BRANCH   1   5
HETATM    5  C   UNL     1      42.371 -13.411   6.455  1.00  0.00     0.139 C 
BRANCH   5   6
HETATM    6  C   UNL     1      42.056 -14.898   6.288  1.00  0.00     0.185 C 
HETATM    7  N   UNL     1      42.917 -15.470   5.257  1.00  0.00    -0.363 N 
HETATM    8  C   UNL     1      42.426 -15.905   4.055  1.00  0.00     0.125 C 
HETATM    9  H   UNL     1      43.853 -15.748   5.536  1.00  0.00     0.161 HD
HETATM   10  N   UNL     1      41.166 -15.840   3.720  1.00  0.00    -0.159 NA
HETATM   11  N   UNL     1      40.270 -15.459   4.684  1.00  0.00    -0.244 N 
HETATM   12  C   UNL     1      40.578 -15.136   5.990  1.00  0.00     0.261 C 
HETATM   13  H   UNL     1      39.285 -15.604   4.474  1.00  0.00     0.192 HD
HETATM   14  O   UNL     1      39.698 -14.961   6.830  1.00  0.00    -0.269 OA
BRANCH   8  15
HETATM   15  C   UNL     1      43.412 -16.463   3.034  1.00  0.00     0.118 C 
BRANCH  15  16
HETATM   16  C   UNL     1      43.551 -17.963   3.124  1.00  0.00    -0.051 A 
HETATM   17  C   UNL     1      44.126 -18.555   4.258  1.00  0.00     0.007 A 
HETATM   18  C   UNL     1      44.230 -19.943   4.356  1.00  0.00     0.001 A 
HETATM   19  C   UNL     1      43.757 -20.753   3.327  1.00  0.00     0.000 A 
HETATM   20  C   UNL     1      43.179 -20.176   2.197  1.00  0.00     0.001 A 
HETATM   21  C   UNL     1      43.074 -18.786   2.096  1.00  0.00     0.007 A 
ENDBRANCH  15  16
ENDBRANCH   8  15
ENDBRANCH   5   6
ENDBRANCH   1   5
BRANCH   2  22
HETATM   22  N   UNL     1      41.728 -11.105   3.568  1.00  0.00    -0.249 N 
HETATM   23  C   UNL     1      41.406 -11.405   2.261  1.00  0.00     0.339 C 
HETATM   24  N   UNL     1      40.367 -12.297   2.114  1.00  0.00    -0.308 N 
HETATM   25  O   UNL     1      42.029 -10.864   1.353  1.00  0.00    -0.245 OA
HETATM   26  H   UNL     1      39.753 -12.383   2.913  1.00  0.00     0.170 HD
HETATM   27  H   UNL     1      42.542 -10.499   3.682  1.00  0.00     0.192 HD
BRANCH  24  28
HETATM   28  C   UNL     1      39.917 -12.882   0.911  1.00  0.00     0.038 A 
HETATM   29  C   UNL     1      39.215 -12.186  -0.079  1.00  0.00     0.055 A 
HETATM   30  C   UNL     1      38.811 -12.831  -1.256  1.00  0.00     0.058 A 
HETATM   31 CL   UNL     1      37.941 -11.902  -2.427  1.00  0.00    -0.082 Cl
HETATM   32  C   UNL     1      39.118 -14.179  -1.456  1.00  0.00     0.055 A 
HETATM   33 CL   UNL     1      38.661 -15.037  -2.883  1.00  0.00    -0.083 Cl
HETATM   34  C   UNL     1      39.826 -14.878  -0.476  1.00  0.00     0.028 A 
HETATM   35  C   UNL     1      40.220 -14.233   0.700  1.00  0.00     0.031 A 
ENDBRANCH  24  28
ENDBRANCH   2  22
TORSDOF 6
ENDMDL
MODEL 5
REMARK VINA RESULT:      -9.9      4.523     10.700
REMARK  6 active torsions:
REMARK  status: ('A' for Active; 'I' for Inactive)
REMARK    1  A    between atoms: C_4  and  C_5 
REMARK    2  A    between atoms: C_5  and  C_6 
REMARK    3  A    between atoms: C_8  and  C_9 
REMARK    4  A    between atoms: C_9  and  C_10 
REMARK       I    between atoms: C_10  and  N_11 
REMARK    5  A    between atoms: N_11  and  N_12 
REMARK       I    between atoms: N_12  and  C_13 
REMARK       I    between atoms: C_13  and  N_14 
REMARK    6  A    between atoms: N_14  and  C_15 
ROOT
HETATM    1  C   UNL     1      43.508 -12.082   6.883  1.00  0.00     0.238 C 
HETATM    2  N   UNL     1      43.641 -13.437   7.099  1.00  0.00    -0.266 N 
HETATM    3  O   UNL     1      42.457 -11.585   6.478  1.00  0.00    -0.272 OA
HETATM    4  H   UNL     1      44.424 -13.795   7.633  1.00  0.00     0.190 HD
ENDROOT
BRANCH   1   5
HETATM    5  C   UNL     1      44.764 -11.239   7.049  1.00  0.00     0.139 C 
BRANCH   5   6
HETATM    6  C   UNL     1      45.014 -10.606   8.418  1.00  0.00     0.185 C 
HETATM    7  N   UNL     1      43.761 -10.538   9.165  1.00  0.00    -0.363 N 
HETATM    8  C   UNL     1      43.150  -9.348   9.458  1.00  0.00     0.125 C 
HETATM    9  H   UNL     1      43.470 -11.377   9.658  1.00  0.00     0.161 HD
HETATM   10  N   UNL     1      43.616  -8.185   9.095  1.00  0.00    -0.159 NA
HETATM   11  N   UNL     1      44.861  -8.147   8.525  1.00  0.00    -0.244 N 
HETATM   12  C   UNL     1      45.678  -9.236   8.298  1.00  0.00     0.261 C 
HETATM   13  H   UNL     1      45.292  -7.231   8.431  1.00  0.00     0.192 HD
HETATM   14  O   UNL     1      46.843  -9.097   7.930  1.00  0.00    -0.269 OA
BRANCH   8  15
HETATM   15  C   UNL     1      41.830  -9.387  10.222  1.00  0.00     0.118 C 
BRANCH  15  16
HETATM   16  C   UNL     1      42.001  -9.078  11.689  1.00  0.00    -0.051 A 
HETATM   17  C   UNL     1      43.007  -8.199  12.116  1.00  0.00     0.007 A 
HETATM   18  C   UNL     1      43.149  -7.889  13.470  1.00  0.00     0.001 A 
HETATM   19  C   UNL     1      42.287  -8.451  14.408  1.00  0.00     0.000 A 
HETATM   20  C   UNL     1      41.282  -9.323  13.994  1.00  0.00     0.001 A 
HETATM   21  C   UNL     1      41.137  -9.635  12.640  1.00  0.00     0.007 A 
ENDBRANCH  15  16
ENDBRANCH   8  15
ENDBRANCH   5   6
ENDBRANCH   1   5
BRANCH   2  22
HETATM   22  N   UNL     1      42.458 -14.198   7.107  1.00  0.00    -0.249 N 
HETATM   23  C   UNL     1      42.272 -15.306   6.308  1.00  0.00     0.339 C 
HETATM   24  N   UNL     1      43.430 -15.964   5.958  1.00  0.00    -0.308 N 
HETATM   25  O   UNL     1      41.132 -15.630   5.992  1.00  0.00    -0.245 OA
HETATM   26  H   UNL     1      44.227 -15.788   6.556  1.00  0.00     0.170 HD
HETATM   27  H   UNL     1      41.609 -13.667   7.312  1.00  0.00     0.192 HD
BRANCH  24  28
HETATM   28  C   UNL     1      43.553 -17.037   5.049  1.00  0.00     0.038 A 
HETATM   29  C   UNL     1      43.865 -18.346   5.426  1.00  0.00     0.055 A 
HETATM   30  C   UNL     1      43.956 -19.364   4.467  1.00  0.00     0.058 A 
HETATM   31 CL   UNL     1      44.355 -20.955   5.016  1.00  0.00    -0.082 Cl
HETATM   32  C   UNL     1      43.724 -19.079   3.119  1.00  0.00     0.055 A 
HETATM   33 CL   UNL     1      43.811 -20.283   1.884  1.00  0.00    -0.083 Cl
HETATM   34  C   UNL     1      43.403 -17.775   2.737  1.00  0.00     0.028 A 
HETATM   35  C   UNL     1      43.321 -16.761   3.695  1.00  0.00     0.031 A 
ENDBRANCH  24  28
ENDBRANCH   2  22
TORSDOF 6
ENDMDL
MODEL 6
REMARK VINA RESULT:      -9.5      1.544      2.310
REMARK  6 active torsions:
REMARK  status: ('A' for Active; 'I' for Inactive)
REMARK    1  A    between atoms: C_4  and  C_5 
REMARK    2  A    between atoms: C_5  and  C_6 
REMARK    3  A    between atoms: C_8  and  C_9 
REMARK    4  A    between atoms: C_9  and  C_10 
REMARK       I    between atoms: C_10  and  N_11 
REMARK    5  A    between atoms: N_11  and  N_12 
REMARK       I    between atoms: N_12  and  C_13 
REMARK       I    between atoms: C_13  and  N_14 
REMARK    6  A    between atoms: N_14  and  C_15 
ROOT
HETATM    1  C   UNL     1      42.258 -12.712   5.972  1.00  0.00     0.238 C 
HETATM    2  N   UNL     1      42.625 -11.640   6.758  1.00  0.00    -0.266 N 
HETATM    3  O   UNL     1      43.009 -13.669   5.782  1.00  0.00    -0.272 OA
HETATM    4  H   UNL     1      41.927 -10.979   7.080  1.00  0.00     0.190 HD
ENDROOT
BRANCH   1   5
HETATM    5  C   UNL     1      40.926 -12.599   5.246  1.00  0.00     0.139 C 
BRANCH   5   6
HETATM    6  C   UNL     1      40.944 -12.674   3.719  1.00  0.00     0.185 C 
HETATM    7  N   UNL     1      40.810 -14.065   3.294  1.00  0.00    -0.363 N 
HETATM    8  C   UNL     1      41.830 -14.744   2.684  1.00  0.00     0.125 C 
HETATM    9  H   UNL     1      39.870 -14.449   3.256  1.00  0.00     0.161 HD
HETATM   10  N   UNL     1      43.001 -14.224   2.438  1.00  0.00    -0.159 NA
HETATM   11  N   UNL     1      43.163 -12.882   2.665  1.00  0.00    -0.244 N 
HETATM   12  C   UNL     1      42.192 -12.020   3.132  1.00  0.00     0.261 C 
HETATM   13  H   UNL     1      44.004 -12.454   2.286  1.00  0.00     0.192 HD
HETATM   14  O   UNL     1      42.373 -10.804   3.155  1.00  0.00    -0.269 OA
BRANCH   8  15
HETATM   15  C   UNL     1      41.597 -16.201   2.301  1.00  0.00     0.118 C 
BRANCH  15  16
HETATM   16  C   UNL     1      42.532 -17.144   3.018  1.00  0.00    -0.051 A 
HETATM   17  C   UNL     1      43.133 -18.208   2.329  1.00  0.00     0.007 A 
HETATM   18  C   UNL     1      44.019 -19.065   2.983  1.00  0.00     0.001 A 
HETATM   19  C   UNL     1      44.318 -18.866   4.328  1.00  0.00     0.000 A 
HETATM   20  C   UNL     1      43.730 -17.809   5.022  1.00  0.00     0.001 A 
HETATM   21  C   UNL     1      42.842 -16.950   4.370  1.00  0.00     0.007 A 
ENDBRANCH  15  16
ENDBRANCH   8  15
ENDBRANCH   5   6
ENDBRANCH   1   5
BRANCH   2  22
HETATM   22  N   UNL     1      43.771 -11.802   7.558  1.00  0.00    -0.249 N 
HETATM   23  C   UNL     1      44.047 -11.000   8.645  1.00  0.00     0.339 C 
HETATM   24  N   UNL     1      42.940 -10.449   9.251  1.00  0.00    -0.308 N 
HETATM   25  O   UNL     1      45.214 -10.851   8.996  1.00  0.00    -0.245 OA
HETATM   26  H   UNL     1      42.065 -10.923   9.068  1.00  0.00     0.170 HD
HETATM   27  H   UNL     1      44.592 -12.156   7.064  1.00  0.00     0.192 HD
BRANCH  24  28
HETATM   28  C   UNL     1      42.930  -9.492  10.288  1.00  0.00     0.038 A 
HETATM   29  C   UNL     1      42.765  -8.119  10.080  1.00  0.00     0.055 A 
HETATM   30  C   UNL     1      42.752  -7.228  11.162  1.00  0.00     0.058 A 
HETATM   31 CL   UNL     1      42.551  -5.545  10.819  1.00  0.00    -0.082 Cl
HETATM   32  C   UNL     1      42.894  -7.709  12.466  1.00  0.00     0.055 A 
HETATM   33 CL   UNL     1      42.881  -6.674  13.848  1.00  0.00    -0.083 Cl
HETATM   34  C   UNL     1      43.051  -9.080  12.682  1.00  0.00     0.028 A 
HETATM   35  C   UNL     1      43.071  -9.964  11.599  1.00  0.00     0.031 A 
ENDBRANCH  24  28
ENDBRANCH   2  22
TORSDOF 6
ENDMDL
MODEL 7
REMARK VINA RESULT:      -9.3      5.906      8.592
REMARK  6 active torsions:
REMARK  status: ('A' for Active; 'I' for Inactive)
REMARK    1  A    between atoms: C_4  and  C_5 
REMARK    2  A    between atoms: C_5  and  C_6 
REMARK    3  A    between atoms: C_8  and  C_9 
REMARK    4  A    between atoms: C_9  and  C_10 
REMARK       I    between atoms: C_10  and  N_11 
REMARK    5  A    between atoms: N_11  and  N_12 
REMARK       I    between atoms: N_12  and  C_13 
REMARK       I    between atoms: C_13  and  N_14 
REMARK    6  A    between atoms: N_14  and  C_15 
ROOT
HETATM    1  C   UNL     1      41.743 -14.198   2.913  1.00  0.00     0.238 C 
HETATM    2  N   UNL     1      40.467 -14.546   2.521  1.00  0.00    -0.266 N 
HETATM    3  O   UNL     1      42.743 -14.680   2.381  1.00  0.00    -0.272 OA
HETATM    4  H   UNL     1      39.674 -13.986   2.810  1.00  0.00     0.190 HD
ENDROOT
BRANCH   1   5
HETATM    5  C   UNL     1      41.857 -13.284   4.123  1.00  0.00     0.139 C 
BRANCH   5   6
HETATM    6  C   UNL     1      42.107 -13.937   5.483  1.00  0.00     0.185 C 
HETATM    7  N   UNL     1      43.197 -14.902   5.371  1.00  0.00    -0.363 N 
HETATM    8  C   UNL     1      42.994 -16.250   5.498  1.00  0.00     0.125 C 
HETATM    9  H   UNL     1      44.145 -14.540   5.423  1.00  0.00     0.161 HD
HETATM   10  N   UNL     1      41.826 -16.790   5.716  1.00  0.00    -0.159 NA
HETATM   11  N   UNL     1      40.777 -15.950   5.985  1.00  0.00    -0.244 N 
HETATM   12  C   UNL     1      40.841 -14.573   6.050  1.00  0.00     0.261 C 
HETATM   13  H   UNL     1      39.930 -16.381   6.347  1.00  0.00     0.192 HD
HETATM   14  O   UNL     1      39.891 -13.906   6.454  1.00  0.00    -0.269 OA
BRANCH   8  15
HETATM   15  C   UNL     1      44.194 -17.177   5.339  1.00  0.00     0.118 C 
BRANCH  15  16
HETATM   16  C   UNL     1      43.929 -18.308   4.376  1.00  0.00    -0.051 A 
HETATM   17  C   UNL     1      43.494 -18.040   3.070  1.00  0.00     0.007 A 
HETATM   18  C   UNL     1      43.275 -19.082   2.168  1.00  0.00     0.001 A 
HETATM   19  C   UNL     1      43.493 -20.400   2.559  1.00  0.00     0.000 A 
HETATM   20  C   UNL     1      43.930 -20.679   3.854  1.00  0.00     0.001 A 
HETATM   21  C   UNL     1      44.149 -19.637   4.759  1.00  0.00     0.007 A 
ENDBRANCH  15  16
ENDBRANCH   8  15
ENDBRANCH   5   6
ENDBRANCH   1   5
BRANCH   2  22
HETATM   22  N   UNL     1      40.346 -15.254   1.312  1.00  0.00    -0.249 N 
HETATM   23  C   UNL     1      39.953 -14.661   0.131  1.00  0.00     0.339 C 
HETATM   24  N   UNL     1      40.240 -13.318   0.037  1.00  0.00    -0.308 N 
HETATM   25  O   UNL     1      39.411 -15.347  -0.731  1.00  0.00    -0.245 OA
HETATM   26  H   UNL     1      40.969 -12.986   0.655  1.00  0.00     0.170 HD
HETATM   27  H   UNL     1      40.073 -16.233   1.414  1.00  0.00     0.192 HD
BRANCH  24  28
HETATM   28  C   UNL     1      39.838 -12.435  -0.988  1.00  0.00     0.038 A 
HETATM   29  C   UNL     1      38.506 -12.225  -1.358  1.00  0.00     0.055 A 
HETATM   30  C   UNL     1      38.180 -11.321  -2.378  1.00  0.00     0.058 A 
HETATM   31 CL   UNL     1      36.510 -11.126  -2.780  1.00  0.00    -0.082 Cl
HETATM   32  C   UNL     1      39.190 -10.609  -3.031  1.00  0.00     0.055 A 
HETATM   33 CL   UNL     1      38.865  -9.474  -4.291  1.00  0.00    -0.083 Cl
HETATM   34  C   UNL     1      40.522 -10.808  -2.661  1.00  0.00     0.028 A 
HETATM   35  C   UNL     1      40.843 -11.716  -1.648  1.00  0.00     0.031 A 
ENDBRANCH  24  28
ENDBRANCH   2  22
TORSDOF 6
ENDMDL
MODEL 8
REMARK VINA RESULT:      -9.2      2.792      3.871
REMARK  6 active torsions:
REMARK  status: ('A' for Active; 'I' for Inactive)
REMARK    1  A    between atoms: C_4  and  C_5 
REMARK    2  A    between atoms: C_5  and  C_6 
REMARK    3  A    between atoms: C_8  and  C_9 
REMARK    4  A    between atoms: C_9  and  C_10 
REMARK       I    between atoms: C_10  and  N_11 
REMARK    5  A    between atoms: N_11  and  N_12 
REMARK       I    between atoms: N_12  and  C_13 
REMARK       I    between atoms: C_13  and  N_14 
REMARK    6  A    between atoms: N_14  and  C_15 
ROOT
HETATM    1  C   UNL     1      40.882 -11.642   5.944  1.00  0.00     0.238 C 
HETATM    2  N   UNL     1      40.742 -10.762   6.997  1.00  0.00    -0.266 N 
HETATM    3  O   UNL     1      40.042 -12.508   5.701  1.00  0.00    -0.272 OA
HETATM    4  H   UNL     1      41.319  -9.930   7.047  1.00  0.00     0.190 HD
ENDROOT
BRANCH   1   5
HETATM    5  C   UNL     1      42.189 -11.574   5.168  1.00  0.00     0.139 C 
BRANCH   5   6
HETATM    6  C   UNL     1      43.181 -12.723   5.351  1.00  0.00     0.185 C 
HETATM    7  N   UNL     1      42.556 -13.980   4.946  1.00  0.00    -0.363 N 
HETATM    8  C   UNL     1      42.256 -14.968   5.845  1.00  0.00     0.125 C 
HETATM    9  H   UNL     1      42.556 -14.199   3.954  1.00  0.00     0.161 HD
HETATM   10  N   UNL     1      42.486 -14.877   7.126  1.00  0.00    -0.159 NA
HETATM   11  N   UNL     1      43.206 -13.799   7.569  1.00  0.00    -0.244 N 
HETATM   12  C   UNL     1      43.718 -12.790   6.778  1.00  0.00     0.261 C 
HETATM   13  H   UNL     1      43.548 -13.841   8.526  1.00  0.00     0.192 HD
HETATM   14  O   UNL     1      44.487 -11.947   7.234  1.00  0.00    -0.269 OA
BRANCH   8  15
HETATM   15  C   UNL     1      41.581 -16.233   5.325  1.00  0.00     0.118 C 
BRANCH  15  16
HETATM   16  C   UNL     1      42.498 -17.065   4.463  1.00  0.00    -0.051 A 
HETATM   17  C   UNL     1      43.535 -17.810   5.044  1.00  0.00     0.007 A 
HETATM   18  C   UNL     1      44.368 -18.603   4.254  1.00  0.00     0.001 A 
HETATM   19  C   UNL     1      44.170 -18.665   2.877  1.00  0.00     0.000 A 
HETATM   20  C   UNL     1      43.140 -17.933   2.288  1.00  0.00     0.001 A 
HETATM   21  C   UNL     1      42.306 -17.138   3.078  1.00  0.00     0.007 A 
ENDBRANCH  15  16
ENDBRANCH   8  15
ENDBRANCH   5   6
ENDBRANCH   1   5
BRANCH   2  22
HETATM   22  N   UNL     1      39.480 -10.706   7.613  1.00  0.00    -0.249 N 
HETATM   23  C   UNL     1      39.309 -10.405   8.948  1.00  0.00     0.339 C 
HETATM   24  N   UNL     1      40.302  -9.621   9.493  1.00  0.00    -0.308 N 
HETATM   25  O   UNL     1      38.314 -10.824   9.532  1.00  0.00    -0.245 OA
HETATM   26  H   UNL     1      40.849  -9.090   8.829  1.00  0.00     0.170 HD
HETATM   27  H   UNL     1      38.784 -11.344   7.223  1.00  0.00     0.192 HD
BRANCH  24  28
HETATM   28  C   UNL     1      40.456  -9.275  10.853  1.00  0.00     0.038 A 
HETATM   29  C   UNL     1      39.637  -8.360  11.521  1.00  0.00     0.055 A 
HETATM   30  C   UNL     1      39.843  -8.075  12.879  1.00  0.00     0.058 A 
HETATM   31 CL   UNL     1      38.791  -6.926  13.630  1.00  0.00    -0.082 Cl
HETATM   32  C   UNL     1      40.867  -8.715  13.581  1.00  0.00     0.055 A 
HETATM   33 CL   UNL     1      41.174  -8.422  15.254  1.00  0.00    -0.083 Cl
HETATM   34  C   UNL     1      41.683  -9.637  12.921  1.00  0.00     0.028 A 
HETATM   35  C   UNL     1      41.480  -9.912  11.566  1.00  0.00     0.031 A 
ENDBRANCH  24  28
ENDBRANCH   2  22
TORSDOF 6
ENDMDL
MODEL 9
REMARK VINA RESULT:      -9.1      4.419      8.877
REMARK  6 active torsions:
REMARK  status: ('A' for Active; 'I' for Inactive)
REMARK    1  A    between atoms: C_4  and  C_5 
REMARK    2  A    between atoms: C_5  and  C_6 
REMARK    3  A    between atoms: C_8  and  C_9 
REMARK    4  A    between atoms: C_9  and  C_10 
REMARK       I    between atoms: C_10  and  N_11 
REMARK    5  A    between atoms: N_11  and  N_12 
REMARK       I    between atoms: N_12  and  C_13 
REMARK       I    between atoms: C_13  and  N_14 
REMARK    6  A    between atoms: N_14  and  C_15 
ROOT
HETATM    1  C   UNL     1      39.267  -9.709   8.347  1.00  0.00     0.238 C 
HETATM    2  N   UNL     1      39.786 -10.835   7.742  1.00  0.00    -0.266 N 
HETATM    3  O   UNL     1      39.068  -8.667   7.723  1.00  0.00    -0.272 OA
HETATM    4  H   UNL     1      39.736 -11.734   8.207  1.00  0.00     0.190 HD
ENDROOT
BRANCH   1   5
HETATM    5  C   UNL     1      39.067  -9.777   9.853  1.00  0.00     0.139 C 
BRANCH   5   6
HETATM    6  C   UNL     1      40.064  -9.023  10.734  1.00  0.00     0.185 C 
HETATM    7  N   UNL     1      41.149  -8.498   9.909  1.00  0.00    -0.363 N 
HETATM    8  C   UNL     1      42.430  -8.972  10.001  1.00  0.00     0.125 C 
HETATM    9  H   UNL     1      40.982  -7.620   9.427  1.00  0.00     0.161 HD
HETATM   10  N   UNL     1      42.793  -9.927  10.813  1.00  0.00    -0.159 NA
HETATM   11  N   UNL     1      41.874 -10.370  11.727  1.00  0.00    -0.244 N 
HETATM   12  C   UNL     1      40.587  -9.893  11.873  1.00  0.00     0.261 C 
HETATM   13  H   UNL     1      42.224 -10.963  12.476  1.00  0.00     0.192 HD
HETATM   14  O   UNL     1      39.883 -10.233  12.822  1.00  0.00    -0.269 OA
BRANCH   8  15
HETATM   15  C   UNL     1      43.486  -8.375   9.077  1.00  0.00     0.118 C 
BRANCH  15  16
HETATM   16  C   UNL     1      44.176  -9.420   8.235  1.00  0.00    -0.051 A 
HETATM   17  C   UNL     1      45.559  -9.625   8.352  1.00  0.00     0.007 A 
HETATM   18  C   UNL     1      46.196 -10.610   7.595  1.00  0.00     0.001 A 
HETATM   19  C   UNL     1      45.458 -11.402   6.719  1.00  0.00     0.000 A 
HETATM   20  C   UNL     1      44.083 -11.210   6.598  1.00  0.00     0.001 A 
HETATM   21  C   UNL     1      43.443 -10.225   7.354  1.00  0.00     0.007 A 
ENDBRANCH  15  16
ENDBRANCH   8  15
ENDBRANCH   5   6
ENDBRANCH   1   5
BRANCH   2  22
HETATM   22  N   UNL     1      39.821 -10.841   6.336  1.00  0.00    -0.249 N 
HETATM   23  C   UNL     1      40.481 -11.807   5.606  1.00  0.00     0.339 C 
HETATM   24  N   UNL     1      40.595 -13.027   6.236  1.00  0.00    -0.308 N 
HETATM   25  O   UNL     1      40.890 -11.532   4.482  1.00  0.00    -0.245 OA
HETATM   26  H   UNL     1      39.933 -13.194   6.982  1.00  0.00     0.170 HD
HETATM   27  H   UNL     1      39.795  -9.917   5.903  1.00  0.00     0.192 HD
BRANCH  24  28
HETATM   28  C   UNL     1      41.331 -14.145   5.787  1.00  0.00     0.038 A 
HETATM   29  C   UNL     1      42.548 -14.551   6.342  1.00  0.00     0.055 A 
HETATM   30  C   UNL     1      43.215 -15.682   5.853  1.00  0.00     0.058 A 
HETATM   31 CL   UNL     1      44.720 -16.112   6.589  1.00  0.00    -0.082 Cl
HETATM   32  C   UNL     1      42.660 -16.425   4.808  1.00  0.00     0.055 A 
HETATM   33 CL   UNL     1      43.420 -17.833   4.159  1.00  0.00    -0.083 Cl
HETATM   34  C   UNL     1      41.440 -16.031   4.255  1.00  0.00     0.028 A 
HETATM   35  C   UNL     1      40.782 -14.897   4.741  1.00  0.00     0.031 A 
ENDBRANCH  24  28
ENDBRANCH   2  22
TORSDOF 6
ENDMDL
MODEL 10
REMARK VINA RESULT:      -9.0      4.294     10.105
REMARK  6 active torsions:
REMARK  status: ('A' for Active; 'I' for Inactive)
REMARK    1  A    between atoms: C_4  and  C_5 
REMARK    2  A    between atoms: C_5  and  C_6 
REMARK    3  A    between atoms: C_8  and  C_9 
REMARK    4  A    between atoms: C_9  and  C_10 
REMARK       I    between atoms: C_10  and  N_11 
REMARK    5  A    between atoms: N_11  and  N_12 
REMARK       I    between atoms: N_12  and  C_13 
REMARK       I    between atoms: C_13  and  N_14 
REMARK    6  A    between atoms: N_14  and  C_15 
ROOT
HETATM    1  C   UNL     1      42.339 -11.130   4.932  1.00  0.00     0.238 C 
HETATM    2  N   UNL     1      43.274 -11.670   4.075  1.00  0.00    -0.266 N 
HETATM    3  O   UNL     1      41.146 -11.060   4.636  1.00  0.00    -0.272 OA
HETATM    4  H   UNL     1      44.196 -11.919   4.415  1.00  0.00     0.190 HD
ENDROOT
BRANCH   1   5
HETATM    5  C   UNL     1      42.870 -10.507   6.214  1.00  0.00     0.139 C 
BRANCH   5   6
HETATM    6  C   UNL     1      43.870 -11.321   7.035  1.00  0.00     0.185 C 
HETATM    7  N   UNL     1      43.574 -11.173   8.458  1.00  0.00    -0.363 N 
HETATM    8  C   UNL     1      44.412 -10.510   9.313  1.00  0.00     0.125 C 
HETATM    9  H   UNL     1      42.845 -11.766   8.843  1.00  0.00     0.161 HD
HETATM   10  N   UNL     1      45.531  -9.950   8.942  1.00  0.00    -0.159 NA
HETATM   11  N   UNL     1      45.959 -10.170   7.659  1.00  0.00    -0.244 N 
HETATM   12  C   UNL     1      45.313 -10.940   6.714  1.00  0.00     0.261 C 
HETATM   13  H   UNL     1      46.916  -9.900   7.445  1.00  0.00     0.192 HD
HETATM   14  O   UNL     1      45.845 -11.217   5.641  1.00  0.00    -0.269 OA
BRANCH   8  15
HETATM   15  C   UNL     1      43.999 -10.389  10.775  1.00  0.00     0.118 C 
BRANCH  15  16
HETATM   16  C   UNL     1      43.452  -9.024  11.111  1.00  0.00    -0.051 A 
HETATM   17  C   UNL     1      43.047  -8.151  10.091  1.00  0.00     0.007 A 
HETATM   18  C   UNL     1      42.514  -6.899  10.399  1.00  0.00     0.001 A 
HETATM   19  C   UNL     1      42.376  -6.508  11.728  1.00  0.00     0.000 A 
HETATM   20  C   UNL     1      42.771  -7.368  12.751  1.00  0.00     0.001 A 
HETATM   21  C   UNL     1      43.306  -8.622  12.445  1.00  0.00     0.007 A 
ENDBRANCH  15  16
ENDBRANCH   8  15
ENDBRANCH   5   6
ENDBRANCH   1   5
BRANCH   2  22
HETATM   22  N   UNL     1      42.783 -12.390   2.971  1.00  0.00    -0.249 N 
HETATM   23  C   UNL     1      42.917 -13.757   2.846  1.00  0.00     0.339 C 
HETATM   24  N   UNL     1      43.010 -14.437   4.040  1.00  0.00    -0.308 N 
HETATM   25  O   UNL     1      42.925 -14.256   1.725  1.00  0.00    -0.245 OA
HETATM   26  H   UNL     1      42.653 -13.946   4.848  1.00  0.00     0.170 HD
HETATM   27  H   UNL     1      42.784 -11.875   2.089  1.00  0.00     0.192 HD
BRANCH  24  28
HETATM   28  C   UNL     1      43.286 -15.811   4.212  1.00  0.00     0.038 A 
HETATM   29  C   UNL     1      43.157 -16.765   3.198  1.00  0.00     0.055 A 
HETATM   30  C   UNL     1      43.463 -18.111   3.439  1.00  0.00     0.058 A 
HETATM   31 CL   UNL     1      43.268 -19.229   2.134  1.00  0.00    -0.082 Cl
HETATM   32  C   UNL     1      43.913 -18.511   4.700  1.00  0.00     0.055 A 
HETATM   33 CL   UNL     1      44.316 -20.149   5.069  1.00  0.00    -0.083 Cl
HETATM   34  C   UNL     1      44.053 -17.562   5.715  1.00  0.00     0.028 A 
HETATM   35  C   UNL     1      43.739 -16.222   5.472  1.00  0.00     0.031 A 
ENDBRANCH  24  28
ENDBRANCH   2  22
TORSDOF 6
ENDMDL
