MODEL 1
REMARK VINA RESULT:      -9.1      0.000      0.000
REMARK  10 active torsions:
REMARK  status: ('A' for Active; 'I' for Inactive)
REMARK    1  A    between atoms: N_2  and  C_4 
REMARK    2  A    between atoms: C_4  and  C_5 
REMARK    3  A    between atoms: N_6  and  C_7 
REMARK    4  A    between atoms: C_11  and  N_12 
REMARK    5  A    between atoms: C_15  and  C_16 
REMARK       I    between atoms: C_16  and  N_17 
REMARK    6  A    between atoms: N_17  and  N_18 
REMARK    7  A    between atoms: C_19  and  C_20 
REMARK    8  A    between atoms: C_21  and  O_22 
REMARK    9  A    between atoms: O_22  and  C_23 
REMARK   10  A    between atoms: C_23  and  C_24 
ROOT
HETATM    1  C   UNL     1      43.740 -11.641   6.518  1.00  0.00     0.293 C 
HETATM    2  N   UNL     1      42.850 -12.699   6.566  1.00  0.00    -0.242 N 
HETATM    3  O   UNL     1      44.271 -11.209   5.496  1.00  0.00    -0.264 OA
HETATM    4  H   UNL     1      42.368 -12.945   7.428  1.00  0.00     0.192 HD
ENDROOT
BRANCH   1   5
HETATM    5  C   UNL     1      43.973 -10.980   7.791  1.00  0.00     0.170 A 
HETATM    6  C   UNL     1      43.150 -10.041   8.398  1.00  0.00     0.096 A 
HETATM    7  N   UNL     1      43.772  -9.771   9.613  1.00  0.00    -0.215 N 
HETATM    8  N   UNL     1      44.945 -10.456   9.664  1.00  0.00     0.012 NA
HETATM    9  N   UNL     1      45.056 -11.215   8.586  1.00  0.00    -0.152 NA
BRANCH   6  10
HETATM   10  C   UNL     1      41.927  -9.373   7.890  1.00  0.00     0.295 C 
BRANCH  10  11
HETATM   11  N   UNL     1      40.638 -10.108   8.176  1.00  0.00    -0.073 N 
HETATM   12  C   UNL     1      39.864 -10.475   6.939  1.00  0.00     0.269 C 
HETATM   13  H   UNL     1      40.890 -10.974   8.673  1.00  0.00     0.279 HD
HETATM   14  C   UNL     1      39.772  -9.327   9.129  1.00  0.00     0.269 C 
ENDBRANCH  10  11
ENDBRANCH   6  10
BRANCH   7  15
HETATM   15  C   UNL     1      43.304  -8.982  10.690  1.00  0.00     0.225 A 
HETATM   16  N   UNL     1      43.242  -7.653  10.565  1.00  0.00    -0.081 NA
HETATM   17  O   UNL     1      42.728  -7.231  11.796  1.00  0.00    -0.103 OA
HETATM   18  N   UNL     1      42.461  -8.310  12.626  1.00  0.00    -0.083 NA
HETATM   19  C   UNL     1      42.815  -9.397  11.941  1.00  0.00     0.201 A 
BRANCH  19  20
HETATM   20  N   UNL     1      42.717 -10.653  12.400  1.00  0.00    -0.379 N 
HETATM   21  H   UNL     1      43.200 -11.413  11.927  1.00  0.00     0.158 HD
HETATM   22  H   UNL     1      42.307 -10.901  13.298  1.00  0.00     0.158 HD
ENDBRANCH  19  20
ENDBRANCH   7  15
ENDBRANCH   1   5
BRANCH   2  23
HETATM   23  N   UNL     1      42.536 -13.311   5.398  1.00  0.00    -0.183 NA
HETATM   24  C   UNL     1      41.292 -13.548   5.150  1.00  0.00     0.153 C 
BRANCH  24  25
HETATM   25  C   UNL     1      40.896 -14.195   3.888  1.00  0.00     0.016 A 
HETATM   26  C   UNL     1      41.056 -15.559   3.584  1.00  0.00     0.080 A 
HETATM   27  C   UNL     1      40.656 -16.014   2.320  1.00  0.00     0.037 A 
HETATM   28  C   UNL     1      40.086 -15.146   1.384  1.00  0.00     0.003 A 
HETATM   29  C   UNL     1      39.934 -13.798   1.691  1.00  0.00     0.001 A 
HETATM   30  C   UNL     1      40.344 -13.321   2.936  1.00  0.00     0.016 A 
BRANCH  26  31
HETATM   31  O   UNL     1      41.714 -16.514   4.314  1.00  0.00    -0.346 OA
BRANCH  31  32
HETATM   32  C   UNL     1      43.098 -16.699   4.026  1.00  0.00     0.219 C 
BRANCH  32  33
HETATM   33  C   UNL     1      43.406 -18.172   3.931  1.00  0.00     0.026 A 
HETATM   34  C   UNL     1      43.676 -18.972   5.048  1.00  0.00     0.045 A 
HETATM   35 CL   UNL     1      43.675 -18.334   6.653  1.00  0.00    -0.084 Cl
HETATM   36  C   UNL     1      43.979 -20.332   4.895  1.00  0.00     0.024 A 
HETATM   37  C   UNL     1      43.997 -20.915   3.627  1.00  0.00     0.005 A 
HETATM   38  C   UNL     1      43.715 -20.137   2.511  1.00  0.00     0.043 A 
HETATM   39  C   UNL     1      43.427 -18.782   2.671  1.00  0.00     0.126 A 
HETATM   40  F   UNL     1      43.202 -18.051   1.568  1.00  0.00    -0.205 F 
ENDBRANCH  32  33
ENDBRANCH  31  32
ENDBRANCH  26  31
ENDBRANCH  24  25
ENDBRANCH   2  23
TORSDOF 10
ENDMDL
MODEL 2
REMARK VINA RESULT:      -8.8      5.086      8.090
REMARK  10 active torsions:
REMARK  status: ('A' for Active; 'I' for Inactive)
REMARK    1  A    between atoms: N_2  and  C_4 
REMARK    2  A    between atoms: C_4  and  C_5 
REMARK    3  A    between atoms: N_6  and  C_7 
REMARK    4  A    between atoms: C_11  and  N_12 
REMARK    5  A    between atoms: C_15  and  C_16 
REMARK       I    between atoms: C_16  and  N_17 
REMARK    6  A    between atoms: N_17  and  N_18 
REMARK    7  A    between atoms: C_19  and  C_20 
REMARK    8  A    between atoms: C_21  and  O_22 
REMARK    9  A    between atoms: O_22  and  C_23 
REMARK   10  A    between atoms: C_23  and  C_24 
ROOT
HETATM    1  C   UNL     1      40.632 -15.062   1.480  1.00  0.00     0.293 C 
HETATM    2  N   UNL     1      41.883 -15.652   1.444  1.00  0.00    -0.242 N 
HETATM    3  O   UNL     1      39.691 -15.440   2.176  1.00  0.00    -0.264 OA
HETATM    4  H   UNL     1      42.650 -15.232   0.924  1.00  0.00     0.192 HD
ENDROOT
BRANCH   1   5
HETATM    5  C   UNL     1      40.498 -13.863   0.668  1.00  0.00     0.170 A 
HETATM    6  C   UNL     1      40.722 -12.557   1.079  1.00  0.00     0.096 A 
HETATM    7  N   UNL     1      40.528 -11.796  -0.070  1.00  0.00    -0.215 N 
HETATM    8  N   UNL     1      40.125 -12.618  -1.074  1.00  0.00     0.012 NA
HETATM    9  N   UNL     1      40.139 -13.870  -0.647  1.00  0.00    -0.152 NA
BRANCH   6  10
HETATM   10  C   UNL     1      41.015 -12.018   2.430  1.00  0.00     0.295 C 
BRANCH  10  11
HETATM   11  N   UNL     1      42.451 -11.601   2.647  1.00  0.00    -0.073 N 
HETATM   12  C   UNL     1      43.380 -12.752   2.921  1.00  0.00     0.269 C 
HETATM   13  H   UNL     1      42.761 -11.130   1.786  1.00  0.00     0.279 HD
HETATM   14  C   UNL     1      42.553 -10.568   3.738  1.00  0.00     0.269 C 
ENDBRANCH  10  11
ENDBRANCH   6  10
BRANCH   7  15
HETATM   15  C   UNL     1      40.750 -10.411  -0.261  1.00  0.00     0.225 A 
HETATM   16  N   UNL     1      41.931  -9.875   0.064  1.00  0.00    -0.081 NA
HETATM   17  O   UNL     1      41.782  -8.525  -0.274  1.00  0.00    -0.103 OA
HETATM   18  N   UNL     1      40.531  -8.279  -0.821  1.00  0.00    -0.083 NA
HETATM   19  C   UNL     1      39.891  -9.448  -0.816  1.00  0.00     0.201 A 
BRANCH  19  20
HETATM   20  N   UNL     1      38.641  -9.634  -1.263  1.00  0.00    -0.379 N 
HETATM   21  H   UNL     1      38.447 -10.338  -1.972  1.00  0.00     0.158 HD
HETATM   22  H   UNL     1      37.815  -9.221  -0.834  1.00  0.00     0.158 HD
ENDBRANCH  19  20
ENDBRANCH   7  15
ENDBRANCH   1   5
BRANCH   2  23
HETATM   23  N   UNL     1      42.092 -16.731   2.236  1.00  0.00    -0.183 NA
HETATM   24  C   UNL     1      43.246 -17.307   2.189  1.00  0.00     0.153 C 
BRANCH  24  25
HETATM   25  C   UNL     1      43.530 -18.474   3.041  1.00  0.00     0.016 A 
HETATM   26  C   UNL     1      43.834 -18.428   4.414  1.00  0.00     0.080 A 
HETATM   27  C   UNL     1      44.113 -19.632   5.078  1.00  0.00     0.037 A 
HETATM   28  C   UNL     1      44.071 -20.856   4.406  1.00  0.00     0.003 A 
HETATM   29  C   UNL     1      43.773 -20.892   3.048  1.00  0.00     0.001 A 
HETATM   30  C   UNL     1      43.511 -19.705   2.364  1.00  0.00     0.016 A 
BRANCH  26  31
HETATM   31  O   UNL     1      44.055 -17.322   5.192  1.00  0.00    -0.346 OA
BRANCH  31  32
HETATM   32  C   UNL     1      43.144 -17.104   6.267  1.00  0.00     0.219 C 
BRANCH  32  33
HETATM   33  C   UNL     1      42.637 -15.685   6.224  1.00  0.00     0.026 A 
HETATM   34  C   UNL     1      41.317 -15.352   5.893  1.00  0.00     0.045 A 
HETATM   35 CL   UNL     1      40.139 -16.554   5.506  1.00  0.00    -0.084 Cl
HETATM   36  C   UNL     1      40.910 -14.011   5.847  1.00  0.00     0.024 A 
HETATM   37  C   UNL     1      41.809 -12.988   6.149  1.00  0.00     0.005 A 
HETATM   38  C   UNL     1      43.117 -13.304   6.494  1.00  0.00     0.043 A 
HETATM   39  C   UNL     1      43.518 -14.639   6.526  1.00  0.00     0.126 A 
HETATM   40  F   UNL     1      44.799 -14.905   6.821  1.00  0.00    -0.205 F 
ENDBRANCH  32  33
ENDBRANCH  31  32
ENDBRANCH  26  31
ENDBRANCH  24  25
ENDBRANCH   2  23
TORSDOF 10
ENDMDL
MODEL 3
REMARK VINA RESULT:      -8.7      2.216      4.217
REMARK  10 active torsions:
REMARK  status: ('A' for Active; 'I' for Inactive)
REMARK    1  A    between atoms: N_2  and  C_4 
REMARK    2  A    between atoms: C_4  and  C_5 
REMARK    3  A    between atoms: N_6  and  C_7 
REMARK    4  A    between atoms: C_11  and  N_12 
REMARK    5  A    between atoms: C_15  and  C_16 
REMARK       I    between atoms: C_16  and  N_17 
REMARK    6  A    between atoms: N_17  and  N_18 
REMARK    7  A    between atoms: C_19  and  C_20 
REMARK    8  A    between atoms: C_21  and  O_22 
REMARK    9  A    between atoms: O_22  and  C_23 
REMARK   10  A    between atoms: C_23  and  C_24 
ROOT
HETATM    1  C   UNL     1      44.523 -11.848   7.200  1.00  0.00     0.293 C 
HETATM    2  N   UNL     1      43.673 -12.935   7.092  1.00  0.00    -0.242 N 
HETATM    3  O   UNL     1      45.414 -11.564   6.401  1.00  0.00    -0.264 OA
HETATM    4  H   UNL     1      42.892 -13.059   7.731  1.00  0.00     0.192 HD
ENDROOT
BRANCH   1   5
HETATM    5  C   UNL     1      44.251 -10.969   8.325  1.00  0.00     0.170 A 
HETATM    6  C   UNL     1      43.218 -10.048   8.422  1.00  0.00     0.096 A 
HETATM    7  N   UNL     1      43.350  -9.515   9.702  1.00  0.00    -0.215 N 
HETATM    8  N   UNL     1      44.461 -10.042  10.280  1.00  0.00     0.012 NA
HETATM    9  N   UNL     1      44.989 -10.946   9.471  1.00  0.00    -0.152 NA
BRANCH   6  10
HETATM   10  C   UNL     1      42.223  -9.617   7.409  1.00  0.00     0.295 C 
BRANCH  10  11
HETATM   11  N   UNL     1      40.961 -10.446   7.367  1.00  0.00    -0.073 N 
HETATM   12  C   UNL     1      40.747 -11.156   6.058  1.00  0.00     0.269 C 
HETATM   13  H   UNL     1      41.041 -11.152   8.112  1.00  0.00     0.279 HD
HETATM   14  C   UNL     1      39.757  -9.613   7.720  1.00  0.00     0.269 C 
ENDBRANCH  10  11
ENDBRANCH   6  10
BRANCH   7  15
HETATM   15  C   UNL     1      42.486  -8.624  10.382  1.00  0.00     0.225 A 
HETATM   16  N   UNL     1      42.749  -7.314  10.383  1.00  0.00    -0.081 NA
HETATM   17  O   UNL     1      41.693  -6.769  11.123  1.00  0.00    -0.103 OA
HETATM   18  N   UNL     1      40.802  -7.752  11.525  1.00  0.00    -0.083 NA
HETATM   19  C   UNL     1      41.291  -8.902  11.064  1.00  0.00     0.201 A 
BRANCH  19  20
HETATM   20  N   UNL     1      40.718 -10.102  11.247  1.00  0.00    -0.379 N 
HETATM   21  H   UNL     1      40.908 -10.866  10.603  1.00  0.00     0.158 HD
HETATM   22  H   UNL     1      40.208 -10.368  12.088  1.00  0.00     0.158 HD
ENDBRANCH  19  20
ENDBRANCH   7  15
ENDBRANCH   1   5
BRANCH   2  23
HETATM   23  N   UNL     1      43.831 -13.752   6.022  1.00  0.00    -0.183 NA
HETATM   24  C   UNL     1      43.055 -14.779   5.921  1.00  0.00     0.153 C 
BRANCH  24  25
HETATM   25  C   UNL     1      43.174 -15.690   4.770  1.00  0.00     0.016 A 
HETATM   26  C   UNL     1      42.979 -15.334   3.423  1.00  0.00     0.080 A 
HETATM   27  C   UNL     1      43.098 -16.332   2.444  1.00  0.00     0.037 A 
HETATM   28  C   UNL     1      43.425 -17.647   2.786  1.00  0.00     0.003 A 
HETATM   29  C   UNL     1      43.613 -17.990   4.120  1.00  0.00     0.001 A 
HETATM   30  C   UNL     1      43.481 -17.018   5.112  1.00  0.00     0.016 A 
BRANCH  26  31
HETATM   31  O   UNL     1      42.522 -14.143   2.923  1.00  0.00    -0.346 OA
BRANCH  31  32
HETATM   32  C   UNL     1      41.108 -13.996   2.815  1.00  0.00     0.219 C 
BRANCH  32  33
HETATM   33  C   UNL     1      40.725 -13.811   1.369  1.00  0.00     0.026 A 
HETATM   34  C   UNL     1      40.926 -12.615   0.669  1.00  0.00     0.045 A 
HETATM   35 CL   UNL     1      41.646 -11.231   1.410  1.00  0.00    -0.084 Cl
HETATM   36  C   UNL     1      40.527 -12.496  -0.670  1.00  0.00     0.024 A 
HETATM   37  C   UNL     1      39.940 -13.574  -1.333  1.00  0.00     0.005 A 
HETATM   38  C   UNL     1      39.749 -14.772  -0.655  1.00  0.00     0.043 A 
HETATM   39  C   UNL     1      40.137 -14.879   0.679  1.00  0.00     0.126 A 
HETATM   40  F   UNL     1      39.897 -16.037   1.314  1.00  0.00    -0.205 F 
ENDBRANCH  32  33
ENDBRANCH  31  32
ENDBRANCH  26  31
ENDBRANCH  24  25
ENDBRANCH   2  23
TORSDOF 10
ENDMDL
MODEL 4
REMARK VINA RESULT:      -8.7      5.684      8.981
REMARK  10 active torsions:
REMARK  status: ('A' for Active; 'I' for Inactive)
REMARK    1  A    between atoms: N_2  and  C_4 
REMARK    2  A    between atoms: C_4  and  C_5 
REMARK    3  A    between atoms: N_6  and  C_7 
REMARK    4  A    between atoms: C_11  and  N_12 
REMARK    5  A    between atoms: C_15  and  C_16 
REMARK       I    between atoms: C_16  and  N_17 
REMARK    6  A    between atoms: N_17  and  N_18 
REMARK    7  A    between atoms: C_19  and  C_20 
REMARK    8  A    between atoms: C_21  and  O_22 
REMARK    9  A    between atoms: O_22  and  C_23 
REMARK   10  A    between atoms: C_23  and  C_24 
ROOT
HETATM    1  C   UNL     1      40.955 -14.404   1.074  1.00  0.00     0.293 C 
HETATM    2  N   UNL     1      42.214 -14.979   1.044  1.00  0.00    -0.242 N 
HETATM    3  O   UNL     1      39.949 -14.928   1.550  1.00  0.00    -0.264 OA
HETATM    4  H   UNL     1      43.026 -14.454   0.727  1.00  0.00     0.192 HD
ENDROOT
BRANCH   1   5
HETATM    5  C   UNL     1      40.890 -13.048   0.554  1.00  0.00     0.170 A 
HETATM    6  C   UNL     1      40.442 -12.666  -0.703  1.00  0.00     0.096 A 
HETATM    7  N   UNL     1      40.513 -11.276  -0.686  1.00  0.00    -0.215 N 
HETATM    8  N   UNL     1      41.059 -10.881   0.494  1.00  0.00     0.012 NA
HETATM    9  N   UNL     1      41.255 -11.942   1.262  1.00  0.00    -0.152 NA
BRANCH   6  10
HETATM   10  C   UNL     1      40.049 -13.493  -1.870  1.00  0.00     0.295 C 
BRANCH  10  11
HETATM   11  N   UNL     1      38.687 -14.138  -1.759  1.00  0.00    -0.073 N 
HETATM   12  C   UNL     1      38.542 -15.388  -2.585  1.00  0.00     0.269 C 
HETATM   13  H   UNL     1      38.551 -14.384  -0.769  1.00  0.00     0.279 HD
HETATM   14  C   UNL     1      37.597 -13.155  -2.092  1.00  0.00     0.269 C 
ENDBRANCH  10  11
ENDBRANCH   6  10
BRANCH   7  15
HETATM   15  C   UNL     1      40.058 -10.355  -1.660  1.00  0.00     0.225 A 
HETATM   16  N   UNL     1      40.830 -10.064  -2.712  1.00  0.00    -0.081 NA
HETATM   17  O   UNL     1      40.057  -9.155  -3.443  1.00  0.00    -0.103 OA
HETATM   18  N   UNL     1      38.828  -8.940  -2.838  1.00  0.00    -0.083 NA
HETATM   19  C   UNL     1      38.826  -9.685  -1.734  1.00  0.00     0.201 A 
BRANCH  19  20
HETATM   20  N   UNL     1      37.809  -9.754  -0.862  1.00  0.00    -0.379 N 
HETATM   21  H   UNL     1      37.500 -10.653  -0.501  1.00  0.00     0.158 HD
HETATM   22  H   UNL     1      37.401  -8.944  -0.398  1.00  0.00     0.158 HD
ENDBRANCH  19  20
ENDBRANCH   7  15
ENDBRANCH   1   5
BRANCH   2  23
HETATM   23  N   UNL     1      42.353 -16.215   1.580  1.00  0.00    -0.183 NA
HETATM   24  C   UNL     1      43.342 -16.422   2.384  1.00  0.00     0.153 C 
BRANCH  24  25
HETATM   25  C   UNL     1      43.529 -17.743   3.007  1.00  0.00     0.016 A 
HETATM   26  C   UNL     1      43.877 -17.971   4.351  1.00  0.00     0.080 A 
HETATM   27  C   UNL     1      44.051 -19.294   4.782  1.00  0.00     0.037 A 
HETATM   28  C   UNL     1      43.861 -20.370   3.911  1.00  0.00     0.003 A 
HETATM   29  C   UNL     1      43.521 -20.136   2.583  1.00  0.00     0.001 A 
HETATM   30  C   UNL     1      43.362 -18.827   2.129  1.00  0.00     0.016 A 
BRANCH  26  31
HETATM   31  O   UNL     1      44.235 -17.047   5.298  1.00  0.00    -0.346 OA
BRANCH  31  32
HETATM   32  C   UNL     1      43.213 -16.626   6.198  1.00  0.00     0.219 C 
BRANCH  32  33
HETATM   33  C   UNL     1      42.690 -15.275   5.779  1.00  0.00     0.026 A 
HETATM   34  C   UNL     1      41.487 -15.100   5.085  1.00  0.00     0.045 A 
HETATM   35 CL   UNL     1      40.480 -16.434   4.649  1.00  0.00    -0.084 Cl
HETATM   36  C   UNL     1      41.064 -13.820   4.701  1.00  0.00     0.024 A 
HETATM   37  C   UNL     1      41.827 -12.697   5.021  1.00  0.00     0.005 A 
HETATM   38  C   UNL     1      43.016 -12.854   5.723  1.00  0.00     0.043 A 
HETATM   39  C   UNL     1      43.436 -14.131   6.091  1.00  0.00     0.126 A 
HETATM   40  F   UNL     1      44.610 -14.249   6.729  1.00  0.00    -0.205 F 
ENDBRANCH  32  33
ENDBRANCH  31  32
ENDBRANCH  26  31
ENDBRANCH  24  25
ENDBRANCH   2  23
TORSDOF 10
ENDMDL
MODEL 5
REMARK VINA RESULT:      -8.5      2.316      4.377
REMARK  10 active torsions:
REMARK  status: ('A' for Active; 'I' for Inactive)
REMARK    1  A    between atoms: N_2  and  C_4 
REMARK    2  A    between atoms: C_4  and  C_5 
REMARK    3  A    between atoms: N_6  and  C_7 
REMARK    4  A    between atoms: C_11  and  N_12 
REMARK    5  A    between atoms: C_15  and  C_16 
REMARK       I    between atoms: C_16  and  N_17 
REMARK    6  A    between atoms: N_17  and  N_18 
REMARK    7  A    between atoms: C_19  and  C_20 
REMARK    8  A    between atoms: C_21  and  O_22 
REMARK    9  A    between atoms: O_22  and  C_23 
REMARK   10  A    between atoms: C_23  and  C_24 
ROOT
HETATM    1  C   UNL     1      44.450 -11.829   7.231  1.00  0.00     0.293 C 
HETATM    2  N   UNL     1      43.598 -12.907   7.070  1.00  0.00    -0.242 N 
HETATM    3  O   UNL     1      45.392 -11.555   6.489  1.00  0.00    -0.264 OA
HETATM    4  H   UNL     1      42.776 -13.023   7.660  1.00  0.00     0.192 HD
ENDROOT
BRANCH   1   5
HETATM    5  C   UNL     1      44.116 -10.946   8.337  1.00  0.00     0.170 A 
HETATM    6  C   UNL     1      43.066 -10.040   8.382  1.00  0.00     0.096 A 
HETATM    7  N   UNL     1      43.134  -9.497   9.662  1.00  0.00    -0.215 N 
HETATM    8  N   UNL     1      44.228 -10.002  10.292  1.00  0.00     0.012 NA
HETATM    9  N   UNL     1      44.804 -10.903   9.513  1.00  0.00    -0.152 NA
BRANCH   6  10
HETATM   10  C   UNL     1      42.109  -9.632   7.324  1.00  0.00     0.295 C 
BRANCH  10  11
HETATM   11  N   UNL     1      40.908 -10.535   7.173  1.00  0.00    -0.073 N 
HETATM   12  C   UNL     1      40.727 -11.072   5.779  1.00  0.00     0.269 C 
HETATM   13  H   UNL     1      41.047 -11.330   7.813  1.00  0.00     0.279 HD
HETATM   14  C   UNL     1      39.653  -9.847   7.641  1.00  0.00     0.269 C 
ENDBRANCH  10  11
ENDBRANCH   6  10
BRANCH   7  15
HETATM   15  C   UNL     1      42.229  -8.614  10.298  1.00  0.00     0.225 A 
HETATM   16  N   UNL     1      41.201  -9.103  10.997  1.00  0.00    -0.081 NA
HETATM   17  O   UNL     1      40.556  -7.958  11.478  1.00  0.00    -0.103 OA
HETATM   18  N   UNL     1      41.221  -6.806  11.086  1.00  0.00    -0.083 NA
HETATM   19  C   UNL     1      42.260  -7.211  10.356  1.00  0.00     0.201 A 
BRANCH  19  20
HETATM   20  N   UNL     1      43.155  -6.392   9.784  1.00  0.00    -0.379 N 
HETATM   21  H   UNL     1      43.912  -6.770   9.219  1.00  0.00     0.158 HD
HETATM   22  H   UNL     1      43.056  -5.379   9.742  1.00  0.00     0.158 HD
ENDBRANCH  19  20
ENDBRANCH   7  15
ENDBRANCH   1   5
BRANCH   2  23
HETATM   23  N   UNL     1      43.814 -13.727   6.013  1.00  0.00    -0.183 NA
HETATM   24  C   UNL     1      42.894 -14.579   5.705  1.00  0.00     0.153 C 
BRANCH  24  25
HETATM   25  C   UNL     1      43.072 -15.482   4.555  1.00  0.00     0.016 A 
HETATM   26  C   UNL     1      43.029 -15.100   3.202  1.00  0.00     0.080 A 
HETATM   27  C   UNL     1      43.185 -16.091   2.222  1.00  0.00     0.037 A 
HETATM   28  C   UNL     1      43.404 -17.427   2.571  1.00  0.00     0.003 A 
HETATM   29  C   UNL     1      43.443 -17.796   3.912  1.00  0.00     0.001 A 
HETATM   30  C   UNL     1      43.270 -16.830   4.902  1.00  0.00     0.016 A 
BRANCH  26  31
HETATM   31  O   UNL     1      42.689 -13.879   2.681  1.00  0.00    -0.346 OA
BRANCH  31  32
HETATM   32  C   UNL     1      41.298 -13.573   2.626  1.00  0.00     0.219 C 
BRANCH  32  33
HETATM   33  C   UNL     1      40.842 -13.531   1.189  1.00  0.00     0.026 A 
HETATM   34  C   UNL     1      40.163 -14.587   0.569  1.00  0.00     0.045 A 
HETATM   35 CL   UNL     1      39.778 -16.047   1.409  1.00  0.00    -0.084 Cl
HETATM   36  C   UNL     1      39.786 -14.499  -0.778  1.00  0.00     0.024 A 
HETATM   37  C   UNL     1      40.063 -13.349  -1.518  1.00  0.00     0.005 A 
HETATM   38  C   UNL     1      40.722 -12.287  -0.911  1.00  0.00     0.043 A 
HETATM   39  C   UNL     1      41.106 -12.387   0.426  1.00  0.00     0.126 A 
HETATM   40  F   UNL     1      41.778 -11.360   0.967  1.00  0.00    -0.205 F 
ENDBRANCH  32  33
ENDBRANCH  31  32
ENDBRANCH  26  31
ENDBRANCH  24  25
ENDBRANCH   2  23
TORSDOF 10
ENDMDL
MODEL 6
REMARK VINA RESULT:      -8.3      1.608      2.689
REMARK  10 active torsions:
REMARK  status: ('A' for Active; 'I' for Inactive)
REMARK    1  A    between atoms: N_2  and  C_4 
REMARK    2  A    between atoms: C_4  and  C_5 
REMARK    3  A    between atoms: N_6  and  C_7 
REMARK    4  A    between atoms: C_11  and  N_12 
REMARK    5  A    between atoms: C_15  and  C_16 
REMARK       I    between atoms: C_16  and  N_17 
REMARK    6  A    between atoms: N_17  and  N_18 
REMARK    7  A    between atoms: C_19  and  C_20 
REMARK    8  A    between atoms: C_21  and  O_22 
REMARK    9  A    between atoms: O_22  and  C_23 
REMARK   10  A    between atoms: C_23  and  C_24 
ROOT
HETATM    1  C   UNL     1      39.411 -10.682   6.951  1.00  0.00     0.293 C 
HETATM    2  N   UNL     1      40.004 -11.930   6.869  1.00  0.00    -0.242 N 
HETATM    3  O   UNL     1      38.676 -10.191   6.096  1.00  0.00    -0.264 OA
HETATM    4  H   UNL     1      40.520 -12.321   7.654  1.00  0.00     0.192 HD
ENDROOT
BRANCH   1   5
HETATM    5  C   UNL     1      39.652  -9.971   8.196  1.00  0.00     0.170 A 
HETATM    6  C   UNL     1      40.832  -9.347   8.575  1.00  0.00     0.096 A 
HETATM    7  N   UNL     1      40.533  -8.762   9.803  1.00  0.00    -0.215 N 
HETATM    8  N   UNL     1      39.266  -9.109  10.154  1.00  0.00     0.012 NA
HETATM    9  N   UNL     1      38.717  -9.807   9.174  1.00  0.00    -0.152 NA
BRANCH   6  10
HETATM   10  C   UNL     1      42.162  -9.338   7.920  1.00  0.00     0.295 C 
BRANCH  10  11
HETATM   11  N   UNL     1      43.056 -10.501   8.284  1.00  0.00    -0.073 N 
HETATM   12  C   UNL     1      44.166 -10.136   9.233  1.00  0.00     0.269 C 
HETATM   13  H   UNL     1      42.459 -11.207   8.736  1.00  0.00     0.279 HD
HETATM   14  C   UNL     1      43.611 -11.161   7.050  1.00  0.00     0.269 C 
ENDBRANCH  10  11
ENDBRANCH   6  10
BRANCH   7  15
HETATM   15  C   UNL     1      41.329  -7.892  10.585  1.00  0.00     0.225 A 
HETATM   16  N   UNL     1      41.603  -6.661  10.143  1.00  0.00    -0.081 NA
HETATM   17  O   UNL     1      42.379  -6.110  11.169  1.00  0.00    -0.103 OA
HETATM   18  N   UNL     1      42.533  -7.003  12.218  1.00  0.00    -0.083 NA
HETATM   19  C   UNL     1      41.881  -8.108  11.859  1.00  0.00     0.201 A 
BRANCH  19  20
HETATM   20  N   UNL     1      41.793  -9.219  12.606  1.00  0.00    -0.379 N 
HETATM   21  H   UNL     1      41.077  -9.301  13.323  1.00  0.00     0.158 HD
HETATM   22  H   UNL     1      42.306 -10.077  12.413  1.00  0.00     0.158 HD
ENDBRANCH  19  20
ENDBRANCH   7  15
ENDBRANCH   1   5
BRANCH   2  23
HETATM   23  N   UNL     1      39.757 -12.672   5.763  1.00  0.00    -0.183 NA
HETATM   24  C   UNL     1      40.762 -13.039   5.040  1.00  0.00     0.153 C 
BRANCH  24  25
HETATM   25  C   UNL     1      40.550 -13.860   3.835  1.00  0.00     0.016 A 
HETATM   26  C   UNL     1      40.908 -15.213   3.696  1.00  0.00     0.080 A 
HETATM   27  C   UNL     1      40.667 -15.846   2.468  1.00  0.00     0.037 A 
HETATM   28  C   UNL     1      40.064 -15.164   1.408  1.00  0.00     0.003 A 
HETATM   29  C   UNL     1      39.715 -13.825   1.553  1.00  0.00     0.001 A 
HETATM   30  C   UNL     1      39.964 -13.171   2.760  1.00  0.00     0.016 A 
BRANCH  26  31
HETATM   31  O   UNL     1      41.626 -15.990   4.568  1.00  0.00    -0.346 OA
BRANCH  31  32
HETATM   32  C   UNL     1      43.019 -16.131   4.299  1.00  0.00     0.219 C 
BRANCH  32  33
HETATM   33  C   UNL     1      43.387 -17.592   4.275  1.00  0.00     0.026 A 
HETATM   34  C   UNL     1      43.618 -18.344   5.434  1.00  0.00     0.045 A 
HETATM   35 CL   UNL     1      43.493 -17.654   7.013  1.00  0.00    -0.084 Cl
HETATM   36  C   UNL     1      43.980 -19.696   5.348  1.00  0.00     0.024 A 
HETATM   37  C   UNL     1      44.098 -20.319   4.105  1.00  0.00     0.005 A 
HETATM   38  C   UNL     1      43.858 -19.589   2.947  1.00  0.00     0.043 A 
HETATM   39  C   UNL     1      43.509 -18.243   3.041  1.00  0.00     0.126 A 
HETATM   40  F   UNL     1      43.327 -17.558   1.901  1.00  0.00    -0.205 F 
ENDBRANCH  32  33
ENDBRANCH  31  32
ENDBRANCH  26  31
ENDBRANCH  24  25
ENDBRANCH   2  23
TORSDOF 10
ENDMDL
MODEL 7
REMARK VINA RESULT:      -8.3      2.746      5.068
REMARK  10 active torsions:
REMARK  status: ('A' for Active; 'I' for Inactive)
REMARK    1  A    between atoms: N_2  and  C_4 
REMARK    2  A    between atoms: C_4  and  C_5 
REMARK    3  A    between atoms: N_6  and  C_7 
REMARK    4  A    between atoms: C_11  and  N_12 
REMARK    5  A    between atoms: C_15  and  C_16 
REMARK       I    between atoms: C_16  and  N_17 
REMARK    6  A    between atoms: N_17  and  N_18 
REMARK    7  A    between atoms: C_19  and  C_20 
REMARK    8  A    between atoms: C_21  and  O_22 
REMARK    9  A    between atoms: O_22  and  C_23 
REMARK   10  A    between atoms: C_23  and  C_24 
ROOT
HETATM    1  C   UNL     1      40.255 -11.893   5.845  1.00  0.00     0.293 C 
HETATM    2  N   UNL     1      41.013 -12.983   6.235  1.00  0.00    -0.242 N 
HETATM    3  O   UNL     1      39.791 -11.721   4.719  1.00  0.00    -0.264 OA
HETATM    4  H   UNL     1      41.284 -13.117   7.207  1.00  0.00     0.192 HD
ENDROOT
BRANCH   1   5
HETATM    5  C   UNL     1      39.955 -10.946   6.906  1.00  0.00     0.170 A 
HETATM    6  C   UNL     1      40.830 -10.021   7.459  1.00  0.00     0.096 A 
HETATM    7  N   UNL     1      40.053  -9.317   8.375  1.00  0.00    -0.215 N 
HETATM    8  N   UNL     1      38.812  -9.870   8.410  1.00  0.00     0.012 NA
HETATM    9  N   UNL     1      38.734 -10.829   7.501  1.00  0.00    -0.152 NA
BRANCH   6  10
HETATM   10  C   UNL     1      42.284  -9.831   7.239  1.00  0.00     0.295 C 
BRANCH  10  11
HETATM   11  N   UNL     1      43.174 -10.705   8.091  1.00  0.00    -0.073 N 
HETATM   12  C   UNL     1      43.725 -10.007   9.305  1.00  0.00     0.269 C 
HETATM   13  H   UNL     1      42.601 -11.501   8.404  1.00  0.00     0.279 HD
HETATM   14  C   UNL     1      44.289 -11.300   7.273  1.00  0.00     0.269 C 
ENDBRANCH  10  11
ENDBRANCH   6  10
BRANCH   7  15
HETATM   15  C   UNL     1      40.399  -8.173   9.133  1.00  0.00     0.225 A 
HETATM   16  N   UNL     1      40.629  -7.010   8.517  1.00  0.00    -0.081 NA
HETATM   17  O   UNL     1      40.918  -6.133   9.568  1.00  0.00    -0.103 OA
HETATM   18  N   UNL     1      40.828  -6.774  10.795  1.00  0.00    -0.083 NA
HETATM   19  C   UNL     1      40.504  -8.038  10.527  1.00  0.00     0.201 A 
BRANCH  19  20
HETATM   20  N   UNL     1      40.325  -8.992  11.453  1.00  0.00    -0.379 N 
HETATM   21  H   UNL     1      39.563  -8.921  12.124  1.00  0.00     0.158 HD
HETATM   22  H   UNL     1      40.811  -9.886  11.452  1.00  0.00     0.158 HD
ENDBRANCH  19  20
ENDBRANCH   7  15
ENDBRANCH   1   5
BRANCH   2  23
HETATM   23  N   UNL     1      41.266 -13.938   5.307  1.00  0.00    -0.183 NA
HETATM   24  C   UNL     1      42.464 -14.028   4.837  1.00  0.00     0.153 C 
BRANCH  24  25
HETATM   25  C   UNL     1      42.796 -15.059   3.839  1.00  0.00     0.016 A 
HETATM   26  C   UNL     1      42.932 -14.843   2.455  1.00  0.00     0.080 A 
HETATM   27  C   UNL     1      43.219 -15.941   1.632  1.00  0.00     0.037 A 
HETATM   28  C   UNL     1      43.392 -17.221   2.166  1.00  0.00     0.003 A 
HETATM   29  C   UNL     1      43.253 -17.427   3.534  1.00  0.00     0.001 A 
HETATM   30  C   UNL     1      42.948 -16.352   4.369  1.00  0.00     0.016 A 
BRANCH  26  31
HETATM   31  O   UNL     1      42.662 -13.699   1.750  1.00  0.00    -0.346 OA
BRANCH  31  32
HETATM   32  C   UNL     1      41.307 -13.256   1.746  1.00  0.00     0.219 C 
BRANCH  32  33
HETATM   33  C   UNL     1      40.697 -13.496   0.389  1.00  0.00     0.026 A 
HETATM   34  C   UNL     1      39.999 -14.664   0.057  1.00  0.00     0.045 A 
HETATM   35 CL   UNL     1      39.769 -15.946   1.191  1.00  0.00    -0.084 Cl
HETATM   36  C   UNL     1      39.474 -14.840  -1.231  1.00  0.00     0.024 A 
HETATM   37  C   UNL     1      39.621 -13.845  -2.198  1.00  0.00     0.005 A 
HETATM   38  C   UNL     1      40.298 -12.674  -1.878  1.00  0.00     0.043 A 
HETATM   39  C   UNL     1      40.828 -12.512  -0.599  1.00  0.00     0.126 A 
HETATM   40  F   UNL     1      41.512 -11.387  -0.339  1.00  0.00    -0.205 F 
ENDBRANCH  32  33
ENDBRANCH  31  32
ENDBRANCH  26  31
ENDBRANCH  24  25
ENDBRANCH   2  23
TORSDOF 10
ENDMDL
MODEL 8
REMARK VINA RESULT:      -8.1      1.710      2.164
REMARK  10 active torsions:
REMARK  status: ('A' for Active; 'I' for Inactive)
REMARK    1  A    between atoms: N_2  and  C_4 
REMARK    2  A    between atoms: C_4  and  C_5 
REMARK    3  A    between atoms: N_6  and  C_7 
REMARK    4  A    between atoms: C_11  and  N_12 
REMARK    5  A    between atoms: C_15  and  C_16 
REMARK       I    between atoms: C_16  and  N_17 
REMARK    6  A    between atoms: N_17  and  N_18 
REMARK    7  A    between atoms: C_19  and  C_20 
REMARK    8  A    between atoms: C_21  and  O_22 
REMARK    9  A    between atoms: O_22  and  C_23 
REMARK   10  A    between atoms: C_23  and  C_24 
ROOT
HETATM    1  C   UNL     1      43.167 -10.280   7.851  1.00  0.00     0.293 C 
HETATM    2  N   UNL     1      42.948 -11.548   7.341  1.00  0.00    -0.242 N 
HETATM    3  O   UNL     1      43.250  -9.252   7.180  1.00  0.00    -0.264 OA
HETATM    4  H   UNL     1      42.789 -12.343   7.955  1.00  0.00     0.192 HD
ENDROOT
BRANCH   1   5
HETATM    5  C   UNL     1      43.223 -10.205   9.302  1.00  0.00     0.170 A 
HETATM    6  C   UNL     1      42.458  -9.383  10.116  1.00  0.00     0.096 A 
HETATM    7  N   UNL     1      42.834  -9.733  11.410  1.00  0.00    -0.215 N 
HETATM    8  N   UNL     1      43.834 -10.651  11.339  1.00  0.00     0.012 NA
HETATM    9  N   UNL     1      44.048 -10.968  10.073  1.00  0.00    -0.152 NA
BRANCH   6  10
HETATM   10  C   UNL     1      41.507  -8.301   9.760  1.00  0.00     0.295 C 
BRANCH  10  11
HETATM   11  N   UNL     1      40.409  -8.711   8.808  1.00  0.00    -0.073 N 
HETATM   12  C   UNL     1      39.706  -7.549   8.159  1.00  0.00     0.269 C 
HETATM   13  H   UNL     1      40.847  -9.280   8.070  1.00  0.00     0.279 HD
HETATM   14  C   UNL     1      39.416  -9.616   9.488  1.00  0.00     0.269 C 
ENDBRANCH  10  11
ENDBRANCH   6  10
BRANCH   7  15
HETATM   15  C   UNL     1      42.281  -9.302  12.639  1.00  0.00     0.225 A 
HETATM   16  N   UNL     1      42.876  -8.327  13.332  1.00  0.00    -0.081 NA
HETATM   17  O   UNL     1      42.051  -8.169  14.451  1.00  0.00    -0.103 OA
HETATM   18  N   UNL     1      40.963  -9.027  14.398  1.00  0.00    -0.083 NA
HETATM   19  C   UNL     1      41.102  -9.728  13.273  1.00  0.00     0.201 A 
BRANCH  19  20
HETATM   20  N   UNL     1      40.250 -10.676  12.855  1.00  0.00    -0.379 N 
HETATM   21  H   UNL     1      40.309 -11.621  13.226  1.00  0.00     0.158 HD
HETATM   22  H   UNL     1      39.425 -10.490  12.288  1.00  0.00     0.158 HD
ENDBRANCH  19  20
ENDBRANCH   7  15
ENDBRANCH   1   5
BRANCH   2  23
HETATM   23  N   UNL     1      42.814 -11.671   5.998  1.00  0.00    -0.183 NA
HETATM   24  C   UNL     1      41.712 -12.162   5.539  1.00  0.00     0.153 C 
BRANCH  24  25
HETATM   25  C   UNL     1      41.509 -12.302   4.087  1.00  0.00     0.016 A 
HETATM   26  C   UNL     1      41.993 -13.357   3.292  1.00  0.00     0.080 A 
HETATM   27  C   UNL     1      41.740 -13.326   1.913  1.00  0.00     0.037 A 
HETATM   28  C   UNL     1      41.005 -12.289   1.335  1.00  0.00     0.003 A 
HETATM   29  C   UNL     1      40.532 -11.248   2.127  1.00  0.00     0.001 A 
HETATM   30  C   UNL     1      40.789 -11.249   3.498  1.00  0.00     0.016 A 
BRANCH  26  31
HETATM   31  O   UNL     1      42.840 -14.370   3.660  1.00  0.00    -0.346 OA
BRANCH  31  32
HETATM   32  C   UNL     1      42.259 -15.464   4.366  1.00  0.00     0.219 C 
BRANCH  32  33
HETATM   33  C   UNL     1      42.882 -16.756   3.903  1.00  0.00     0.026 A 
HETATM   34  C   UNL     1      43.886 -17.423   4.616  1.00  0.00     0.045 A 
HETATM   35 CL   UNL     1      44.501 -16.818   6.112  1.00  0.00    -0.084 Cl
HETATM   36  C   UNL     1      44.443 -18.611   4.123  1.00  0.00     0.024 A 
HETATM   37  C   UNL     1      43.994 -19.158   2.921  1.00  0.00     0.005 A 
HETATM   38  C   UNL     1      42.987 -18.516   2.209  1.00  0.00     0.043 A 
HETATM   39  C   UNL     1      42.446 -17.329   2.701  1.00  0.00     0.126 A 
HETATM   40  F   UNL     1      41.507 -16.713   1.966  1.00  0.00    -0.205 F 
ENDBRANCH  32  33
ENDBRANCH  31  32
ENDBRANCH  26  31
ENDBRANCH  24  25
ENDBRANCH   2  23
TORSDOF 10
ENDMDL
MODEL 9
REMARK VINA RESULT:      -8.1      1.677      2.850
REMARK  10 active torsions:
REMARK  status: ('A' for Active; 'I' for Inactive)
REMARK    1  A    between atoms: N_2  and  C_4 
REMARK    2  A    between atoms: C_4  and  C_5 
REMARK    3  A    between atoms: N_6  and  C_7 
REMARK    4  A    between atoms: C_11  and  N_12 
REMARK    5  A    between atoms: C_15  and  C_16 
REMARK       I    between atoms: C_16  and  N_17 
REMARK    6  A    between atoms: N_17  and  N_18 
REMARK    7  A    between atoms: C_19  and  C_20 
REMARK    8  A    between atoms: C_21  and  O_22 
REMARK    9  A    between atoms: O_22  and  C_23 
REMARK   10  A    between atoms: C_23  and  C_24 
ROOT
HETATM    1  C   UNL     1      40.996 -10.281   5.560  1.00  0.00     0.293 C 
HETATM    2  N   UNL     1      40.814 -11.627   5.296  1.00  0.00    -0.242 N 
HETATM    3  O   UNL     1      41.122  -9.403   4.708  1.00  0.00    -0.264 OA
HETATM    4  H   UNL     1      40.616 -12.289   6.043  1.00  0.00     0.192 HD
ENDROOT
BRANCH   1   5
HETATM    5  C   UNL     1      40.957  -9.923   6.969  1.00  0.00     0.170 A 
HETATM    6  C   UNL     1      42.044  -9.613   7.773  1.00  0.00     0.096 A 
HETATM    7  N   UNL     1      41.481  -9.280   9.001  1.00  0.00    -0.215 N 
HETATM    8  N   UNL     1      40.138  -9.476   8.932  1.00  0.00     0.012 NA
HETATM    9  N   UNL     1      39.810  -9.828   7.699  1.00  0.00    -0.152 NA
BRANCH   6  10
HETATM   10  C   UNL     1      43.498  -9.683   7.484  1.00  0.00     0.295 C 
BRANCH  10  11
HETATM   11  N   UNL     1      44.209 -10.867   8.096  1.00  0.00    -0.073 N 
HETATM   12  C   UNL     1      45.479 -10.503   8.816  1.00  0.00     0.269 C 
HETATM   13  H   UNL     1      43.559 -11.290   8.773  1.00  0.00     0.279 HD
HETATM   14  C   UNL     1      44.473 -11.930   7.063  1.00  0.00     0.269 C 
ENDBRANCH  10  11
ENDBRANCH   6  10
BRANCH   7  15
HETATM   15  C   UNL     1      42.117  -8.760  10.154  1.00  0.00     0.225 A 
HETATM   16  N   UNL     1      42.154  -7.440  10.356  1.00  0.00    -0.081 NA
HETATM   17  O   UNL     1      42.832  -7.313  11.574  1.00  0.00    -0.103 OA
HETATM   18  N   UNL     1      43.163  -8.555  12.095  1.00  0.00    -0.083 NA
HETATM   19  C   UNL     1      42.718  -9.453  11.218  1.00  0.00     0.201 A 
BRANCH  19  20
HETATM   20  N   UNL     1      42.847 -10.781  11.354  1.00  0.00    -0.379 N 
HETATM   21  H   UNL     1      42.522 -11.245  12.199  1.00  0.00     0.158 HD
HETATM   22  H   UNL     1      43.117 -11.408  10.599  1.00  0.00     0.158 HD
ENDBRANCH  19  20
ENDBRANCH   7  15
ENDBRANCH   1   5
BRANCH   2  23
HETATM   23  N   UNL     1      40.769 -12.012   3.998  1.00  0.00    -0.183 NA
HETATM   24  C   UNL     1      40.021 -13.017   3.686  1.00  0.00     0.153 C 
BRANCH  24  25
HETATM   25  C   UNL     1      39.924 -13.466   2.287  1.00  0.00     0.016 A 
HETATM   26  C   UNL     1      40.320 -14.727   1.804  1.00  0.00     0.080 A 
HETATM   27  C   UNL     1      40.192 -14.988   0.433  1.00  0.00     0.037 A 
HETATM   28  C   UNL     1      39.662 -14.034  -0.440  1.00  0.00     0.003 A 
HETATM   29  C   UNL     1      39.275 -12.789   0.045  1.00  0.00     0.001 A 
HETATM   30  C   UNL     1      39.412 -12.501   1.402  1.00  0.00     0.016 A 
BRANCH  26  31
HETATM   31  O   UNL     1      40.981 -15.719   2.480  1.00  0.00    -0.346 OA
BRANCH  31  32
HETATM   32  C   UNL     1      42.324 -15.979   2.080  1.00  0.00     0.219 C 
BRANCH  32  33
HETATM   33  C   UNL     1      43.025 -16.785   3.143  1.00  0.00     0.026 A 
HETATM   34  C   UNL     1      43.399 -16.256   4.385  1.00  0.00     0.045 A 
HETATM   35 CL   UNL     1      43.080 -14.613   4.814  1.00  0.00    -0.084 Cl
HETATM   36  C   UNL     1      44.070 -17.049   5.326  1.00  0.00     0.024 A 
HETATM   37  C   UNL     1      44.360 -18.386   5.048  1.00  0.00     0.005 A 
HETATM   38  C   UNL     1      43.981 -18.929   3.826  1.00  0.00     0.043 A 
HETATM   39  C   UNL     1      43.325 -18.130   2.890  1.00  0.00     0.126 A 
HETATM   40  F   UNL     1      43.012 -18.675   1.705  1.00  0.00    -0.205 F 
ENDBRANCH  32  33
ENDBRANCH  31  32
ENDBRANCH  26  31
ENDBRANCH  24  25
ENDBRANCH   2  23
TORSDOF 10
ENDMDL
MODEL 10
REMARK VINA RESULT:      -8.0      1.916      2.476
REMARK  10 active torsions:
REMARK  status: ('A' for Active; 'I' for Inactive)
REMARK    1  A    between atoms: N_2  and  C_4 
REMARK    2  A    between atoms: C_4  and  C_5 
REMARK    3  A    between atoms: N_6  and  C_7 
REMARK    4  A    between atoms: C_11  and  N_12 
REMARK    5  A    between atoms: C_15  and  C_16 
REMARK       I    between atoms: C_16  and  N_17 
REMARK    6  A    between atoms: N_17  and  N_18 
REMARK    7  A    between atoms: C_19  and  C_20 
REMARK    8  A    between atoms: C_21  and  O_22 
REMARK    9  A    between atoms: O_22  and  C_23 
REMARK   10  A    between atoms: C_23  and  C_24 
ROOT
HETATM    1  C   UNL     1      43.359 -11.479   5.786  1.00  0.00     0.293 C 
HETATM    2  N   UNL     1      42.277 -12.318   5.586  1.00  0.00    -0.242 N 
HETATM    3  O   UNL     1      44.139 -11.108   4.911  1.00  0.00    -0.264 OA
HETATM    4  H   UNL     1      41.611 -12.507   6.330  1.00  0.00     0.192 HD
ENDROOT
BRANCH   1   5
HETATM    5  C   UNL     1      43.493 -10.968   7.141  1.00  0.00     0.170 A 
HETATM    6  C   UNL     1      42.969  -9.780   7.631  1.00  0.00     0.096 A 
HETATM    7  N   UNL     1      43.312  -9.783   8.980  1.00  0.00    -0.215 N 
HETATM    8  N   UNL     1      44.075 -10.879   9.233  1.00  0.00     0.012 NA
HETATM    9  N   UNL     1      44.158 -11.617   8.138  1.00  0.00    -0.152 NA
BRANCH   6  10
HETATM   10  C   UNL     1      42.272  -8.679   6.923  1.00  0.00     0.295 C 
BRANCH  10  11
HETATM   11  N   UNL     1      40.788  -8.889   6.729  1.00  0.00    -0.073 N 
HETATM   12  C   UNL     1      40.194  -9.908   7.663  1.00  0.00     0.269 C 
HETATM   13  H   UNL     1      40.332  -7.982   6.902  1.00  0.00     0.279 HD
HETATM   14  C   UNL     1      40.476  -9.238   5.298  1.00  0.00     0.269 C 
ENDBRANCH  10  11
ENDBRANCH   6  10
BRANCH   7  15
HETATM   15  C   UNL     1      42.924  -8.875   9.993  1.00  0.00     0.225 A 
HETATM   16  N   UNL     1      43.385  -7.620   9.976  1.00  0.00    -0.081 NA
HETATM   17  O   UNL     1      42.784  -7.035  11.096  1.00  0.00    -0.103 OA
HETATM   18  N   UNL     1      41.953  -7.933  11.748  1.00  0.00    -0.083 NA
HETATM   19  C   UNL     1      42.037  -9.074  11.064  1.00  0.00     0.201 A 
BRANCH  19  20
HETATM   20  N   UNL     1      41.380 -10.201  11.378  1.00  0.00    -0.379 N 
HETATM   21  H   UNL     1      41.726 -11.103  11.062  1.00  0.00     0.158 HD
HETATM   22  H   UNL     1      40.618 -10.247  12.052  1.00  0.00     0.158 HD
ENDBRANCH  19  20
ENDBRANCH   7  15
ENDBRANCH   1   5
BRANCH   2  23
HETATM   23  N   UNL     1      42.057 -12.770   4.327  1.00  0.00    -0.183 NA
HETATM   24  C   UNL     1      40.837 -12.838   3.910  1.00  0.00     0.153 C 
BRANCH  24  25
HETATM   25  C   UNL     1      40.544 -13.307   2.544  1.00  0.00     0.016 A 
HETATM   26  C   UNL     1      40.920 -14.553   2.010  1.00  0.00     0.080 A 
HETATM   27  C   UNL     1      40.591 -14.835   0.676  1.00  0.00     0.037 A 
HETATM   28  C   UNL     1      39.886 -13.916  -0.106  1.00  0.00     0.003 A 
HETATM   29  C   UNL     1      39.521 -12.686   0.429  1.00  0.00     0.001 A 
HETATM   30  C   UNL     1      39.855 -12.377   1.748  1.00  0.00     0.016 A 
BRANCH  26  31
HETATM   31  O   UNL     1      41.726 -15.505   2.577  1.00  0.00    -0.346 OA
BRANCH  31  32
HETATM   32  C   UNL     1      41.101 -16.417   3.478  1.00  0.00     0.219 C 
BRANCH  32  33
HETATM   33  C   UNL     1      41.956 -16.585   4.707  1.00  0.00     0.026 A 
HETATM   34  C   UNL     1      43.166 -17.291   4.710  1.00  0.00     0.045 A 
HETATM   35 CL   UNL     1      43.793 -18.037   3.284  1.00  0.00    -0.084 Cl
HETATM   36  C   UNL     1      43.907 -17.433   5.891  1.00  0.00     0.024 A 
HETATM   37  C   UNL     1      43.460 -16.856   7.081  1.00  0.00     0.005 A 
HETATM   38  C   UNL     1      42.270 -16.139   7.090  1.00  0.00     0.043 A 
HETATM   39  C   UNL     1      41.533 -16.013   5.913  1.00  0.00     0.126 A 
HETATM   40  F   UNL     1      40.367 -15.350   5.968  1.00  0.00    -0.205 F 
ENDBRANCH  32  33
ENDBRANCH  31  32
ENDBRANCH  26  31
ENDBRANCH  24  25
ENDBRANCH   2  23
TORSDOF 10
ENDMDL
