MODEL 1
REMARK VINA RESULT:     -10.3      0.000      0.000
REMARK  4 active torsions:
REMARK  status: ('A' for Active; 'I' for Inactive)
REMARK    1  A    between atoms: C_9  and  C_10 
REMARK    2  A    between atoms: C_10  and  C_11 
REMARK       I    between atoms: C_11  and  N_12 
REMARK    3  A    between atoms: N_12  and  C_13 
REMARK    4  A    between atoms: C_20  and  C_21 
REMARK       I    between atoms: C_21  and  N_22 
ROOT
HETATM    1  C   UNL     1      40.660 -13.248   0.405  1.00  0.00     0.035 A 
HETATM    2  C   UNL     1      40.117 -13.888  -0.717  1.00  0.00     0.046 A 
HETATM    3  C   UNL     1      38.978 -13.342  -1.347  1.00  0.00     0.030 A 
HETATM    4  C   UNL     1      38.439 -12.160  -0.853  1.00  0.00     0.063 A 
HETATM    5  N   UNL     1      37.372 -11.883  -1.660  1.00  0.00    -0.277 N 
HETATM    6  H   UNL     1      36.746 -11.090  -1.597  1.00  0.00     0.189 HD
HETATM    7  N   UNL     1      37.149 -12.794  -2.621  1.00  0.00    -0.168 NA
HETATM    8  C   UNL     1      38.131 -13.706  -2.438  1.00  0.00     0.156 A 
HETATM    9  C   UNL     1      38.963 -11.489   0.254  1.00  0.00     0.034 A 
HETATM   10  C   UNL     1      40.075 -12.066   0.880  1.00  0.00     0.032 A 
ENDROOT
BRANCH   1  11
HETATM   11  N   UNL     1      41.750 -13.761   1.138  1.00  0.00    -0.327 N 
HETATM   12  C   UNL     1      41.720 -14.303   2.411  1.00  0.00     0.226 C 
HETATM   13  O   UNL     1      40.717 -14.607   3.051  1.00  0.00    -0.273 OA
HETATM   14  H   UNL     1      42.653 -13.711   0.685  1.00  0.00     0.169 HD
BRANCH  12  15
HETATM   15  C   UNL     1      43.109 -14.493   3.005  1.00  0.00     0.141 C 
BRANCH  15  16
HETATM   16  C   UNL     1      43.337 -15.918   3.451  1.00  0.00    -0.049 A 
HETATM   17  C   UNL     1      43.703 -16.186   4.775  1.00  0.00     0.008 A 
HETATM   18  C   UNL     1      43.955 -17.494   5.191  1.00  0.00     0.013 A 
HETATM   19  C   UNL     1      43.841 -18.565   4.294  1.00  0.00    -0.026 A 
HETATM   20  C   UNL     1      44.103 -19.884   4.697  1.00  0.00     0.012 A 
HETATM   21  C   UNL     1      43.457 -18.310   2.958  1.00  0.00    -0.025 A 
HETATM   22  C   UNL     1      43.987 -20.941   3.794  1.00  0.00     0.001 A 
HETATM   23  C   UNL     1      43.605 -20.693   2.480  1.00  0.00     0.001 A 
HETATM   24  C   UNL     1      43.341 -19.387   2.063  1.00  0.00     0.012 A 
HETATM   25  C   UNL     1      43.205 -16.987   2.552  1.00  0.00     0.020 A 
ENDBRANCH  15  16
ENDBRANCH  12  15
ENDBRANCH   1  11
BRANCH   8  26
HETATM   26  C   UNL     1      38.227 -14.903  -3.286  1.00  0.00     0.270 C 
HETATM   27  N   UNL     1      38.332 -16.074  -2.587  1.00  0.00    -0.365 N 
HETATM   28  H   UNL     1      38.357 -16.034  -1.575  1.00  0.00     0.159 HD
HETATM   29  H   UNL     1      38.436 -16.943  -3.086  1.00  0.00     0.159 HD
HETATM   30  O   UNL     1      38.230 -14.894  -4.512  1.00  0.00    -0.266 OA
ENDBRANCH   8  26
TORSDOF 4
ENDMDL
MODEL 2
REMARK VINA RESULT:      -9.6      1.296      1.879
REMARK  4 active torsions:
REMARK  status: ('A' for Active; 'I' for Inactive)
REMARK    1  A    between atoms: C_9  and  C_10 
REMARK    2  A    between atoms: C_10  and  C_11 
REMARK       I    between atoms: C_11  and  N_12 
REMARK    3  A    between atoms: N_12  and  C_13 
REMARK    4  A    between atoms: C_20  and  C_21 
REMARK       I    between atoms: C_21  and  N_22 
ROOT
HETATM    1  C   UNL     1      40.076 -13.016   2.084  1.00  0.00     0.035 A 
HETATM    2  C   UNL     1      40.062 -13.530   0.781  1.00  0.00     0.046 A 
HETATM    3  C   UNL     1      39.142 -13.017  -0.160  1.00  0.00     0.030 A 
HETATM    4  C   UNL     1      38.289 -11.990   0.226  1.00  0.00     0.063 A 
HETATM    5  N   UNL     1      37.539 -11.707  -0.880  1.00  0.00    -0.277 N 
HETATM    6  H   UNL     1      36.814 -11.004  -0.966  1.00  0.00     0.189 HD
HETATM    7  N   UNL     1      37.806 -12.478  -1.947  1.00  0.00    -0.168 NA
HETATM    8  C   UNL     1      38.792 -13.297  -1.516  1.00  0.00     0.156 A 
HETATM    9  C   UNL     1      38.286 -11.445   1.511  1.00  0.00     0.034 A 
HETATM   10  C   UNL     1      39.187 -11.990   2.435  1.00  0.00     0.032 A 
ENDROOT
BRANCH   1  11
HETATM   11  N   UNL     1      40.910 -13.516   3.105  1.00  0.00    -0.327 N 
HETATM   12  C   UNL     1      42.280 -13.354   3.220  1.00  0.00     0.226 C 
HETATM   13  O   UNL     1      42.981 -12.590   2.561  1.00  0.00    -0.273 OA
HETATM   14  H   UNL     1      40.455 -14.067   3.822  1.00  0.00     0.169 HD
BRANCH  12  15
HETATM   15  C   UNL     1      42.895 -14.259   4.278  1.00  0.00     0.141 C 
BRANCH  15  16
HETATM   16  C   UNL     1      43.083 -15.668   3.770  1.00  0.00    -0.049 A 
HETATM   17  C   UNL     1      42.854 -15.962   2.421  1.00  0.00     0.008 A 
HETATM   18  C   UNL     1      42.985 -17.267   1.946  1.00  0.00     0.013 A 
HETATM   19  C   UNL     1      43.354 -18.309   2.808  1.00  0.00    -0.026 A 
HETATM   20  C   UNL     1      43.478 -19.628   2.346  1.00  0.00     0.012 A 
HETATM   21  C   UNL     1      43.603 -18.024   4.170  1.00  0.00    -0.025 A 
HETATM   22  C   UNL     1      43.845 -20.656   3.215  1.00  0.00     0.001 A 
HETATM   23  C   UNL     1      44.095 -20.377   4.555  1.00  0.00     0.001 A 
HETATM   24  C   UNL     1      43.976 -19.070   5.030  1.00  0.00     0.012 A 
HETATM   25  C   UNL     1      43.469 -16.703   4.635  1.00  0.00     0.020 A 
ENDBRANCH  15  16
ENDBRANCH  12  15
ENDBRANCH   1  11
BRANCH   8  26
HETATM   26  C   UNL     1      39.359 -14.332  -2.392  1.00  0.00     0.270 C 
HETATM   27  N   UNL     1      38.594 -15.462  -2.488  1.00  0.00    -0.365 N 
HETATM   28  H   UNL     1      37.735 -15.513  -1.952  1.00  0.00     0.159 HD
HETATM   29  H   UNL     1      38.921 -16.239  -3.040  1.00  0.00     0.159 HD
HETATM   30  O   UNL     1      40.426 -14.237  -2.990  1.00  0.00    -0.266 OA
ENDBRANCH   8  26
TORSDOF 4
ENDMDL
MODEL 3
REMARK VINA RESULT:      -9.5      1.776      2.737
REMARK  4 active torsions:
REMARK  status: ('A' for Active; 'I' for Inactive)
REMARK    1  A    between atoms: C_9  and  C_10 
REMARK    2  A    between atoms: C_10  and  C_11 
REMARK       I    between atoms: C_11  and  N_12 
REMARK    3  A    between atoms: N_12  and  C_13 
REMARK    4  A    between atoms: C_20  and  C_21 
REMARK       I    between atoms: C_21  and  N_22 
ROOT
HETATM    1  C   UNL     1      40.010 -13.867  -0.849  1.00  0.00     0.035 A 
HETATM    2  C   UNL     1      39.305 -12.660  -0.749  1.00  0.00     0.046 A 
HETATM    3  C   UNL     1      38.207 -12.423  -1.605  1.00  0.00     0.030 A 
HETATM    4  C   UNL     1      37.835 -13.410  -2.509  1.00  0.00     0.063 A 
HETATM    5  N   UNL     1      36.758 -12.903  -3.178  1.00  0.00    -0.277 N 
HETATM    6  H   UNL     1      36.222 -13.353  -3.910  1.00  0.00     0.189 HD
HETATM    7  N   UNL     1      36.410 -11.659  -2.810  1.00  0.00    -0.168 NA
HETATM    8  C   UNL     1      37.300 -11.345  -1.841  1.00  0.00     0.156 A 
HETATM    9  C   UNL     1      38.507 -14.629  -2.625  1.00  0.00     0.034 A 
HETATM   10  C   UNL     1      39.610 -14.829  -1.786  1.00  0.00     0.032 A 
ENDROOT
BRANCH   1  11
HETATM   11  N   UNL     1      41.160 -14.157  -0.085  1.00  0.00    -0.327 N 
HETATM   12  C   UNL     1      41.202 -14.594   1.228  1.00  0.00     0.226 C 
HETATM   13  O   UNL     1      40.250 -14.987   1.897  1.00  0.00    -0.273 OA
HETATM   14  H   UNL     1      42.049 -14.014  -0.546  1.00  0.00     0.169 HD
BRANCH  12  15
HETATM   15  C   UNL     1      42.601 -14.534   1.826  1.00  0.00     0.141 C 
BRANCH  15  16
HETATM   16  C   UNL     1      42.929 -15.783   2.609  1.00  0.00    -0.049 A 
HETATM   17  C   UNL     1      43.241 -15.694   3.970  1.00  0.00     0.008 A 
HETATM   18  C   UNL     1      43.585 -16.834   4.697  1.00  0.00     0.013 A 
HETATM   19  C   UNL     1      43.619 -18.092   4.080  1.00  0.00    -0.026 A 
HETATM   20  C   UNL     1      43.975 -19.245   4.796  1.00  0.00     0.012 A 
HETATM   21  C   UNL     1      43.292 -18.199   2.709  1.00  0.00    -0.025 A 
HETATM   22  C   UNL     1      44.007 -20.491   4.171  1.00  0.00     0.001 A 
HETATM   23  C   UNL     1      43.682 -20.600   2.822  1.00  0.00     0.001 A 
HETATM   24  C   UNL     1      43.326 -19.462   2.096  1.00  0.00     0.012 A 
HETATM   25  C   UNL     1      42.946 -17.041   1.989  1.00  0.00     0.020 A 
ENDBRANCH  15  16
ENDBRANCH  12  15
ENDBRANCH   1  11
BRANCH   8  26
HETATM   26  C   UNL     1      37.279 -10.031  -1.183  1.00  0.00     0.270 C 
HETATM   27  N   UNL     1      37.829  -9.026  -1.929  1.00  0.00    -0.365 N 
HETATM   28  H   UNL     1      38.217  -9.252  -2.837  1.00  0.00     0.159 HD
HETATM   29  H   UNL     1      37.889  -8.097  -1.544  1.00  0.00     0.159 HD
HETATM   30  O   UNL     1      36.831  -9.816  -0.062  1.00  0.00    -0.266 OA
ENDBRANCH   8  26
TORSDOF 4
ENDMDL
MODEL 4
REMARK VINA RESULT:      -9.3      5.558      8.572
REMARK  4 active torsions:
REMARK  status: ('A' for Active; 'I' for Inactive)
REMARK    1  A    between atoms: C_9  and  C_10 
REMARK    2  A    between atoms: C_10  and  C_11 
REMARK       I    between atoms: C_11  and  N_12 
REMARK    3  A    between atoms: N_12  and  C_13 
REMARK    4  A    between atoms: C_20  and  C_21 
REMARK       I    between atoms: C_21  and  N_22 
ROOT
HETATM    1  C   UNL     1      44.151 -11.569   6.300  1.00  0.00     0.035 A 
HETATM    2  C   UNL     1      43.303 -10.934   7.218  1.00  0.00     0.046 A 
HETATM    3  C   UNL     1      43.858 -10.269   8.333  1.00  0.00     0.030 A 
HETATM    4  C   UNL     1      45.240 -10.236   8.476  1.00  0.00     0.063 A 
HETATM    5  N   UNL     1      45.469  -9.527   9.621  1.00  0.00    -0.277 N 
HETATM    6  H   UNL     1      46.366  -9.301  10.033  1.00  0.00     0.189 HD
HETATM    7  N   UNL     1      44.358  -9.118  10.255  1.00  0.00    -0.168 NA
HETATM    8  C   UNL     1      43.352  -9.573   9.473  1.00  0.00     0.156 A 
HETATM    9  C   UNL     1      46.114 -10.846   7.574  1.00  0.00     0.034 A 
HETATM   10  C   UNL     1      45.539 -11.525   6.492  1.00  0.00     0.032 A 
ENDROOT
BRANCH   1  11
HETATM   11  N   UNL     1      43.681 -12.316   5.200  1.00  0.00    -0.327 N 
HETATM   12  C   UNL     1      42.806 -13.388   5.231  1.00  0.00     0.226 C 
HETATM   13  O   UNL     1      42.138 -13.757   6.193  1.00  0.00    -0.273 OA
HETATM   14  H   UNL     1      44.037 -12.044   4.293  1.00  0.00     0.169 HD
BRANCH  12  15
HETATM   15  C   UNL     1      42.737 -14.132   3.904  1.00  0.00     0.141 C 
BRANCH  15  16
HETATM   16  C   UNL     1      43.096 -15.591   4.061  1.00  0.00    -0.049 A 
HETATM   17  C   UNL     1      43.719 -16.036   5.232  1.00  0.00     0.008 A 
HETATM   18  C   UNL     1      44.092 -17.373   5.375  1.00  0.00     0.013 A 
HETATM   19  C   UNL     1      43.845 -18.298   4.351  1.00  0.00    -0.026 A 
HETATM   20  C   UNL     1      44.225 -19.643   4.476  1.00  0.00     0.012 A 
HETATM   21  C   UNL     1      43.202 -17.865   3.168  1.00  0.00    -0.025 A 
HETATM   22  C   UNL     1      43.974 -20.553   3.449  1.00  0.00     0.001 A 
HETATM   23  C   UNL     1      43.338 -20.130   2.286  1.00  0.00     0.001 A 
HETATM   24  C   UNL     1      42.954 -18.795   2.146  1.00  0.00     0.012 A 
HETATM   25  C   UNL     1      42.831 -16.514   3.039  1.00  0.00     0.020 A 
ENDBRANCH  15  16
ENDBRANCH  12  15
ENDBRANCH   1  11
BRANCH   8  26
HETATM   26  C   UNL     1      41.945  -9.354   9.837  1.00  0.00     0.270 C 
HETATM   27  N   UNL     1      41.541 -10.051  10.943  1.00  0.00    -0.365 N 
HETATM   28  H   UNL     1      42.207 -10.662  11.401  1.00  0.00     0.159 HD
HETATM   29  H   UNL     1      40.583  -9.989  11.247  1.00  0.00     0.159 HD
HETATM   30  O   UNL     1      41.167  -8.631   9.225  1.00  0.00    -0.266 OA
ENDBRANCH   8  26
TORSDOF 4
ENDMDL
MODEL 5
REMARK VINA RESULT:      -9.1      5.715      8.879
REMARK  4 active torsions:
REMARK  status: ('A' for Active; 'I' for Inactive)
REMARK    1  A    between atoms: C_9  and  C_10 
REMARK    2  A    between atoms: C_10  and  C_11 
REMARK       I    between atoms: C_11  and  N_12 
REMARK    3  A    between atoms: N_12  and  C_13 
REMARK    4  A    between atoms: C_20  and  C_21 
REMARK       I    between atoms: C_21  and  N_22 
ROOT
HETATM    1  C   UNL     1      43.896 -11.503   6.401  1.00  0.00     0.035 A 
HETATM    2  C   UNL     1      43.186 -10.827   7.403  1.00  0.00     0.046 A 
HETATM    3  C   UNL     1      43.893 -10.166   8.430  1.00  0.00     0.030 A 
HETATM    4  C   UNL     1      45.282 -10.177   8.405  1.00  0.00     0.063 A 
HETATM    5  N   UNL     1      45.671  -9.461   9.502  1.00  0.00    -0.277 N 
HETATM    6  H   UNL     1      46.618  -9.258   9.798  1.00  0.00     0.189 HD
HETATM    7  N   UNL     1      44.658  -9.006  10.257  1.00  0.00    -0.168 NA
HETATM    8  C   UNL     1      43.551  -9.438   9.611  1.00  0.00     0.156 A 
HETATM    9  C   UNL     1      46.021 -10.828   7.415  1.00  0.00     0.034 A 
HETATM   10  C   UNL     1      45.298 -11.502   6.423  1.00  0.00     0.032 A 
ENDROOT
BRANCH   1  11
HETATM   11  N   UNL     1      43.273 -12.249   5.379  1.00  0.00    -0.327 N 
HETATM   12  C   UNL     1      43.456 -12.111   4.014  1.00  0.00     0.226 C 
HETATM   13  O   UNL     1      44.329 -11.450   3.458  1.00  0.00    -0.273 OA
HETATM   14  H   UNL     1      42.609 -12.950   5.682  1.00  0.00     0.169 HD
BRANCH  12  15
HETATM   15  C   UNL     1      42.421 -12.875   3.199  1.00  0.00     0.141 C 
BRANCH  15  16
HETATM   16  C   UNL     1      42.803 -14.326   3.030  1.00  0.00    -0.049 A 
HETATM   17  C   UNL     1      42.859 -14.890   1.750  1.00  0.00     0.008 A 
HETATM   18  C   UNL     1      43.171 -16.240   1.581  1.00  0.00     0.013 A 
HETATM   19  C   UNL     1      43.440 -17.056   2.688  1.00  0.00    -0.026 A 
HETATM   20  C   UNL     1      43.744 -18.417   2.534  1.00  0.00     0.012 A 
HETATM   21  C   UNL     1      43.401 -16.496   3.986  1.00  0.00    -0.025 A 
HETATM   22  C   UNL     1      44.008 -19.219   3.644  1.00  0.00     0.001 A 
HETATM   23  C   UNL     1      43.975 -18.670   4.921  1.00  0.00     0.001 A 
HETATM   24  C   UNL     1      43.674 -17.317   5.093  1.00  0.00     0.012 A 
HETATM   25  C   UNL     1      43.086 -15.134   4.141  1.00  0.00     0.020 A 
ENDBRANCH  15  16
ENDBRANCH  12  15
ENDBRANCH   1  11
BRANCH   8  26
HETATM   26  C   UNL     1      42.206  -9.167  10.139  1.00  0.00     0.270 C 
HETATM   27  N   UNL     1      41.748 -10.117  11.010  1.00  0.00    -0.365 N 
HETATM   28  H   UNL     1      42.336 -10.919  11.206  1.00  0.00     0.159 HD
HETATM   29  H   UNL     1      40.822 -10.032  11.397  1.00  0.00     0.159 HD
HETATM   30  O   UNL     1      41.518  -8.198   9.839  1.00  0.00    -0.266 OA
ENDBRANCH   8  26
TORSDOF 4
ENDMDL
MODEL 6
REMARK VINA RESULT:      -9.0      1.618      1.952
REMARK  4 active torsions:
REMARK  status: ('A' for Active; 'I' for Inactive)
REMARK    1  A    between atoms: C_9  and  C_10 
REMARK    2  A    between atoms: C_10  and  C_11 
REMARK       I    between atoms: C_11  and  N_12 
REMARK    3  A    between atoms: N_12  and  C_13 
REMARK    4  A    between atoms: C_20  and  C_21 
REMARK       I    between atoms: C_21  and  N_22 
ROOT
HETATM    1  C   UNL     1      41.897 -12.351   1.803  1.00  0.00     0.035 A 
HETATM    2  C   UNL     1      41.310 -12.944   0.677  1.00  0.00     0.046 A 
HETATM    3  C   UNL     1      40.680 -12.130  -0.290  1.00  0.00     0.030 A 
HETATM    4  C   UNL     1      40.685 -10.752  -0.112  1.00  0.00     0.063 A 
HETATM    5  N   UNL     1      40.020 -10.244  -1.193  1.00  0.00    -0.277 N 
HETATM    6  H   UNL     1      39.837  -9.270  -1.398  1.00  0.00     0.189 HD
HETATM    7  N   UNL     1      39.557 -11.171  -2.047  1.00  0.00    -0.168 NA
HETATM    8  C   UNL     1      39.953 -12.344  -1.500  1.00  0.00     0.156 A 
HETATM    9  C   UNL     1      41.272 -10.127   0.990  1.00  0.00     0.034 A 
HETATM   10  C   UNL     1      41.864 -10.958   1.950  1.00  0.00     0.032 A 
ENDROOT
BRANCH   1  11
HETATM   11  N   UNL     1      42.483 -13.091   2.850  1.00  0.00    -0.327 N 
HETATM   12  C   UNL     1      41.848 -13.604   3.969  1.00  0.00     0.226 C 
HETATM   13  O   UNL     1      40.636 -13.670   4.152  1.00  0.00    -0.273 OA
HETATM   14  H   UNL     1      43.480 -13.249   2.780  1.00  0.00     0.169 HD
BRANCH  12  15
HETATM   15  C   UNL     1      42.824 -14.098   5.027  1.00  0.00     0.141 C 
BRANCH  15  16
HETATM   16  C   UNL     1      43.158 -15.559   4.843  1.00  0.00    -0.049 A 
HETATM   17  C   UNL     1      43.827 -16.257   5.854  1.00  0.00     0.008 A 
HETATM   18  C   UNL     1      44.177 -17.597   5.683  1.00  0.00     0.013 A 
HETATM   19  C   UNL     1      43.859 -18.272   4.496  1.00  0.00    -0.026 A 
HETATM   20  C   UNL     1      44.215 -19.616   4.305  1.00  0.00     0.012 A 
HETATM   21  C   UNL     1      43.170 -17.584   3.472  1.00  0.00    -0.025 A 
HETATM   22  C   UNL     1      43.894 -20.276   3.119  1.00  0.00     0.001 A 
HETATM   23  C   UNL     1      43.213 -19.602   2.111  1.00  0.00     0.001 A 
HETATM   24  C   UNL     1      42.851 -18.265   2.285  1.00  0.00     0.012 A 
HETATM   25  C   UNL     1      42.823 -16.233   3.660  1.00  0.00     0.020 A 
ENDBRANCH  15  16
ENDBRANCH  12  15
ENDBRANCH   1  11
BRANCH   8  26
HETATM   26  C   UNL     1      39.615 -13.629  -2.127  1.00  0.00     0.270 C 
HETATM   27  N   UNL     1      38.640 -14.330  -1.470  1.00  0.00    -0.365 N 
HETATM   28  H   UNL     1      38.251 -13.939  -0.620  1.00  0.00     0.159 HD
HETATM   29  H   UNL     1      38.367 -15.239  -1.809  1.00  0.00     0.159 HD
HETATM   30  O   UNL     1      40.144 -14.077  -3.138  1.00  0.00    -0.266 OA
ENDBRANCH   8  26
TORSDOF 4
ENDMDL
MODEL 7
REMARK VINA RESULT:      -8.6      5.459      8.286
REMARK  4 active torsions:
REMARK  status: ('A' for Active; 'I' for Inactive)
REMARK    1  A    between atoms: C_9  and  C_10 
REMARK    2  A    between atoms: C_10  and  C_11 
REMARK       I    between atoms: C_11  and  N_12 
REMARK    3  A    between atoms: N_12  and  C_13 
REMARK    4  A    between atoms: C_20  and  C_21 
REMARK       I    between atoms: C_21  and  N_22 
ROOT
HETATM    1  C   UNL     1      41.446 -10.873   6.460  1.00  0.00     0.035 A 
HETATM    2  C   UNL     1      42.723 -10.788   7.031  1.00  0.00     0.046 A 
HETATM    3  C   UNL     1      43.174  -9.553   7.545  1.00  0.00     0.030 A 
HETATM    4  C   UNL     1      42.324  -8.455   7.499  1.00  0.00     0.063 A 
HETATM    5  N   UNL     1      43.024  -7.429   8.068  1.00  0.00    -0.277 N 
HETATM    6  H   UNL     1      42.711  -6.476   8.207  1.00  0.00     0.189 HD
HETATM    7  N   UNL     1      44.268  -7.753   8.457  1.00  0.00    -0.168 NA
HETATM    8  C   UNL     1      44.379  -9.062   8.136  1.00  0.00     0.156 A 
HETATM    9  C   UNL     1      41.041  -8.508   6.950  1.00  0.00     0.034 A 
HETATM   10  C   UNL     1      40.627  -9.736   6.420  1.00  0.00     0.032 A 
ENDROOT
BRANCH   1  11
HETATM   11  N   UNL     1      40.943 -12.046   5.859  1.00  0.00    -0.327 N 
HETATM   12  C   UNL     1      41.174 -12.488   4.568  1.00  0.00     0.226 C 
HETATM   13  O   UNL     1      42.006 -12.042   3.782  1.00  0.00    -0.273 OA
HETATM   14  H   UNL     1      40.335 -12.615   6.434  1.00  0.00     0.169 HD
BRANCH  12  15
HETATM   15  C   UNL     1      40.255 -13.632   4.162  1.00  0.00     0.141 C 
BRANCH  15  16
HETATM   16  C   UNL     1      41.033 -14.836   3.690  1.00  0.00    -0.049 A 
HETATM   17  C   UNL     1      40.765 -15.395   2.435  1.00  0.00     0.008 A 
HETATM   18  C   UNL     1      41.449 -16.531   2.002  1.00  0.00     0.013 A 
HETATM   19  C   UNL     1      42.422 -17.132   2.812  1.00  0.00    -0.026 A 
HETATM   20  C   UNL     1      43.110 -18.282   2.394  1.00  0.00     0.012 A 
HETATM   21  C   UNL     1      42.714 -16.570   4.076  1.00  0.00    -0.025 A 
HETATM   22  C   UNL     1      44.075 -18.872   3.210  1.00  0.00     0.001 A 
HETATM   23  C   UNL     1      44.367 -18.318   4.452  1.00  0.00     0.001 A 
HETATM   24  C   UNL     1      43.692 -17.174   4.883  1.00  0.00     0.012 A 
HETATM   25  C   UNL     1      42.017 -15.423   4.499  1.00  0.00     0.020 A 
ENDBRANCH  15  16
ENDBRANCH  12  15
ENDBRANCH   1  11
BRANCH   8  26
HETATM   26  C   UNL     1      45.624  -9.803   8.379  1.00  0.00     0.270 C 
HETATM   27  N   UNL     1      46.717  -9.279   7.745  1.00  0.00    -0.365 N 
HETATM   28  H   UNL     1      46.592  -8.462   7.159  1.00  0.00     0.159 HD
HETATM   29  H   UNL     1      47.609  -9.741   7.827  1.00  0.00     0.159 HD
HETATM   30  O   UNL     1      45.716 -10.813   9.068  1.00  0.00    -0.266 OA
ENDBRANCH   8  26
TORSDOF 4
ENDMDL
MODEL 8
REMARK VINA RESULT:      -8.6      3.384      4.568
REMARK  4 active torsions:
REMARK  status: ('A' for Active; 'I' for Inactive)
REMARK    1  A    between atoms: C_9  and  C_10 
REMARK    2  A    between atoms: C_10  and  C_11 
REMARK       I    between atoms: C_11  and  N_12 
REMARK    3  A    between atoms: N_12  and  C_13 
REMARK    4  A    between atoms: C_20  and  C_21 
REMARK       I    between atoms: C_21  and  N_22 
ROOT
HETATM    1  C   UNL     1      41.066 -13.056   5.485  1.00  0.00     0.035 A 
HETATM    2  C   UNL     1      41.259 -12.544   4.195  1.00  0.00     0.046 A 
HETATM    3  C   UNL     1      40.367 -11.572   3.691  1.00  0.00     0.030 A 
HETATM    4  C   UNL     1      39.333 -11.125   4.504  1.00  0.00     0.063 A 
HETATM    5  N   UNL     1      38.659 -10.200   3.757  1.00  0.00    -0.277 N 
HETATM    6  H   UNL     1      37.846  -9.663   4.034  1.00  0.00     0.189 HD
HETATM    7  N   UNL     1      39.145 -10.024   2.518  1.00  0.00    -0.168 NA
HETATM    8  C   UNL     1      40.200 -10.869   2.459  1.00  0.00     0.156 A 
HETATM    9  C   UNL     1      39.119 -11.604   5.798  1.00  0.00     0.034 A 
HETATM   10  C   UNL     1      39.999 -12.589   6.264  1.00  0.00     0.032 A 
ENDROOT
BRANCH   1  11
HETATM   11  N   UNL     1      41.864 -14.078   6.040  1.00  0.00    -0.327 N 
HETATM   12  C   UNL     1      43.239 -14.072   6.197  1.00  0.00     0.226 C 
HETATM   13  O   UNL     1      43.984 -13.106   6.059  1.00  0.00    -0.273 OA
HETATM   14  H   UNL     1      41.374 -14.911   6.340  1.00  0.00     0.169 HD
BRANCH  12  15
HETATM   15  C   UNL     1      43.797 -15.440   6.564  1.00  0.00     0.141 C 
BRANCH  15  16
HETATM   16  C   UNL     1      43.716 -16.407   5.407  1.00  0.00    -0.049 A 
HETATM   17  C   UNL     1      43.367 -15.946   4.133  1.00  0.00     0.008 A 
HETATM   18  C   UNL     1      43.249 -16.834   3.063  1.00  0.00     0.013 A 
HETATM   19  C   UNL     1      43.483 -18.204   3.242  1.00  0.00    -0.026 A 
HETATM   20  C   UNL     1      43.356 -19.110   2.177  1.00  0.00     0.012 A 
HETATM   21  C   UNL     1      43.850 -18.682   4.520  1.00  0.00    -0.025 A 
HETATM   22  C   UNL     1      43.591 -20.472   2.368  1.00  0.00     0.001 A 
HETATM   23  C   UNL     1      43.956 -20.944   3.625  1.00  0.00     0.001 A 
HETATM   24  C   UNL     1      44.086 -20.056   4.694  1.00  0.00     0.012 A 
HETATM   25  C   UNL     1      43.967 -17.775   5.590  1.00  0.00     0.020 A 
ENDBRANCH  15  16
ENDBRANCH  12  15
ENDBRANCH   1  11
BRANCH   8  26
HETATM   26  C   UNL     1      41.004 -11.000   1.236  1.00  0.00     0.270 C 
HETATM   27  N   UNL     1      40.583 -11.996   0.398  1.00  0.00    -0.365 N 
HETATM   28  H   UNL     1      39.792 -12.564   0.678  1.00  0.00     0.159 HD
HETATM   29  H   UNL     1      41.095 -12.182  -0.450  1.00  0.00     0.159 HD
HETATM   30  O   UNL     1      41.979 -10.310   0.961  1.00  0.00    -0.266 OA
ENDBRANCH   8  26
TORSDOF 4
ENDMDL
MODEL 9
REMARK VINA RESULT:      -8.1      6.128      8.862
REMARK  4 active torsions:
REMARK  status: ('A' for Active; 'I' for Inactive)
REMARK    1  A    between atoms: C_9  and  C_10 
REMARK    2  A    between atoms: C_10  and  C_11 
REMARK       I    between atoms: C_11  and  N_12 
REMARK    3  A    between atoms: N_12  and  C_13 
REMARK    4  A    between atoms: C_20  and  C_21 
REMARK       I    between atoms: C_21  and  N_22 
ROOT
HETATM    1  C   UNL     1      42.332 -10.272   6.528  1.00  0.00     0.035 A 
HETATM    2  C   UNL     1      42.846 -10.522   7.808  1.00  0.00     0.046 A 
HETATM    3  C   UNL     1      42.982  -9.455   8.723  1.00  0.00     0.030 A 
HETATM    4  C   UNL     1      42.573  -8.184   8.339  1.00  0.00     0.063 A 
HETATM    5  N   UNL     1      42.817  -7.383   9.418  1.00  0.00    -0.277 N 
HETATM    6  H   UNL     1      42.636  -6.390   9.497  1.00  0.00     0.189 HD
HETATM    7  N   UNL     1      43.376  -8.012  10.464  1.00  0.00    -0.168 NA
HETATM    8  C   UNL     1      43.490  -9.295  10.048  1.00  0.00     0.156 A 
HETATM    9  C   UNL     1      42.044  -7.903   7.077  1.00  0.00     0.034 A 
HETATM   10  C   UNL     1      41.946  -8.972   6.177  1.00  0.00     0.032 A 
ENDROOT
BRANCH   1  11
HETATM   11  N   UNL     1      42.228 -11.262   5.529  1.00  0.00    -0.327 N 
HETATM   12  C   UNL     1      43.173 -11.584   4.570  1.00  0.00     0.226 C 
HETATM   13  O   UNL     1      44.339 -11.200   4.538  1.00  0.00    -0.273 OA
HETATM   14  H   UNL     1      41.359 -11.781   5.505  1.00  0.00     0.169 HD
BRANCH  12  15
HETATM   15  C   UNL     1      42.624 -12.497   3.482  1.00  0.00     0.141 C 
BRANCH  15  16
HETATM   16  C   UNL     1      42.882 -13.952   3.788  1.00  0.00    -0.049 A 
HETATM   17  C   UNL     1      43.140 -14.356   5.103  1.00  0.00     0.008 A 
HETATM   18  C   UNL     1      43.420 -15.691   5.395  1.00  0.00     0.013 A 
HETATM   19  C   UNL     1      43.443 -16.656   4.378  1.00  0.00    -0.026 A 
HETATM   20  C   UNL     1      43.734 -18.001   4.655  1.00  0.00     0.012 A 
HETATM   21  C   UNL     1      43.170 -16.265   3.047  1.00  0.00    -0.025 A 
HETATM   22  C   UNL     1      43.756 -18.951   3.634  1.00  0.00     0.001 A 
HETATM   23  C   UNL     1      43.484 -18.569   2.325  1.00  0.00     0.001 A 
HETATM   24  C   UNL     1      43.192 -17.235   2.032  1.00  0.00     0.012 A 
HETATM   25  C   UNL     1      42.888 -14.915   2.768  1.00  0.00     0.020 A 
ENDBRANCH  15  16
ENDBRANCH  12  15
ENDBRANCH   1  11
BRANCH   8  26
HETATM   26  C   UNL     1      44.092 -10.324  10.908  1.00  0.00     0.270 C 
HETATM   27  N   UNL     1      43.266 -10.774  11.901  1.00  0.00    -0.365 N 
HETATM   28  H   UNL     1      42.341 -10.367  11.984  1.00  0.00     0.159 HD
HETATM   29  H   UNL     1      43.605 -11.455  12.560  1.00  0.00     0.159 HD
HETATM   30  O   UNL     1      45.233 -10.756  10.789  1.00  0.00    -0.266 OA
ENDBRANCH   8  26
TORSDOF 4
ENDMDL
MODEL 10
REMARK VINA RESULT:      -8.1      3.428      8.481
REMARK  4 active torsions:
REMARK  status: ('A' for Active; 'I' for Inactive)
REMARK    1  A    between atoms: C_9  and  C_10 
REMARK    2  A    between atoms: C_10  and  C_11 
REMARK       I    between atoms: C_11  and  N_12 
REMARK    3  A    between atoms: N_12  and  C_13 
REMARK    4  A    between atoms: C_20  and  C_21 
REMARK       I    between atoms: C_21  and  N_22 
ROOT
HETATM    1  C   UNL     1      42.625 -14.818   4.730  1.00  0.00     0.035 A 
HETATM    2  C   UNL     1      43.034 -16.087   4.299  1.00  0.00     0.046 A 
HETATM    3  C   UNL     1      43.218 -17.118   5.246  1.00  0.00     0.030 A 
HETATM    4  C   UNL     1      42.959 -16.853   6.585  1.00  0.00     0.063 A 
HETATM    5  N   UNL     1      43.214 -18.024   7.243  1.00  0.00    -0.277 N 
HETATM    6  H   UNL     1      43.126 -18.201   8.236  1.00  0.00     0.189 HD
HETATM    7  N   UNL     1      43.645 -19.022   6.455  1.00  0.00    -0.168 NA
HETATM    8  C   UNL     1      43.657 -18.477   5.216  1.00  0.00     0.156 A 
HETATM    9  C   UNL     1      42.536 -15.605   7.047  1.00  0.00     0.034 A 
HETATM   10  C   UNL     1      42.389 -14.591   6.093  1.00  0.00     0.032 A 
ENDROOT
BRANCH   1  11
HETATM   11  N   UNL     1      42.485 -13.714   3.864  1.00  0.00    -0.327 N 
HETATM   12  C   UNL     1      41.323 -13.269   3.258  1.00  0.00     0.226 C 
HETATM   13  O   UNL     1      40.179 -13.636   3.516  1.00  0.00    -0.273 OA
HETATM   14  H   UNL     1      43.333 -13.204   3.653  1.00  0.00     0.169 HD
BRANCH  12  15
HETATM   15  C   UNL     1      41.582 -12.234   2.171  1.00  0.00     0.141 C 
BRANCH  15  16
HETATM   16  C   UNL     1      40.576 -12.337   1.050  1.00  0.00    -0.049 A 
HETATM   17  C   UNL     1      39.609 -11.339   0.884  1.00  0.00     0.008 A 
HETATM   18  C   UNL     1      38.649 -11.440  -0.123  1.00  0.00     0.013 A 
HETATM   19  C   UNL     1      38.637 -12.540  -0.993  1.00  0.00    -0.026 A 
HETATM   20  C   UNL     1      37.670 -12.661  -2.002  1.00  0.00     0.012 A 
HETATM   21  C   UNL     1      39.617 -13.548  -0.846  1.00  0.00    -0.025 A 
HETATM   22  C   UNL     1      37.668 -13.760  -2.860  1.00  0.00     0.001 A 
HETATM   23  C   UNL     1      38.634 -14.751  -2.721  1.00  0.00     0.001 A 
HETATM   24  C   UNL     1      39.603 -14.647  -1.721  1.00  0.00     0.012 A 
HETATM   25  C   UNL     1      40.580 -13.432   0.173  1.00  0.00     0.020 A 
ENDBRANCH  15  16
ENDBRANCH  12  15
ENDBRANCH   1  11
BRANCH   8  26
HETATM   26  C   UNL     1      44.103 -19.249   4.048  1.00  0.00     0.270 C 
HETATM   27  N   UNL     1      44.056 -20.605   4.226  1.00  0.00    -0.365 N 
HETATM   28  H   UNL     1      43.750 -20.966   5.122  1.00  0.00     0.159 HD
HETATM   29  H   UNL     1      44.375 -21.214   3.490  1.00  0.00     0.159 HD
HETATM   30  O   UNL     1      44.502 -18.762   2.997  1.00  0.00    -0.266 OA
ENDBRANCH   8  26
TORSDOF 4
ENDMDL
