MODEL 1
REMARK VINA RESULT:      -9.0      0.000      0.000
REMARK  5 active torsions:
REMARK  status: ('A' for Active; 'I' for Inactive)
REMARK    1  A    between atoms: C_11  and  C_12 
REMARK    2  A    between atoms: C_12  and  S_13 
REMARK    3  A    between atoms: S_13  and  C_14 
REMARK    4  A    between atoms: C_16  and  N_17 
REMARK    5  A    between atoms: N_17  and  C_18 
ROOT
HETATM    1  C   UNL     1      39.789 -13.220   3.577  1.00  0.00     0.121 C 
ENDROOT
BRANCH   1   2
HETATM    2  C   UNL     1      40.725 -12.177   4.139  1.00  0.00    -0.029 A 
HETATM    3  C   UNL     1      41.736 -12.563   5.190  1.00  0.00     0.016 A 
HETATM    4  C   UNL     1      41.929 -13.866   5.815  1.00  0.00    -0.012 A 
HETATM    5  C   UNL     1      42.596 -11.525   5.607  1.00  0.00     0.091 A 
HETATM    6  C   UNL     1      42.979 -14.010   6.779  1.00  0.00    -0.025 A 
HETATM    7  C   UNL     1      41.187 -15.067   5.595  1.00  0.00     0.013 A 
HETATM    8  C   UNL     1      43.238 -15.234   7.421  1.00  0.00     0.012 A 
HETATM    9  C   UNL     1      43.794 -12.933   7.128  1.00  0.00     0.015 A 
HETATM   10  C   UNL     1      42.485 -16.367   7.155  1.00  0.00     0.001 A 
HETATM   11  C   UNL     1      41.455 -16.283   6.241  1.00  0.00     0.001 A 
HETATM   12  C   UNL     1      43.605 -11.692   6.551  1.00  0.00     0.039 A 
HETATM   13  O   UNL     1      42.523 -10.206   5.117  1.00  0.00    -0.275 OA
HETATM   14  C   UNL     1      41.583  -9.835   4.191  1.00  0.00     0.288 A 
HETATM   15  O   UNL     1      41.486  -8.692   3.764  1.00  0.00    -0.260 OA
HETATM   16  C   UNL     1      40.696 -10.898   3.720  1.00  0.00     0.091 A 
ENDBRANCH   1   2
BRANCH   1  17
HETATM   17  S   UNL     1      39.920 -13.638   1.812  1.00  0.00    -0.096 SA
BRANCH  17  18
HETATM   18  C   UNL     1      41.315 -14.696   1.874  1.00  0.00     0.160 A 
HETATM   19  S   UNL     1      41.205 -16.399   1.938  1.00  0.00    -0.022 SA
HETATM   20  C   UNL     1      42.936 -16.448   1.922  1.00  0.00     0.195 A 
HETATM   21  N   UNL     1      43.475 -15.246   1.892  1.00  0.00    -0.123 NA
HETATM   22  N   UNL     1      42.544 -14.233   1.865  1.00  0.00    -0.133 NA
BRANCH  20  23
HETATM   23  N   UNL     1      43.566 -17.645   1.939  1.00  0.00    -0.331 N 
HETATM   24  H   UNL     1      44.048 -17.940   1.094  1.00  0.00     0.168 HD
BRANCH  23  25
HETATM   25  C   UNL     1      43.715 -18.563   3.000  1.00  0.00     0.073 A 
HETATM   26  C   UNL     1      43.701 -19.936   2.697  1.00  0.00     0.143 A 
HETATM   27  F   UNL     1      43.550 -20.319   1.419  1.00  0.00    -0.204 F 
HETATM   28  C   UNL     1      43.841 -20.918   3.677  1.00  0.00     0.044 A 
HETATM   29  C   UNL     1      44.001 -20.539   5.005  1.00  0.00     0.003 A 
HETATM   30  C   UNL     1      44.017 -19.185   5.337  1.00  0.00     0.002 A 
HETATM   31  C   UNL     1      43.874 -18.206   4.343  1.00  0.00     0.033 A 
ENDBRANCH  23  25
ENDBRANCH  20  23
ENDBRANCH  17  18
ENDBRANCH   1  17
TORSDOF 5
ENDMDL
MODEL 2
REMARK VINA RESULT:      -8.7      3.699      7.546
REMARK  5 active torsions:
REMARK  status: ('A' for Active; 'I' for Inactive)
REMARK    1  A    between atoms: C_11  and  C_12 
REMARK    2  A    between atoms: C_12  and  S_13 
REMARK    3  A    between atoms: S_13  and  C_14 
REMARK    4  A    between atoms: C_16  and  N_17 
REMARK    5  A    between atoms: N_17  and  C_18 
ROOT
HETATM    1  C   UNL     1      43.230 -15.390   3.783  1.00  0.00     0.121 C 
ENDROOT
BRANCH   1   2
HETATM    2  C   UNL     1      43.283 -16.109   5.110  1.00  0.00    -0.029 A 
HETATM    3  C   UNL     1      43.447 -17.609   5.147  1.00  0.00     0.016 A 
HETATM    4  C   UNL     1      43.523 -18.531   4.020  1.00  0.00    -0.012 A 
HETATM    5  C   UNL     1      43.540 -18.172   6.437  1.00  0.00     0.091 A 
HETATM    6  C   UNL     1      43.708 -19.925   4.295  1.00  0.00    -0.025 A 
HETATM    7  C   UNL     1      43.432 -18.230   2.627  1.00  0.00     0.013 A 
HETATM    8  C   UNL     1      43.801 -20.880   3.266  1.00  0.00     0.012 A 
HETATM    9  C   UNL     1      43.801 -20.400   5.603  1.00  0.00     0.015 A 
HETATM   10  C   UNL     1      43.715 -20.520   1.930  1.00  0.00     0.001 A 
HETATM   11  C   UNL     1      43.527 -19.191   1.609  1.00  0.00     0.001 A 
HETATM   12  C   UNL     1      43.713 -19.532   6.673  1.00  0.00     0.039 A 
HETATM   13  O   UNL     1      43.460 -17.419   7.625  1.00  0.00    -0.275 OA
HETATM   14  C   UNL     1      43.273 -16.062   7.604  1.00  0.00     0.288 A 
HETATM   15  O   UNL     1      43.181 -15.388   8.622  1.00  0.00    -0.260 OA
HETATM   16  C   UNL     1      43.201 -15.446   6.279  1.00  0.00     0.091 A 
ENDBRANCH   1   2
BRANCH   1  17
HETATM   17  S   UNL     1      41.698 -14.519   3.333  1.00  0.00    -0.096 SA
BRANCH  17  18
HETATM   18  C   UNL     1      41.791 -13.181   4.459  1.00  0.00     0.160 A 
HETATM   19  S   UNL     1      43.142 -12.142   4.580  1.00  0.00    -0.022 SA
HETATM   20  C   UNL     1      42.278 -11.265   5.799  1.00  0.00     0.195 A 
HETATM   21  N   UNL     1      41.093 -11.785   6.051  1.00  0.00    -0.123 NA
HETATM   22  N   UNL     1      40.809 -12.890   5.281  1.00  0.00    -0.133 NA
BRANCH  20  23
HETATM   23  N   UNL     1      42.850 -10.178   6.364  1.00  0.00    -0.331 N 
HETATM   24  H   UNL     1      42.755  -9.287   5.885  1.00  0.00     0.168 HD
BRANCH  23  25
HETATM   25  C   UNL     1      43.537 -10.065   7.592  1.00  0.00     0.073 A 
HETATM   26  C   UNL     1      44.913 -10.357   7.612  1.00  0.00     0.143 A 
HETATM   27  F   UNL     1      45.516 -10.727   6.470  1.00  0.00    -0.204 F 
HETATM   28  C   UNL     1      45.676 -10.275   8.775  1.00  0.00     0.044 A 
HETATM   29  C   UNL     1      45.068  -9.891   9.965  1.00  0.00     0.003 A 
HETATM   30  C   UNL     1      43.705  -9.597   9.977  1.00  0.00     0.002 A 
HETATM   31  C   UNL     1      42.947  -9.685   8.801  1.00  0.00     0.033 A 
ENDBRANCH  23  25
ENDBRANCH  20  23
ENDBRANCH  17  18
ENDBRANCH   1  17
TORSDOF 5
ENDMDL
MODEL 3
REMARK VINA RESULT:      -8.7      5.675      8.653
REMARK  5 active torsions:
REMARK  status: ('A' for Active; 'I' for Inactive)
REMARK    1  A    between atoms: C_11  and  C_12 
REMARK    2  A    between atoms: C_12  and  S_13 
REMARK    3  A    between atoms: S_13  and  C_14 
REMARK    4  A    between atoms: C_16  and  N_17 
REMARK    5  A    between atoms: N_17  and  C_18 
ROOT
HETATM    1  C   UNL     1      43.107 -12.739   5.785  1.00  0.00     0.121 C 
ENDROOT
BRANCH   1   2
HETATM    2  C   UNL     1      42.785 -12.882   4.317  1.00  0.00    -0.029 A 
HETATM    3  C   UNL     1      42.874 -14.236   3.656  1.00  0.00     0.016 A 
HETATM    4  C   UNL     1      43.292 -15.500   4.252  1.00  0.00    -0.012 A 
HETATM    5  C   UNL     1      42.499 -14.268   2.296  1.00  0.00     0.091 A 
HETATM    6  C   UNL     1      43.272 -16.677   3.434  1.00  0.00    -0.025 A 
HETATM    7  C   UNL     1      43.739 -15.740   5.587  1.00  0.00     0.013 A 
HETATM    8  C   UNL     1      43.651 -17.936   3.932  1.00  0.00     0.012 A 
HETATM    9  C   UNL     1      42.877 -16.622   2.097  1.00  0.00     0.015 A 
HETATM   10  C   UNL     1      44.067 -18.103   5.244  1.00  0.00     0.001 A 
HETATM   11  C   UNL     1      44.114 -17.001   6.073  1.00  0.00     0.001 A 
HETATM   12  C   UNL     1      42.496 -15.425   1.525  1.00  0.00     0.039 A 
HETATM   13  O   UNL     1      42.095 -13.129   1.571  1.00  0.00    -0.275 OA
HETATM   14  C   UNL     1      42.048 -11.888   2.151  1.00  0.00     0.288 A 
HETATM   15  O   UNL     1      41.719 -10.881   1.538  1.00  0.00    -0.260 OA
HETATM   16  C   UNL     1      42.404 -11.830   3.568  1.00  0.00     0.091 A 
ENDBRANCH   1   2
BRANCH   1  17
HETATM   17  S   UNL     1      44.687 -11.970   6.253  1.00  0.00    -0.096 SA
BRANCH  17  18
HETATM   18  C   UNL     1      44.173 -11.119   7.695  1.00  0.00     0.160 A 
HETATM   19  S   UNL     1      42.843 -10.047   7.733  1.00  0.00    -0.022 SA
HETATM   20  C   UNL     1      43.148  -9.831   9.424  1.00  0.00     0.195 A 
HETATM   21  N   UNL     1      44.189 -10.522   9.842  1.00  0.00    -0.123 NA
HETATM   22  N   UNL     1      44.784 -11.266   8.848  1.00  0.00    -0.133 NA
BRANCH  20  23
HETATM   23  N   UNL     1      42.341  -9.019  10.145  1.00  0.00    -0.331 N 
HETATM   24  H   UNL     1      41.615  -8.509   9.650  1.00  0.00     0.168 HD
BRANCH  23  25
HETATM   25  C   UNL     1      42.307  -8.800  11.538  1.00  0.00     0.073 A 
HETATM   26  C   UNL     1      41.300  -9.436  12.287  1.00  0.00     0.143 A 
HETATM   27  F   UNL     1      40.417 -10.224  11.651  1.00  0.00    -0.204 F 
HETATM   28  C   UNL     1      41.185  -9.281  13.667  1.00  0.00     0.044 A 
HETATM   29  C   UNL     1      42.093  -8.471  14.341  1.00  0.00     0.003 A 
HETATM   30  C   UNL     1      43.101  -7.825  13.626  1.00  0.00     0.002 A 
HETATM   31  C   UNL     1      43.205  -7.987  12.238  1.00  0.00     0.033 A 
ENDBRANCH  23  25
ENDBRANCH  20  23
ENDBRANCH  17  18
ENDBRANCH   1  17
TORSDOF 5
ENDMDL
MODEL 4
REMARK VINA RESULT:      -8.6      4.700      7.774
REMARK  5 active torsions:
REMARK  status: ('A' for Active; 'I' for Inactive)
REMARK    1  A    between atoms: C_11  and  C_12 
REMARK    2  A    between atoms: C_12  and  S_13 
REMARK    3  A    between atoms: S_13  and  C_14 
REMARK    4  A    between atoms: C_16  and  N_17 
REMARK    5  A    between atoms: N_17  and  C_18 
ROOT
HETATM    1  C   UNL     1      41.534 -12.506   3.934  1.00  0.00     0.121 C 
ENDROOT
BRANCH   1   2
HETATM    2  C   UNL     1      41.412 -13.607   2.908  1.00  0.00    -0.029 A 
HETATM    3  C   UNL     1      42.063 -14.945   3.159  1.00  0.00     0.016 A 
HETATM    4  C   UNL     1      42.880 -15.346   4.299  1.00  0.00    -0.012 A 
HETATM    5  C   UNL     1      41.842 -15.918   2.162  1.00  0.00     0.091 A 
HETATM    6  C   UNL     1      43.377 -16.689   4.340  1.00  0.00    -0.025 A 
HETATM    7  C   UNL     1      43.274 -14.556   5.422  1.00  0.00     0.013 A 
HETATM    8  C   UNL     1      44.164 -17.160   5.406  1.00  0.00     0.012 A 
HETATM    9  C   UNL     1      43.102 -17.594   3.315  1.00  0.00     0.015 A 
HETATM   10  C   UNL     1      44.503 -16.343   6.474  1.00  0.00     0.001 A 
HETATM   11  C   UNL     1      44.059 -15.036   6.481  1.00  0.00     0.001 A 
HETATM   12  C   UNL     1      42.342 -17.215   2.226  1.00  0.00     0.039 A 
HETATM   13  O   UNL     1      41.095 -15.680   0.991  1.00  0.00    -0.275 OA
HETATM   14  C   UNL     1      40.532 -14.458   0.734  1.00  0.00     0.288 A 
HETATM   15  O   UNL     1      39.896 -14.220  -0.285  1.00  0.00    -0.260 OA
HETATM   16  C   UNL     1      40.722 -13.437   1.764  1.00  0.00     0.091 A 
ENDBRANCH   1   2
BRANCH   1  17
HETATM   17  S   UNL     1      42.768 -11.200   3.659  1.00  0.00    -0.096 SA
BRANCH  17  18
HETATM   18  C   UNL     1      43.469 -11.128   5.262  1.00  0.00     0.160 A 
HETATM   19  S   UNL     1      42.542 -11.003   6.692  1.00  0.00    -0.022 SA
HETATM   20  C   UNL     1      44.027 -11.051   7.583  1.00  0.00     0.195 A 
HETATM   21  N   UNL     1      45.083 -11.134   6.799  1.00  0.00    -0.123 NA
HETATM   22  N   UNL     1      44.766 -11.177   5.461  1.00  0.00    -0.133 NA
BRANCH  20  23
HETATM   23  N   UNL     1      43.991 -11.005   8.934  1.00  0.00    -0.331 N 
HETATM   24  H   UNL     1      44.258 -11.842   9.445  1.00  0.00     0.168 HD
BRANCH  23  25
HETATM   25  C   UNL     1      43.685  -9.922   9.784  1.00  0.00     0.073 A 
HETATM   26  C   UNL     1      43.549 -10.176  11.161  1.00  0.00     0.143 A 
HETATM   27  F   UNL     1      43.716 -11.431  11.611  1.00  0.00    -0.204 F 
HETATM   28  C   UNL     1      43.248  -9.172  12.079  1.00  0.00     0.044 A 
HETATM   29  C   UNL     1      43.073  -7.867  11.631  1.00  0.00     0.003 A 
HETATM   30  C   UNL     1      43.200  -7.584  10.272  1.00  0.00     0.002 A 
HETATM   31  C   UNL     1      43.501  -8.603   9.357  1.00  0.00     0.033 A 
ENDBRANCH  23  25
ENDBRANCH  20  23
ENDBRANCH  17  18
ENDBRANCH   1  17
TORSDOF 5
ENDMDL
MODEL 5
REMARK VINA RESULT:      -8.5      4.344      7.448
REMARK  5 active torsions:
REMARK  status: ('A' for Active; 'I' for Inactive)
REMARK    1  A    between atoms: C_11  and  C_12 
REMARK    2  A    between atoms: C_12  and  S_13 
REMARK    3  A    between atoms: S_13  and  C_14 
REMARK    4  A    between atoms: C_16  and  N_17 
REMARK    5  A    between atoms: N_17  and  C_18 
ROOT
HETATM    1  C   UNL     1      41.998 -15.155   1.512  1.00  0.00     0.121 C 
ENDROOT
BRANCH   1   2
HETATM    2  C   UNL     1      42.421 -14.831   2.925  1.00  0.00    -0.029 A 
HETATM    3  C   UNL     1      43.025 -15.907   3.793  1.00  0.00     0.016 A 
HETATM    4  C   UNL     1      43.235 -17.313   3.466  1.00  0.00    -0.012 A 
HETATM    5  C   UNL     1      43.435 -15.485   5.075  1.00  0.00     0.091 A 
HETATM    6  C   UNL     1      43.856 -18.153   4.446  1.00  0.00    -0.025 A 
HETATM    7  C   UNL     1      42.892 -17.998   2.260  1.00  0.00     0.013 A 
HETATM    8  C   UNL     1      44.104 -19.517   4.207  1.00  0.00     0.012 A 
HETATM    9  C   UNL     1      44.242 -17.653   5.689  1.00  0.00     0.015 A 
HETATM   10  C   UNL     1      43.755 -20.120   3.009  1.00  0.00     0.001 A 
HETATM   11  C   UNL     1      43.145 -19.359   2.033  1.00  0.00     0.001 A 
HETATM   12  C   UNL     1      44.031 -16.326   6.010  1.00  0.00     0.039 A 
HETATM   13  O   UNL     1      43.279 -14.168   5.551  1.00  0.00    -0.275 OA
HETATM   14  C   UNL     1      42.697 -13.192   4.785  1.00  0.00     0.288 A 
HETATM   15  O   UNL     1      42.533 -12.046   5.181  1.00  0.00    -0.260 OA
HETATM   16  C   UNL     1      42.288 -13.594   3.439  1.00  0.00     0.091 A 
ENDBRANCH   1   2
BRANCH   1  17
HETATM   17  S   UNL     1      40.220 -15.259   1.144  1.00  0.00    -0.096 SA
BRANCH  17  18
HETATM   18  C   UNL     1      40.067 -13.872   0.084  1.00  0.00     0.160 A 
HETATM   19  S   UNL     1      39.923 -12.266   0.648  1.00  0.00    -0.022 SA
HETATM   20  C   UNL     1      39.888 -11.756  -1.007  1.00  0.00     0.195 A 
HETATM   21  N   UNL     1      39.962 -12.767  -1.848  1.00  0.00    -0.123 NA
HETATM   22  N   UNL     1      40.065 -13.989  -1.224  1.00  0.00    -0.133 NA
BRANCH  20  23
HETATM   23  N   UNL     1      39.796 -10.437  -1.292  1.00  0.00    -0.331 N 
HETATM   24  H   UNL     1      38.896  -9.984  -1.160  1.00  0.00     0.168 HD
BRANCH  23  25
HETATM   25  C   UNL     1      40.802  -9.540  -1.708  1.00  0.00     0.073 A 
HETATM   26  C   UNL     1      40.767  -9.070  -3.033  1.00  0.00     0.143 A 
HETATM   27  F   UNL     1      39.782  -9.487  -3.846  1.00  0.00    -0.204 F 
HETATM   28  C   UNL     1      41.716  -8.182  -3.536  1.00  0.00     0.044 A 
HETATM   29  C   UNL     1      42.741  -7.737  -2.707  1.00  0.00     0.003 A 
HETATM   30  C   UNL     1      42.804  -8.187  -1.389  1.00  0.00     0.002 A 
HETATM   31  C   UNL     1      41.844  -9.081  -0.895  1.00  0.00     0.033 A 
ENDBRANCH  23  25
ENDBRANCH  20  23
ENDBRANCH  17  18
ENDBRANCH   1  17
TORSDOF 5
ENDMDL
MODEL 6
REMARK VINA RESULT:      -8.2      3.632      4.733
REMARK  5 active torsions:
REMARK  status: ('A' for Active; 'I' for Inactive)
REMARK    1  A    between atoms: C_11  and  C_12 
REMARK    2  A    between atoms: C_12  and  S_13 
REMARK    3  A    between atoms: S_13  and  C_14 
REMARK    4  A    between atoms: C_16  and  N_17 
REMARK    5  A    between atoms: N_17  and  C_18 
ROOT
HETATM    1  C   UNL     1      40.832 -10.639   6.267  1.00  0.00     0.121 C 
ENDROOT
BRANCH   1   2
HETATM    2  C   UNL     1      40.750  -9.842   7.547  1.00  0.00    -0.029 A 
HETATM    3  C   UNL     1      42.009  -9.527   8.318  1.00  0.00     0.016 A 
HETATM    4  C   UNL     1      43.375  -9.938   8.014  1.00  0.00    -0.012 A 
HETATM    5  C   UNL     1      41.826  -8.732   9.468  1.00  0.00     0.091 A 
HETATM    6  C   UNL     1      44.426  -9.494   8.880  1.00  0.00    -0.025 A 
HETATM    7  C   UNL     1      43.829 -10.757   6.935  1.00  0.00     0.013 A 
HETATM    8  C   UNL     1      45.771  -9.838   8.654  1.00  0.00     0.012 A 
HETATM    9  C   UNL     1      44.160  -8.699   9.994  1.00  0.00     0.015 A 
HETATM   10  C   UNL     1      46.148 -10.629   7.579  1.00  0.00     0.001 A 
HETATM   11  C   UNL     1      45.174 -11.093   6.719  1.00  0.00     0.001 A 
HETATM   12  C   UNL     1      42.866  -8.320  10.294  1.00  0.00     0.039 A 
HETATM   13  O   UNL     1      40.567  -8.274   9.909  1.00  0.00    -0.275 OA
HETATM   14  C   UNL     1      39.414  -8.587   9.238  1.00  0.00     0.288 A 
HETATM   15  O   UNL     1      38.308  -8.218   9.611  1.00  0.00    -0.260 OA
HETATM   16  C   UNL     1      39.577  -9.387   8.025  1.00  0.00     0.091 A 
ENDBRANCH   1   2
BRANCH   1  17
HETATM   17  S   UNL     1      39.499 -11.818   5.895  1.00  0.00    -0.096 SA
BRANCH  17  18
HETATM   18  C   UNL     1      40.426 -13.305   5.897  1.00  0.00     0.160 A 
HETATM   19  S   UNL     1      41.974 -13.451   5.192  1.00  0.00    -0.022 SA
HETATM   20  C   UNL     1      41.995 -15.097   5.732  1.00  0.00     0.195 A 
HETATM   21  N   UNL     1      40.887 -15.436   6.361  1.00  0.00    -0.123 NA
HETATM   22  N   UNL     1      39.979 -14.406   6.458  1.00  0.00    -0.133 NA
BRANCH  20  23
HETATM   23  N   UNL     1      43.081 -15.863   5.484  1.00  0.00    -0.331 N 
HETATM   24  H   UNL     1      43.889 -15.753   6.090  1.00  0.00     0.168 HD
BRANCH  23  25
HETATM   25  C   UNL     1      43.261 -16.872   4.514  1.00  0.00     0.073 A 
HETATM   26  C   UNL     1      43.778 -18.112   4.933  1.00  0.00     0.143 A 
HETATM   27  F   UNL     1      44.076 -18.287   6.231  1.00  0.00    -0.204 F 
HETATM   28  C   UNL     1      43.992 -19.168   4.050  1.00  0.00     0.044 A 
HETATM   29  C   UNL     1      43.687 -19.004   2.703  1.00  0.00     0.003 A 
HETATM   30  C   UNL     1      43.175 -17.787   2.257  1.00  0.00     0.002 A 
HETATM   31  C   UNL     1      42.966 -16.730   3.154  1.00  0.00     0.033 A 
ENDBRANCH  23  25
ENDBRANCH  20  23
ENDBRANCH  17  18
ENDBRANCH   1  17
TORSDOF 5
ENDMDL
MODEL 7
REMARK VINA RESULT:      -8.2      5.804      9.051
REMARK  5 active torsions:
REMARK  status: ('A' for Active; 'I' for Inactive)
REMARK    1  A    between atoms: C_11  and  C_12 
REMARK    2  A    between atoms: C_12  and  S_13 
REMARK    3  A    between atoms: S_13  and  C_14 
REMARK    4  A    between atoms: C_16  and  N_17 
REMARK    5  A    between atoms: N_17  and  C_18 
ROOT
HETATM    1  C   UNL     1      42.243 -12.859   5.821  1.00  0.00     0.121 C 
ENDROOT
BRANCH   1   2
HETATM    2  C   UNL     1      42.760 -14.269   5.666  1.00  0.00    -0.029 A 
HETATM    3  C   UNL     1      42.448 -15.051   4.413  1.00  0.00     0.016 A 
HETATM    4  C   UNL     1      41.634 -14.637   3.276  1.00  0.00    -0.012 A 
HETATM    5  C   UNL     1      43.025 -16.336   4.347  1.00  0.00     0.091 A 
HETATM    6  C   UNL     1      41.497 -15.542   2.173  1.00  0.00    -0.025 A 
HETATM    7  C   UNL     1      40.925 -13.409   3.100  1.00  0.00     0.013 A 
HETATM    8  C   UNL     1      40.738 -15.217   1.034  1.00  0.00     0.012 A 
HETATM    9  C   UNL     1      42.110 -16.794   2.184  1.00  0.00     0.015 A 
HETATM   10  C   UNL     1      40.080 -14.002   0.922  1.00  0.00     0.001 A 
HETATM   11  C   UNL     1      40.171 -13.097   1.958  1.00  0.00     0.001 A 
HETATM   12  C   UNL     1      42.868 -17.197   3.265  1.00  0.00     0.039 A 
HETATM   13  O   UNL     1      43.816 -16.891   5.374  1.00  0.00    -0.275 OA
HETATM   14  C   UNL     1      44.073 -16.205   6.532  1.00  0.00     0.288 A 
HETATM   15  O   UNL     1      44.741 -16.671   7.446  1.00  0.00    -0.260 OA
HETATM   16  C   UNL     1      43.511 -14.857   6.616  1.00  0.00     0.091 A 
ENDBRANCH   1   2
BRANCH   1  17
HETATM   17  S   UNL     1      43.385 -11.479   5.510  1.00  0.00    -0.096 SA
BRANCH  17  18
HETATM   18  C   UNL     1      43.608 -10.919   7.155  1.00  0.00     0.160 A 
HETATM   19  S   UNL     1      42.873  -9.508   7.778  1.00  0.00    -0.022 SA
HETATM   20  C   UNL     1      43.622  -9.866   9.298  1.00  0.00     0.195 A 
HETATM   21  N   UNL     1      44.361 -10.957   9.252  1.00  0.00    -0.123 NA
HETATM   22  N   UNL     1      44.357 -11.566   8.018  1.00  0.00    -0.133 NA
BRANCH  20  23
HETATM   23  N   UNL     1      43.403  -9.051  10.354  1.00  0.00    -0.331 N 
HETATM   24  H   UNL     1      43.924  -8.179  10.397  1.00  0.00     0.168 HD
BRANCH  23  25
HETATM   25  C   UNL     1      42.491  -9.194  11.421  1.00  0.00     0.073 A 
HETATM   26  C   UNL     1      42.859  -8.692  12.682  1.00  0.00     0.143 A 
HETATM   27  F   UNL     1      44.055  -8.097  12.821  1.00  0.00    -0.204 F 
HETATM   28  C   UNL     1      42.026  -8.786  13.795  1.00  0.00     0.044 A 
HETATM   29  C   UNL     1      40.783  -9.396  13.668  1.00  0.00     0.003 A 
HETATM   30  C   UNL     1      40.391  -9.906  12.431  1.00  0.00     0.002 A 
HETATM   31  C   UNL     1      41.238  -9.807  11.318  1.00  0.00     0.033 A 
ENDBRANCH  23  25
ENDBRANCH  20  23
ENDBRANCH  17  18
ENDBRANCH   1  17
TORSDOF 5
ENDMDL
MODEL 8
REMARK VINA RESULT:      -8.2      4.799      7.751
REMARK  5 active torsions:
REMARK  status: ('A' for Active; 'I' for Inactive)
REMARK    1  A    between atoms: C_11  and  C_12 
REMARK    2  A    between atoms: C_12  and  S_13 
REMARK    3  A    between atoms: S_13  and  C_14 
REMARK    4  A    between atoms: C_16  and  N_17 
REMARK    5  A    between atoms: N_17  and  C_18 
ROOT
HETATM    1  C   UNL     1      40.784 -12.938   4.634  1.00  0.00     0.121 C 
ENDROOT
BRANCH   1   2
HETATM    2  C   UNL     1      40.953 -13.792   3.400  1.00  0.00    -0.029 A 
HETATM    3  C   UNL     1      41.893 -14.972   3.426  1.00  0.00     0.016 A 
HETATM    4  C   UNL     1      42.749 -15.414   4.521  1.00  0.00    -0.012 A 
HETATM    5  C   UNL     1      41.934 -15.734   2.240  1.00  0.00     0.091 A 
HETATM    6  C   UNL     1      43.546 -16.590   4.328  1.00  0.00    -0.025 A 
HETATM    7  C   UNL     1      42.915 -14.816   5.807  1.00  0.00     0.013 A 
HETATM    8  C   UNL     1      44.391 -17.089   5.336  1.00  0.00     0.012 A 
HETATM    9  C   UNL     1      43.520 -17.293   3.124  1.00  0.00     0.015 A 
HETATM   10  C   UNL     1      44.499 -16.465   6.569  1.00  0.00     0.001 A 
HETATM   11  C   UNL     1      43.761 -15.323   6.805  1.00  0.00     0.001 A 
HETATM   12  C   UNL     1      42.723 -16.869   2.079  1.00  0.00     0.039 A 
HETATM   13  O   UNL     1      41.186 -15.425   1.086  1.00  0.00    -0.275 OA
HETATM   14  C   UNL     1      40.359 -14.333   1.039  1.00  0.00     0.288 A 
HETATM   15  O   UNL     1      39.713 -14.031   0.043  1.00  0.00    -0.260 OA
HETATM   16  C   UNL     1      40.275 -13.540   2.265  1.00  0.00     0.091 A 
ENDBRANCH   1   2
BRANCH   1  17
HETATM   17  S   UNL     1      39.152 -12.209   4.965  1.00  0.00    -0.096 SA
BRANCH  17  18
HETATM   18  C   UNL     1      39.577 -11.152   6.296  1.00  0.00     0.160 A 
HETATM   19  S   UNL     1      41.112 -10.422   6.466  1.00  0.00    -0.022 SA
HETATM   20  C   UNL     1      40.516  -9.652   7.899  1.00  0.00     0.195 A 
HETATM   21  N   UNL     1      39.269  -9.984   8.169  1.00  0.00    -0.123 NA
HETATM   22  N   UNL     1      38.724 -10.849   7.247  1.00  0.00    -0.133 NA
BRANCH  20  23
HETATM   23  N   UNL     1      41.325  -8.817   8.589  1.00  0.00    -0.331 N 
HETATM   24  H   UNL     1      40.966  -7.898   8.829  1.00  0.00     0.168 HD
BRANCH  23  25
HETATM   25  C   UNL     1      42.621  -9.047   9.100  1.00  0.00     0.073 A 
HETATM   26  C   UNL     1      42.739  -9.674  10.353  1.00  0.00     0.143 A 
HETATM   27  F   UNL     1      41.623 -10.030  11.011  1.00  0.00    -0.204 F 
HETATM   28  C   UNL     1      43.974  -9.943  10.940  1.00  0.00     0.044 A 
HETATM   29  C   UNL     1      45.140  -9.583  10.271  1.00  0.00     0.003 A 
HETATM   30  C   UNL     1      45.055  -8.957   9.028  1.00  0.00     0.002 A 
HETATM   31  C   UNL     1      43.806  -8.691   8.449  1.00  0.00     0.033 A 
ENDBRANCH  23  25
ENDBRANCH  20  23
ENDBRANCH  17  18
ENDBRANCH   1  17
TORSDOF 5
ENDMDL
MODEL 9
REMARK VINA RESULT:      -8.1      3.891      6.357
REMARK  5 active torsions:
REMARK  status: ('A' for Active; 'I' for Inactive)
REMARK    1  A    between atoms: C_11  and  C_12 
REMARK    2  A    between atoms: C_12  and  S_13 
REMARK    3  A    between atoms: S_13  and  C_14 
REMARK    4  A    between atoms: C_16  and  N_17 
REMARK    5  A    between atoms: N_17  and  C_18 
ROOT
HETATM    1  C   UNL     1      43.215 -11.350   3.724  1.00  0.00     0.121 C 
ENDROOT
BRANCH   1   2
HETATM    2  C   UNL     1      43.431 -12.101   5.016  1.00  0.00    -0.029 A 
HETATM    3  C   UNL     1      43.321 -13.606   5.038  1.00  0.00     0.016 A 
HETATM    4  C   UNL     1      42.974 -14.497   3.937  1.00  0.00    -0.012 A 
HETATM    5  C   UNL     1      43.595 -14.210   6.283  1.00  0.00     0.091 A 
HETATM    6  C   UNL     1      42.957 -15.908   4.185  1.00  0.00    -0.025 A 
HETATM    7  C   UNL     1      42.631 -14.148   2.595  1.00  0.00     0.013 A 
HETATM    8  C   UNL     1      42.642 -16.837   3.176  1.00  0.00     0.012 A 
HETATM    9  C   UNL     1      43.251 -16.426   5.446  1.00  0.00     0.015 A 
HETATM   10  C   UNL     1      42.327 -16.432   1.888  1.00  0.00     0.001 A 
HETATM   11  C   UNL     1      42.319 -15.083   1.597  1.00  0.00     0.001 A 
HETATM   12  C   UNL     1      43.565 -15.585   6.495  1.00  0.00     0.039 A 
HETATM   13  O   UNL     1      43.922 -13.487   7.447  1.00  0.00    -0.275 OA
HETATM   14  C   UNL     1      43.986 -12.118   7.448  1.00  0.00     0.288 A 
HETATM   15  O   UNL     1      44.248 -11.465   8.450  1.00  0.00    -0.260 OA
HETATM   16  C   UNL     1      43.734 -11.465   6.163  1.00  0.00     0.091 A 
ENDBRANCH   1   2
BRANCH   1  17
HETATM   17  S   UNL     1      41.871 -10.127   3.648  1.00  0.00    -0.096 SA
BRANCH  17  18
HETATM   18  C   UNL     1      41.007 -10.741   2.253  1.00  0.00     0.160 A 
HETATM   19  S   UNL     1      39.497 -11.532   2.351  1.00  0.00    -0.022 SA
HETATM   20  C   UNL     1      39.523 -11.660   0.624  1.00  0.00     0.195 A 
HETATM   21  N   UNL     1      40.616 -11.147   0.096  1.00  0.00    -0.123 NA
HETATM   22  N   UNL     1      41.475 -10.617   1.032  1.00  0.00    -0.133 NA
BRANCH  20  23
HETATM   23  N   UNL     1      38.481 -12.239  -0.014  1.00  0.00    -0.331 N 
HETATM   24  H   UNL     1      37.542 -11.981   0.277  1.00  0.00     0.168 HD
BRANCH  23  25
HETATM   25  C   UNL     1      38.486 -13.139  -1.101  1.00  0.00     0.073 A 
HETATM   26  C   UNL     1      37.605 -12.894  -2.170  1.00  0.00     0.143 A 
HETATM   27  F   UNL     1      36.802 -11.819  -2.118  1.00  0.00    -0.204 F 
HETATM   28  C   UNL     1      37.538 -13.725  -3.287  1.00  0.00     0.044 A 
HETATM   29  C   UNL     1      38.365 -14.841  -3.359  1.00  0.00     0.003 A 
HETATM   30  C   UNL     1      39.246 -15.111  -2.313  1.00  0.00     0.002 A 
HETATM   31  C   UNL     1      39.305 -14.269  -1.194  1.00  0.00     0.033 A 
ENDBRANCH  23  25
ENDBRANCH  20  23
ENDBRANCH  17  18
ENDBRANCH   1  17
TORSDOF 5
ENDMDL
MODEL 10
REMARK VINA RESULT:      -8.1      3.891      5.488
REMARK  5 active torsions:
REMARK  status: ('A' for Active; 'I' for Inactive)
REMARK    1  A    between atoms: C_11  and  C_12 
REMARK    2  A    between atoms: C_12  and  S_13 
REMARK    3  A    between atoms: S_13  and  C_14 
REMARK    4  A    between atoms: C_16  and  N_17 
REMARK    5  A    between atoms: N_17  and  C_18 
ROOT
HETATM    1  C   UNL     1      40.701  -9.662   7.155  1.00  0.00     0.121 C 
ENDROOT
BRANCH   1   2
HETATM    2  C   UNL     1      41.201  -9.282   8.528  1.00  0.00    -0.029 A 
HETATM    3  C   UNL     1      42.648  -9.510   8.891  1.00  0.00     0.016 A 
HETATM    4  C   UNL     1      43.693 -10.120   8.077  1.00  0.00    -0.012 A 
HETATM    5  C   UNL     1      43.022  -9.070  10.178  1.00  0.00     0.091 A 
HETATM    6  C   UNL     1      45.015 -10.208   8.622  1.00  0.00    -0.025 A 
HETATM    7  C   UNL     1      43.579 -10.666   6.762  1.00  0.00     0.013 A 
HETATM    8  C   UNL     1      46.081 -10.773   7.900  1.00  0.00     0.012 A 
HETATM    9  C   UNL     1      45.303  -9.738   9.903  1.00  0.00     0.015 A 
HETATM   10  C   UNL     1      45.905 -11.278   6.620  1.00  0.00     0.001 A 
HETATM   11  C   UNL     1      44.650 -11.227   6.051  1.00  0.00     0.001 A 
HETATM   12  C   UNL     1      44.313  -9.174  10.684  1.00  0.00     0.039 A 
HETATM   13  O   UNL     1      42.125  -8.482  11.094  1.00  0.00    -0.275 OA
HETATM   14  C   UNL     1      40.801  -8.306  10.789  1.00  0.00     0.288 A 
HETATM   15  O   UNL     1      39.998  -7.817  11.573  1.00  0.00    -0.260 OA
HETATM   16  C   UNL     1      40.391  -8.728   9.450  1.00  0.00     0.091 A 
ENDBRANCH   1   2
BRANCH   1  17
HETATM   17  S   UNL     1      39.078 -10.469   7.018  1.00  0.00    -0.096 SA
BRANCH  17  18
HETATM   18  C   UNL     1      39.506 -11.788   5.948  1.00  0.00     0.160 A 
HETATM   19  S   UNL     1      39.517 -11.655   4.245  1.00  0.00    -0.022 SA
HETATM   20  C   UNL     1      40.059 -13.300   4.184  1.00  0.00     0.195 A 
HETATM   21  N   UNL     1      40.176 -13.837   5.381  1.00  0.00    -0.123 NA
HETATM   22  N   UNL     1      39.857 -12.970   6.401  1.00  0.00    -0.133 NA
BRANCH  20  23
HETATM   23  N   UNL     1      40.308 -13.872   2.984  1.00  0.00    -0.331 N 
HETATM   24  H   UNL     1      39.790 -13.532   2.179  1.00  0.00     0.168 HD
BRANCH  23  25
HETATM   25  C   UNL     1      41.250 -14.866   2.646  1.00  0.00     0.073 A 
HETATM   26  C   UNL     1      42.490 -14.456   2.123  1.00  0.00     0.143 A 
HETATM   27  F   UNL     1      42.729 -13.143   1.970  1.00  0.00    -0.204 F 
HETATM   28  C   UNL     1      43.484 -15.362   1.759  1.00  0.00     0.044 A 
HETATM   29  C   UNL     1      43.254 -16.725   1.914  1.00  0.00     0.003 A 
HETATM   30  C   UNL     1      42.034 -17.163   2.427  1.00  0.00     0.002 A 
HETATM   31  C   UNL     1      41.041 -16.241   2.788  1.00  0.00     0.033 A 
ENDBRANCH  23  25
ENDBRANCH  20  23
ENDBRANCH  17  18
ENDBRANCH   1  17
TORSDOF 5
ENDMDL
